@<TRIPOS>MOLECULE
tmp/6cb5C00.pdb
 93 91 0 0 0
SMALL
GASTEIGER

@<TRIPOS>ATOM
      1  N         84.4300    6.4620   -2.4810 N.3     1  PRO1       -0.2102
      2  CA        85.3290    6.8120   -1.3750 C.3     1  PRO1        0.1504
      3  C         84.6640    7.3420   -0.0990 C.2     1  PRO1        0.2575
      4  O         83.4740    7.6540   -0.0670 O.2     1  PRO1       -0.2718
      5  CB        86.2190    7.9040   -1.9800 C.3     1  PRO1        0.0282
      6  CG        85.4250    8.4480   -3.1500 C.3     1  PRO1        0.0208
      7  CD        84.7210    7.2490   -3.6880 C.3     1  PRO1        0.0893
      8  N         85.4840    7.4230    0.9510 N.am    2  MET2       -0.1980
      9  CA        85.1140    7.9640    2.2480 C.3     2  MET2        0.1605
     10  C         86.0910    9.0740    2.5620 C.2     2  MET2        0.2287
     11  O         87.3060    8.8480    2.5490 O.2     2  MET2       -0.2864
     12  CB        85.1650    6.8650    3.3170 C.3     2  MET2        0.0413
     13  CG        85.0380    7.3120    4.7520 C.3     2  MET2        0.0598
     14  SD        85.1790    5.9400    5.9280 S.3     2  MET2       -0.1393
     15  CE        86.7810    5.2670    5.5460 C.3     2  MET2        0.0692
     16  N         82.8250    8.1750   -9.3210 N.3    32  LYS32      -0.1231
     17  CA        82.0930    7.1220   -8.6250 C.3    32  LYS32       0.1678
     18  C         80.6760    7.5670   -8.2650 C.2    32  LYS32       0.2434
     19  O         80.4080    8.7590   -8.1140 O.2    32  LYS32      -0.2733
     20  CB        82.8300    6.7090   -7.3630 C.3    32  LYS32       0.0284
     21  CG        84.1870    6.1100   -7.6490 C.3    32  LYS32       0.0035
     22  CD        84.7310    5.3000   -6.4870 C.3    32  LYS32       0.0206
     23  CE        85.9160    4.4520   -6.9430 C.3    32  LYS32       0.1093
     24  NZ        85.5260    3.4810   -8.0130 N.3    32  LYS32      -0.1314
     25  N         79.7470    6.6300   -8.1210 N.am   33  PRO33      -0.2729
     26  CA        78.3730    7.0190   -7.8440 C.3    33  PRO33       0.1401
     27  C         78.2610    7.6500   -6.4680 C.2    33  PRO33       0.2269
     28  O         78.8390    7.1450   -5.4860 O.2    33  PRO33      -0.2865
     29  CB        77.5940    5.6990   -7.9430 C.3    33  PRO33       0.0296
     30  CG        78.6140    4.6140   -7.8350 C.3    33  PRO33       0.0237
     31  CD        79.9010    5.1720   -8.2990 C.3    33  PRO33       0.0939
     32  N         77.4300    5.7130   -2.9100 N.3    36  TYR36      -0.1241
     33  CA        78.4100    5.0290   -2.0780 C.3    36  TYR36       0.1605
     34  C         79.4340    5.9670   -1.4390 C.2    36  TYR36       0.2264
     35  O         80.3740    5.4900   -0.8040 O.2    36  TYR36      -0.2867
     36  CB        79.1390    3.9860   -2.8950 C.3    36  TYR36       0.0534
     37  CG        78.2660    2.8340   -3.3020 C.ar   36  TYR36      -0.0201
     38  CD1       78.0170    1.7780   -2.4260 C.ar   36  TYR36      -0.0009
     39  CD2       77.7070    2.7860   -4.5710 C.ar   36  TYR36      -0.0009
     40  CE1       77.2270    0.7040   -2.8060 C.ar   36  TYR36       0.0417
     41  CE2       76.9160    1.7180   -4.9640 C.ar   36  TYR36       0.0417
     42  CZ        76.6780    0.6840   -4.0750 C.ar   36  TYR36       0.1957
     43  OH        75.8950   -0.3740   -4.4550 O.3    36  TYR36      -0.2866
     44  N         89.7340    7.4340    1.7400 N.3    62  HIS62      -0.1226
     45  CA        89.8150    5.9990    1.5480 C.3    62  HIS62       0.1752
     46  C         89.0220    5.6740    0.2930 C.2    62  HIS62       0.2597
     47  O         87.8850    6.1200    0.1480 O.2    62  HIS62      -0.2718
     48  CB        89.2160    5.2380    2.7330 C.3    62  HIS62       0.0759
     49  CG        89.9800    5.3670    4.0060 C.ar   62  HIS62       0.0818
     50  ND1       89.9630    6.5110    4.7810 N.ar   62  HIS62      -0.2268
     51  CD2       90.7330    4.4660    4.6750 C.ar   62  HIS62       0.1154
     52  CE1       90.7000    6.3150    5.8610 C.ar   62  HIS62       0.1986
     53  NE2       91.1880    5.0830    5.8160 N.ar   62  HIS62      -0.2212
     54  N         89.6130    4.8980   -0.5990 N.am   63  SER63      -0.1938
     55  CA        88.9300    4.5300   -1.8200 C.3    63  SER63       0.2055
     56  C         89.2960    3.1020   -2.1800 C.2    63  SER63       0.2642
     57  O         90.4170    2.6580   -1.9420 O.2    63  SER63      -0.2714
     58  CB        89.3090    5.4610   -2.9700 C.3    63  SER63       0.2130
     59  OG        88.4770    5.2020   -4.0850 O.3    63  SER63      -0.2179
     60  N         88.3400    2.3760   -2.7470 N.am   64  ILE64      -0.1977
     61  CA        88.6300    1.0660   -3.3190 C.3    64  ILE64       0.1596
     62  C         89.0540    1.3420   -4.7560 C.2    64  ILE64       0.2287
     63  O         88.2190    1.5980   -5.6150 O.2    64  ILE64      -0.2864
     64  CB        87.4290    0.1280   -3.2470 C.3    64  ILE64       0.0276
     65  CG1       87.0260   -0.1130   -1.7950 C.3    64  ILE64       0.0022
     66  CG2       87.7440   -1.1890   -3.9620 C.3    64  ILE64       0.0022
     67  CD1       85.6760   -0.7950   -1.6320 C.3    64  ILE64       0.0001
     68  N         92.0350    0.9150   -0.4410 N.3   101  MET101     -0.1245
     69  CA        91.4860   -0.2010    0.3120 C.3   101  MET101      0.1570
     70  C         91.2310   -1.3900   -0.6030 C.2   101  MET101      0.2261
     71  O         90.6790   -1.2480   -1.6990 O.2   101  MET101     -0.2867
     72  CB        90.1770    0.1920    1.0060 C.3   101  MET101      0.0387
     73  CG        90.3350    1.3150    2.0030 C.3   101  MET101      0.0595
     74  SD        91.3700    0.8930    3.4210 S.3   101  MET101     -0.1393
     75  CE        90.5840   -0.5700    4.0680 C.3   101  MET101      0.0692
     76  N         86.7250   -3.9280    3.2020 N.3   106  VAL106     -0.1245
     77  CA        85.6670   -2.9520    3.4130 C.3   106  VAL106      0.1561
     78  C         84.3650   -3.6930    3.6340 C.2   106  VAL106      0.2260
     79  O         83.8570   -4.3740    2.7310 O.2   106  VAL106     -0.2867
     80  CB        85.5320   -1.9720    2.2380 C.3   106  VAL106      0.0252
     81  CG1       84.3930   -1.0270    2.5060 C.3   106  VAL106      0.0019
     82  CG2       86.8180   -1.1990    2.0710 C.3   106  VAL106      0.0019
     83  N         82.9210   -6.0500    0.1920 N.3   113  PHE113     -0.1241
     84  CA        82.8240   -5.8000   -1.2400 C.3   113  PHE113      0.1605
     85  C         83.6120   -6.8110   -2.0680 C.2   113  PHE113      0.2264
     86  O         83.6190   -6.7140   -3.2980 O.2   113  PHE113     -0.2867
     87  CB        83.2990   -4.3710   -1.5600 C.3   113  PHE113      0.0534
     88  CG        82.2880   -3.3080   -1.2230 C.ar  113  PHE113     -0.0203
     89  CD1       81.1150   -3.1980   -1.9450 C.ar  113  PHE113     -0.0042
     90  CD2       82.5100   -2.4170   -0.1880 C.ar  113  PHE113     -0.0042
     91  CE1       80.1770   -2.2140   -1.6380 C.ar  113  PHE113     -0.0003
     92  CE2       81.5820   -1.4330    0.1230 C.ar  113  PHE113     -0.0003
     93  CZ        80.4120   -1.3330   -0.6030 C.ar  113  PHE113     -0.0000
@<TRIPOS>BOND
     1    16    17    1
     2    17    18    1
     3    17    20    1
     4    31    25    1
     5    31    30    1
     6    18    25   am
     7    18    19    2
     8    25    26    1
     9    24    23    1
    10    29    26    1
    11    29    30    1
    12    26    27    1
    13    21    20    1
    14    21    22    1
    15    23    22    1
    16    27    28    2
    17    63    62    2
    18    41    39   ar
    19    41    42   ar
    20    62    61    1
    21    39    37   ar
    22    43    42    1
    23    59    58    1
    24    42    40   ar
    25    66    64    1
    26     7     6    1
    27     7     1    1
    28    61    64    1
    29    61    60    1
    30    37    36    1
    31    37    38   ar
    32    86    85    2
    33    64    65    1
    34     6     5    1
    35    58    55    1
    36    32    33    1
    37    36    33    1
    38    40    38   ar
    39    60    56   am
    40     1     2    1
    41    56    57    2
    42    56    55    1
    43    33    34    1
    44    85    84    1
    45     5     2    1
    46    89    91   ar
    47    89    88   ar
    48    55    54    1
    49    65    67    1
    50    71    70    2
    51    91    93   ar
    52    87    84    1
    53    87    88    1
    54    34    35    2
    55     2     3    1
    56    84    83    1
    57    88    90   ar
    58    93    92   ar
    59    70    69    1
    60    54    46   am
    61    68    69    1
    62    90    92   ar
    63     3     4    2
    64     3     8   am
    65    47    46    2
    66    46    45    1
    67    69    72    1
    68     8     9    1
    69    72    73    1
    70    45    44    1
    71    45    48    1
    72    73    74    1
    73    82    80    1
    74    80    81    1
    75    80    77    1
    76     9    10    1
    77     9    12    1
    78    11    10    2
    79    79    78    2
    80    48    49    1
    81    76    77    1
    82    12    13    1
    83    77    78    1
    84    74    75    1
    85    49    51   ar
    86    49    50   ar
    87    51    53   ar
    88    13    14    1
    89    50    52   ar
    90    15    14    1
    91    53    52   ar
