@<TRIPOS>MOLECULE
tmp/6cbaA01.pdb
 151 146 0 0 0
SMALL
GASTEIGER

@<TRIPOS>ATOM
      1  N         11.7390   -2.2160   11.3280 N.3    82  GLU82      -0.1231
      2  CA        11.1650   -3.2130   10.4360 C.3    82  GLU82       0.1699
      3  C         12.2210   -3.7620    9.4850 C.2    82  GLU82       0.2592
      4  O         13.1230   -3.0510    9.0480 O.2    82  GLU82      -0.2718
      5  CB        10.0320   -2.6050    9.6130 C.3    82  GLU82       0.0402
      6  CG         9.3240   -3.6540    8.7680 C.3    82  GLU82       0.1161
      7  CD         7.9130   -3.2690    8.3570 C.2    82  GLU82       0.3649
      8  OE1        7.3890   -2.2480    8.8560 O.co2  82  GLU82      -0.2457
      9  OE2        7.3120   -3.9970    7.5330 O.co2  82  GLU82      -0.2457
     10  N         12.0640   -5.0470    9.1550 N.am   83  VAL83      -0.1966
     11  CA        12.9050   -5.7700    8.2070 C.3    83  VAL83       0.1727
     12  C         12.0820   -6.0960    6.9640 C.2    83  VAL83       0.2617
     13  O         10.9470   -6.5800    7.0720 O.2    83  VAL83      -0.2715
     14  CB        13.4380   -7.0700    8.8450 C.3    83  VAL83       0.0290
     15  CG1       14.4420   -7.7520    7.9180 C.3    83  VAL83       0.0023
     16  CG2       14.0390   -6.8010   10.2280 C.3    83  VAL83       0.0023
     17  N         12.6630   -5.8490    5.7850 N.am   84  THR84      -0.1937
     18  CA        12.1330   -6.3360    4.5160 C.3    84  THR84       0.2028
     19  C         13.2950   -7.0150    3.8060 C.2    84  THR84       0.2642
     20  O         14.3480   -6.4010    3.5980 O.2    84  THR84      -0.2714
     21  CB        11.6060   -5.1890    3.6530 C.3    84  THR84       0.1808
     22  OG1       10.5130   -4.5590    4.3220 O.3    84  THR84      -0.2208
     23  CG2       11.1430   -5.6850    2.2860 C.3    84  THR84       0.0379
     24  N         13.1260   -8.2810    3.4540 N.am   85  ALA85      -0.1977
     25  CA        14.1760   -9.0060    2.7410 C.3    85  ALA85       0.1597
     26  C         15.5220   -8.8950    3.4590 C.2    85  ALA85       0.2287
     27  O         16.5700   -8.6810    2.8410 O.2    85  ALA85      -0.2864
     28  CB        14.2890   -8.5250    1.2930 C.3    85  ALA85       0.0319
     29  N         14.2470   -1.2370    7.1780 N.3    89  ASP89      -0.1239
     30  CA        13.5330   -0.1820    6.4730 C.3    89  ASP89       0.1674
     31  C         13.6010    1.0820    7.3250 C.2    89  ASP89       0.2266
     32  O         13.6340    1.0120    8.5570 O.2    89  ASP89      -0.2867
     33  CB        12.0560   -0.5310    6.2840 C.3    89  ASP89       0.1410
     34  CG        11.8290   -1.7230    5.3690 C.2    89  ASP89       0.3668
     35  OD1       12.6100   -1.9320    4.4080 O.co2  89  ASP89      -0.2456
     36  OD2       10.8120   -2.4240    5.6060 O.co2  89  ASP89      -0.2456
     37  N         -6.4330   -2.6870    7.8860 N.3   167  HIS167     -0.1241
     38  CA        -5.4150   -2.0490    8.7060 C.3   167  HIS167      0.1621
     39  C         -4.7170   -0.9870    7.8740 C.2   167  HIS167      0.2264
     40  O         -4.9440   -0.8580    6.6760 O.2   167  HIS167     -0.2867
     41  CB        -4.4790   -3.0720    9.3530 C.3   167  HIS167      0.0745
     42  CG        -3.6940   -3.9060    8.3850 C.ar  167  HIS167      0.0817
     43  ND1       -4.2310   -4.9640    7.6860 N.ar  167  HIS167     -0.2268
     44  CD2       -2.3900   -3.8510    8.0290 C.ar  167  HIS167      0.1154
     45  CE1       -3.2930   -5.5180    6.9390 C.ar  167  HIS167      0.1986
     46  NE2       -2.1660   -4.8530    7.1150 N.ar  167  HIS167     -0.2212
     47  N         -0.9400    1.5300    7.6190 N.3   169  ARG169     -0.1245
     48  CA         0.3940    1.9560    8.0230 C.3   169  ARG169      0.1563
     49  C          0.4920    3.4480    7.7820 C.2   169  ARG169      0.2260
     50  O          0.3320    3.9210    6.6490 O.2   169  ARG169     -0.2867
     51  CB         1.4510    1.1910    7.2380 C.3   169  ARG169      0.0307
     52  CG         1.6090   -0.2080    7.7500 C.3   169  ARG169      0.0489
     53  CD         2.2730   -1.1280    6.7590 C.3   169  ARG169      0.2205
     54  NE         3.5340   -0.6470    6.2140 N.pl3 169  ARG169     -0.0865
     55  CZ         4.7360   -0.8980    6.7070 C.cat 169  ARG169      0.5346
     56  NH1        4.8720   -1.5810    7.8320 N.pl3 169  ARG169      0.1354
     57  NH2        5.8070   -0.4420    6.0690 N.pl3 169  ARG169      0.1354
     58  N         11.8770    1.6730    1.9000 N.3   184  ILE184     -0.1245
     59  CA        11.3660    0.3190    2.0900 C.3   184  ILE184      0.1561
     60  C         11.7880   -0.4770    0.8650 C.2   184  ILE184      0.2260
     61  O         11.6410   -0.0100   -0.2680 O.2   184  ILE184     -0.2867
     62  CB         9.8310    0.2720    2.2430 C.3   184  ILE184      0.0252
     63  CG1        9.3340    1.0490    3.4630 C.3   184  ILE184      0.0019
     64  CG2        9.3630   -1.1820    2.3960 C.3   184  ILE184      0.0019
     65  CD1        7.8130    1.2060    3.4650 C.3   184  ILE184      0.0001
     66  N          8.5380   -5.1490   -2.2280 N.3   187  HIS187     -0.1241
     67  CA         7.6760   -6.1280   -1.5790 C.3   187  HIS187      0.1621
     68  C          6.2910   -6.0360   -2.2020 C.2   187  HIS187      0.2264
     69  O          6.0040   -5.1470   -3.0080 O.2   187  HIS187     -0.2867
     70  CB         7.5940   -5.8550   -0.0720 C.3   187  HIS187      0.0745
     71  CG         6.8570   -4.5930    0.2530 C.ar  187  HIS187      0.0817
     72  ND1        7.4190   -3.3470    0.0960 N.ar  187  HIS187     -0.2268
     73  CD2        5.5950   -4.3850    0.7080 C.ar  187  HIS187      0.1154
     74  CE1        6.5280   -2.4220    0.4260 C.ar  187  HIS187      0.1986
     75  NE2        5.4150   -3.0250    0.8100 N.ar  187  HIS187     -0.2212
     76  N          2.0880   -6.3150   -0.7950 N.3   189  ASP189     -0.1225
     77  CA         1.2110   -6.3260    0.3650 C.3   189  ASP189      0.1805
     78  C          0.2520   -7.5170    0.2860 C.2   189  ASP189      0.2597
     79  O          0.1920   -8.2280   -0.7170 O.2   189  ASP189     -0.2718
     80  CB         0.5090   -4.9830    0.5190 C.3   189  ASP189      0.1424
     81  CG         1.4890   -3.8400    0.7050 C.2   189  ASP189      0.3668
     82  OD1        2.4770   -4.0240    1.4380 O.co2 189  ASP189     -0.2456
     83  OD2        1.2800   -2.7670    0.1140 O.co2 189  ASP189     -0.2456
     84  N         -0.4860   -7.7540    1.3810 N.am  190  TYR190     -0.1976
     85  CA        -0.8900   -9.1110    1.7300 C.3   190  TYR190      0.1639
     86  C         -2.3520   -9.4310    1.5020 C.2   190  TYR190      0.2290
     87  O         -2.7110  -10.6160    1.5040 O.2   190  TYR190     -0.2864
     88  CB        -0.5850   -9.3840    3.2150 C.3   190  TYR190      0.0560
     89  CG         0.7860   -8.9330    3.6720 C.ar  190  TYR190     -0.0198
     90  CD1        1.9060   -9.0790    2.8610 C.ar  190  TYR190     -0.0009
     91  CD2        0.9470   -8.3450    4.9100 C.ar  190  TYR190     -0.0009
     92  CE1        3.1510   -8.6490    3.2940 C.ar  190  TYR190      0.0417
     93  CE2        2.1540   -7.9150    5.3390 C.ar  190  TYR190      0.0417
     94  CZ         3.2630   -8.0660    4.5420 C.ar  190  TYR190      0.1957
     95  OH         4.4700   -7.6270    5.0420 O.3   190  TYR190     -0.2866
     96  N          9.4750  -10.4440   -1.0190 N.3   226  ALA226     -0.1245
     97  CA        10.3050   -9.3760   -0.4780 C.3   226  ALA226      0.1562
     98  C         11.6590   -9.3600   -1.1770 C.2   226  ALA226      0.2260
     99  O         12.3120  -10.3980   -1.3070 O.2   226  ALA226     -0.2867
    100  CB        10.4940   -9.5660    1.0190 C.3   226  ALA226      0.0290
    101  N         -4.9660   -1.1150    3.8930 N.3   281  PHE281     -0.1241
    102  CA        -5.0620   -2.4980    3.4520 C.3   281  PHE281      0.1605
    103  C         -6.4840   -2.9650    3.6850 C.2   281  PHE281      0.2264
    104  O         -6.9300   -3.0640    4.8300 O.2   281  PHE281     -0.2867
    105  CB        -4.0330   -3.3340    4.2000 C.3   281  PHE281      0.0534
    106  CG        -2.6640   -2.7470    4.0660 C.ar  281  PHE281     -0.0203
    107  CD1       -1.9540   -2.8770    2.8810 C.ar  281  PHE281     -0.0042
    108  CD2       -2.1320   -1.9670    5.0730 C.ar  281  PHE281     -0.0042
    109  CE1       -0.7170   -2.2790    2.7220 C.ar  281  PHE281     -0.0003
    110  CE2       -0.8770   -1.3730    4.9210 C.ar  281  PHE281     -0.0003
    111  CZ        -0.1820   -1.5420    3.7450 C.ar  281  PHE281     -0.0000
    112  N          3.5820  -10.4830    9.6080 N.3   312  PHE312     -0.1241
    113  CA         3.9900   -9.5660   10.6620 C.3   312  PHE312      0.1605
    114  C          5.0900  -10.1610   11.5250 C.2   312  PHE312      0.2264
    115  O          5.9620   -9.4280   11.9940 O.2   312  PHE312     -0.2867
    116  CB         2.7640   -9.0620   11.4250 C.3   312  PHE312      0.0534
    117  CG         2.1260   -7.8790   10.7530 C.ar  312  PHE312     -0.0203
    118  CD1        1.4900   -8.0100    9.5290 C.ar  312  PHE312     -0.0042
    119  CD2        2.2400   -6.6150   11.3050 C.ar  312  PHE312     -0.0042
    120  CE1        0.9740   -6.9020    8.8860 C.ar  312  PHE312     -0.0003
    121  CE2        1.7230   -5.5220   10.6730 C.ar  312  PHE312     -0.0003
    122  CZ         1.0910   -5.6630    9.4610 C.ar  312  PHE312     -0.0000
    123  N          7.4930  -12.0210   10.3300 N.3   314  ARG314     -0.1231
    124  CA         8.7270  -11.8700    9.5610 C.3   314  ARG314      0.1694
    125  C          9.1750  -10.4150    9.5090 C.2   314  ARG314      0.2592
    126  O         10.3770  -10.1410    9.3830 O.2   314  ARG314     -0.2718
    127  CB         8.5660  -12.4690    8.1630 C.3   314  ARG314      0.0321
    128  CG         8.1370  -11.5050    7.0710 C.3   314  ARG314      0.0489
    129  CD         8.0640  -12.2020    5.7100 C.3   314  ARG314      0.2205
    130  NE         7.7340  -11.2470    4.6600 N.pl3 314  ARG314     -0.0865
    131  CZ         7.3700  -11.5830    3.4290 C.cat 314  ARG314      0.5346
    132  NH1        7.2880  -12.8580    3.0790 N.pl3 314  ARG314      0.1354
    133  NH2        7.0900  -10.6390    2.5450 N.pl3 314  ARG314      0.1354
    134  N          8.2260   -9.4740    9.6190 N.am  315  CYS315     -0.1956
    135  CA         8.5550   -8.0520    9.6040 C.3   315  CYS315      0.1843
    136  C          9.2130   -7.6270   10.9030 C.2   315  CYS315      0.2625
    137  O         10.0790   -6.7420   10.9090 O.2   315  CYS315     -0.2714
    138  CB         7.2680   -7.2270    9.4520 C.3   315  CYS315      0.0997
    139  SG         6.4300   -7.2500    7.8950 S.3   315  CYS315     -0.0797
    140  N          8.7720   -8.2210   12.0060 N.am  316  TYR316     -0.1974
    141  CA         9.0760   -7.7300   13.3490 C.3   316  TYR316      0.1639
    142  C          9.5570   -8.8740   14.2310 C.2   316  TYR316      0.2290
    143  O          8.9190   -9.2180   15.2320 O.2   316  TYR316     -0.2864
    144  CB         7.8350   -7.0730   13.9530 C.3   316  TYR316      0.0560
    145  CG         7.2660   -5.9710   13.1060 C.ar  316  TYR316     -0.0198
    146  CD1        8.0270   -4.8530   12.7830 C.ar  316  TYR316     -0.0009
    147  CD2        5.9690   -6.0410   12.6300 C.ar  316  TYR316     -0.0009
    148  CE1        7.5020   -3.8460   11.9870 C.ar  316  TYR316      0.0417
    149  CE2        5.4390   -5.0410   11.8530 C.ar  316  TYR316      0.0417
    150  CZ         6.2110   -3.9460   11.5370 C.ar  316  TYR316      0.1957
    151  OH         5.6650   -2.9580   10.7580 O.3   316  TYR316     -0.2866
@<TRIPOS>BOND
     1    69    68    2
     2    66    67    1
     3    68    67    1
     4    67    70    1
     5    99    98    2
     6    98    97    1
     7    96    97    1
     8    76    77    1
     9    79    78    2
    10    97   100    1
    11    61    60    2
    12    70    71    1
    13    72    71   ar
    14    72    74   ar
    15    83    81   ar
    16    71    73   ar
    17    78    77    1
    18    78    84   am
    19    77    80    1
    20    74    75   ar
    21    80    81    1
    22    81    82   ar
    23    73    75   ar
    24    60    59    1
    25    28    25    1
    26    84    85    1
    27    86    87    2
    28    86    85    1
    29    85    88    1
    30    58    59    1
    31    59    62    1
    32    62    64    1
    33    62    63    1
    34    23    21    1
    35   133   131    1
    36   109   107   ar
    37   109   111   ar
    38    25    24    1
    39    25    26    1
    40    27    26    2
    41    90    92   ar
    42    90    89   ar
    43   107   106   ar
    44   132   131    1
    45    88    89    1
    46    92    94   ar
    47   131   130    2
    48   102   103    1
    49   102   101    1
    50   102   105    1
    51    24    19   am
    52    63    65    1
    53    20    19    2
    54    21    22    1
    55    21    18    1
    56    89    91   ar
    57   103   104    2
    58   111   110   ar
    59    19    18    1
    60   106   105    1
    61   106   108   ar
    62    35    34   ar
    63    18    17    1
    64    94    95    1
    65    94    93   ar
    66   130   129    1
    67    91    93   ar
    68   110   108   ar
    69    34    36   ar
    70    34    33    1
    71   129   128    1
    72    17    12   am
    73    57    55    1
    74    54    55    2
    75    54    53    1
    76    33    30    1
    77    30    29    1
    78    30    31    1
    79    50    49    2
    80    40    39    2
    81    55    56    1
    82    53    52    1
    83    45    46   ar
    84    45    43   ar
    85    12    13    2
    86    12    11    1
    87   128   127    1
    88    46    44   ar
    89    51    52    1
    90    51    48    1
    91    31    32    2
    92     9     7   ar
    93    47    48    1
    94    43    42   ar
    95    49    48    1
    96    39    38    1
    97    37    38    1
    98   139   138    1
    99    15    14    1
   100    44    42   ar
   101   127   124    1
   102    11    14    1
   103    11    10    1
   104     7     6    1
   105     7     8   ar
   106    42    41    1
   107    38    41    1
   108     6     5    1
   109    14    16    1
   110   120   122   ar
   111   120   118   ar
   112     4     3    2
   113    10     3   am
   114   126   125    2
   115   138   135    1
   116   122   121   ar
   117     3     2    1
   118   125   124    1
   119   125   134   am
   120   118   117   ar
   121   124   123    1
   122   135   134    1
   123   135   136    1
   124   112   113    1
   125     5     2    1
   126     2     1    1
   127   113   116    1
   128   113   114    1
   129   121   119   ar
   130   117   119   ar
   131   117   116    1
   132   151   150    1
   133   136   137    2
   134   136   140   am
   135   114   115    2
   136   150   149   ar
   137   150   148   ar
   138   149   147   ar
   139   148   146   ar
   140   140   141    1
   141   147   145   ar
   142   146   145   ar
   143   145   144    1
   144   141   144    1
   145   141   142    1
   146   142   143    2
