@<TRIPOS>MOLECULE
tmp/6cbdA01.pdb
 107 105 0 0 0
SMALL
GASTEIGER

@<TRIPOS>ATOM
      1  N         80.4480  -20.3630   43.4260 N.3   525  ARG525     -0.1245
      2  CA        79.7770  -19.1100   43.0670 C.3   525  ARG525      0.1563
      3  C         80.6430  -17.8710   43.3060 C.2   525  ARG525      0.2260
      4  O         81.4880  -17.8710   44.2010 O.2   525  ARG525     -0.2867
      5  CB        78.4790  -18.9750   43.8560 C.3   525  ARG525      0.0307
      6  CG        77.4330  -20.0210   43.5200 C.3   525  ARG525      0.0489
      7  CD        76.2560  -19.8720   44.4480 C.3   525  ARG525      0.2205
      8  NE        76.6660  -20.0190   45.8380 N.pl3 525  ARG525     -0.0865
      9  CZ        75.8900  -19.7320   46.8750 C.cat 525  ARG525      0.5346
     10  NH1       74.6650  -19.2720   46.6740 N.pl3 525  ARG525      0.1354
     11  NH2       76.3400  -19.9020   48.1100 N.pl3 525  ARG525      0.1354
     12  N         77.4830  -13.5820   46.1760 N.3   529  PHE529     -0.1227
     13  CA        76.5730  -14.4450   46.9250 C.3   529  PHE529      0.1736
     14  C         76.8590  -14.4920   48.4270 C.2   529  PHE529      0.2595
     15  O         76.1290  -15.1390   49.1760 O.2   529  PHE529     -0.2718
     16  CB        76.6120  -15.8700   46.3620 C.3   529  PHE529      0.0547
     17  CG        75.8600  -16.0350   45.0700 C.ar  529  PHE529     -0.0202
     18  CD1       74.4980  -16.3010   45.0760 C.ar  529  PHE529     -0.0042
     19  CD2       76.5110  -15.9230   43.8520 C.ar  529  PHE529     -0.0042
     20  CE1       73.7990  -16.4540   43.8890 C.ar  529  PHE529     -0.0003
     21  CE2       75.8190  -16.0750   42.6600 C.ar  529  PHE529     -0.0003
     22  CZ        74.4570  -16.3410   42.6790 C.ar  529  PHE529     -0.0000
     23  N         77.9170  -13.8170   48.8680 N.am  530  GLN530     -0.1965
     24  CA        78.2430  -13.7710   50.2940 C.3   530  GLN530      0.1733
     25  C         77.1860  -13.0050   51.0860 C.2   530  GLN530      0.2616
     26  O         76.9850  -13.2540   52.2710 O.2   530  GLN530     -0.2715
     27  CB        79.6160  -13.1350   50.5170 C.3   530  GLN530      0.0408
     28  CG        80.7840  -13.9930   50.0520 C.3   530  GLN530      0.0908
     29  CD        82.1040  -13.2500   50.1070 C.2   530  GLN530      0.2608
     30  OE1       82.1940  -12.1670   50.6850 O.2   530  GLN530     -0.2717
     31  NE2       83.1350  -13.8250   49.4990 N.am  530  GLN530     -0.0878
     32  N         76.5260  -12.0670   50.4160 N.am  531  GLN531     -0.1964
     33  CA        75.4690  -11.2650   51.0210 C.3   531  GLN531      0.1718
     34  C         74.1520  -11.4820   50.2870 C.2   531  GLN531      0.2458
     35  O         74.1590  -11.8270   49.1060 O.2   531  GLN531     -0.2730
     36  CB        75.8410   -9.7820   50.9990 C.3   531  GLN531      0.0407
     37  CG        77.0130   -9.4110   51.8860 C.3   531  GLN531      0.0908
     38  CD        77.2000   -7.9090   51.9840 C.2   531  GLN531      0.2608
     39  OE1       76.8910   -7.1690   51.0480 O.2   531  GLN531     -0.2717
     40  NE2       77.6960   -7.4490   53.1270 N.am  531  GLN531     -0.0878
     41  N         73.0180  -11.2850   50.9860 N.am  532  PRO532     -0.2716
     42  CA        71.6930  -11.3820   50.3650 C.3   532  PRO532      0.1536
     43  C         71.5890  -10.5650   49.0830 C.2   532  PRO532      0.2598
     44  O         71.8860   -9.3710   49.0680 O.2   532  PRO532     -0.2715
     45  CB        70.7630  -10.8260   51.4460 C.3   532  PRO532      0.0310
     46  CG        71.4410  -11.1850   52.7120 C.3   532  PRO532      0.0237
     47  CD        72.9190  -11.0320   52.4350 C.3   532  PRO532      0.0939
     48  N         71.1800  -11.2270   48.0100 N.am  533  VAL533     -0.1978
     49  CA        71.0960  -10.5960   46.7050 C.3   533  VAL533      0.1596
     50  C         69.8920  -11.1490   45.9510 C.2   533  VAL533      0.2287
     51  O         69.6440  -12.3550   45.9660 O.2   533  VAL533     -0.2864
     52  CB        72.3960  -10.8240   45.8880 C.3   533  VAL533      0.0276
     53  CG1       72.7630  -12.2990   45.8680 C.3   533  VAL533      0.0022
     54  CG2       72.2500  -10.2860   44.4720 C.3   533  VAL533      0.0022
     55  N         67.9890  -11.4870   42.2060 N.3   535  PHE535     -0.1241
     56  CA        68.1940  -11.3950   40.7710 C.3   535  PHE535      0.1605
     57  C         66.8610  -11.1570   40.0720 C.2   535  PHE535      0.2264
     58  O         65.9170  -11.9330   40.2310 O.2   535  PHE535     -0.2867
     59  CB        68.8790  -12.6620   40.2580 C.3   535  PHE535      0.0534
     60  CG        70.2310  -12.8840   40.8620 C.ar  535  PHE535     -0.0203
     61  CD1       71.3550  -12.2860   40.3140 C.ar  535  PHE535     -0.0042
     62  CD2       70.3770  -13.6540   42.0030 C.ar  535  PHE535     -0.0042
     63  CE1       72.6010  -12.4750   40.8780 C.ar  535  PHE535     -0.0003
     64  CE2       71.6200  -13.8420   42.5730 C.ar  535  PHE535     -0.0003
     65  CZ        72.7320  -13.2490   42.0110 C.ar  535  PHE535     -0.0000
     66  N         65.5160  -17.3500   46.6200 N.3   561  ASP561     -0.1225
     67  CA        66.4470  -18.0740   47.4770 C.3   561  ASP561      0.1805
     68  C         67.8840  -17.7060   47.1220 C.2   561  ASP561      0.2597
     69  O         68.1200  -16.9000   46.2180 O.2   561  ASP561     -0.2718
     70  CB        66.2290  -19.5900   47.3730 C.3   561  ASP561      0.1424
     71  CG        66.3670  -20.1150   45.9540 C.2   561  ASP561      0.3668
     72  OD1       67.3850  -19.8230   45.2960 O.co2 561  ASP561     -0.2456
     73  OD2       65.4530  -20.8330   45.4930 O.co2 561  ASP561     -0.2456
     74  N         68.8380  -18.3090   47.8270 N.am  562  ALA562     -0.1979
     75  CA        70.2470  -17.9580   47.6830 C.3   562  ALA562      0.1597
     76  C         70.9860  -18.8310   46.6770 C.2   562  ALA562      0.2287
     77  O         72.1860  -18.6590   46.4760 O.2   562  ALA562     -0.2864
     78  CB        70.9420  -18.0390   49.0370 C.3   562  ALA562      0.0319
     79  N         60.5030  -11.8100   48.4760 N.3   595  PHE595     -0.1241
     80  CA        61.8600  -12.2580   48.7800 C.3   595  PHE595      0.1605
     81  C         62.0720  -12.3240   50.2890 C.2   595  PHE595      0.2264
     82  O         62.6190  -13.2970   50.8060 O.2   595  PHE595     -0.2867
     83  CB        62.8850  -11.3230   48.1320 C.3   595  PHE595      0.0534
     84  CG        64.3200  -11.7200   48.3640 C.ar  595  PHE595     -0.0203
     85  CD1       65.0060  -11.2820   49.4880 C.ar  595  PHE595     -0.0042
     86  CD2       64.9940  -12.5030   47.4410 C.ar  595  PHE595     -0.0042
     87  CE1       66.3280  -11.6350   49.6960 C.ar  595  PHE595     -0.0003
     88  CE2       66.3180  -12.8570   47.6440 C.ar  595  PHE595     -0.0003
     89  CZ        66.9850  -12.4210   48.7690 C.ar  595  PHE595     -0.0000
     90  N         63.0260  -15.7220   52.4660 N.3   599  THR599     -0.1218
     91  CA        64.3900  -15.8560   52.9760 C.3   599  THR599      0.1862
     92  C         64.5980  -15.2150   54.3470 C.2   599  THR599      0.2287
     93  O         65.5780  -15.5140   55.0270 O.2   599  THR599     -0.2866
     94  CB        65.4160  -15.2240   52.0070 C.3   599  THR599      0.1770
     95  OG1       65.2530  -13.8010   52.0000 O.3   599  THR599     -0.2211
     96  CG2       65.2340  -15.7590   50.5910 C.3   599  THR599      0.0375
     97  N         65.5300  -12.3180   54.6890 N.3   601  PHE601     -0.1241
     98  CA        66.5800  -11.3270   54.4780 C.3   601  PHE601      0.1605
     99  C         66.0880  -10.1980   53.5860 C.2   601  PHE601      0.2264
    100  O         65.2380  -10.4050   52.7230 O.2   601  PHE601     -0.2867
    101  CB        67.8210  -11.9510   53.8350 C.3   601  PHE601      0.0534
    102  CG        68.6200  -12.8260   54.7540 C.ar  601  PHE601     -0.0203
    103  CD1       69.4830  -12.2730   55.6830 C.ar  601  PHE601     -0.0042
    104  CD2       68.5340  -14.2040   54.6640 C.ar  601  PHE601     -0.0042
    105  CE1       70.2300  -13.0790   56.5190 C.ar  601  PHE601     -0.0003
    106  CE2       69.2810  -15.0140   55.4910 C.ar  601  PHE601     -0.0003
    107  CZ        70.1290  -14.4510   56.4220 C.ar  601  PHE601     -0.0000
@<TRIPOS>BOND
     1    57    58    2
     2    57    56    1
     3    59    56    1
     4    59    60    1
     5    61    60   ar
     6    61    63   ar
     7    56    55    1
     8    60    62   ar
     9    63    65   ar
    10    62    64   ar
    11    65    64   ar
    12    21    22   ar
    13    21    19   ar
    14    22    20   ar
    15     2     3    1
    16     2     1    1
    17     2     5    1
    18     3     4    2
    19     6     5    1
    20     6     7    1
    21    19    17   ar
    22    20    18   ar
    23     7     8    1
    24    54    52    1
    25    17    18   ar
    26    17    16    1
    27    72    71   ar
    28    73    71   ar
    29     8     9    2
    30    53    52    1
    31    52    49    1
    32    50    51    2
    33    50    49    1
    34    71    70    1
    35    12    13    1
    36    69    68    2
    37    16    13    1
    38    77    76    2
    39    66    67    1
    40    10     9    1
    41    76    75    1
    42    49    48    1
    43     9    11    1
    44    13    14    1
    45    68    67    1
    46    68    74   am
    47    70    67    1
    48    86    88   ar
    49    86    84   ar
    50    88    89   ar
    51    75    74    1
    52    75    78    1
    53    48    43   am
    54    83    84    1
    55    83    80    1
    56    84    85   ar
    57    14    23   am
    58    14    15    2
    59    79    80    1
    60    89    87   ar
    61    80    81    1
    62    23    24    1
    63    44    43    2
    64    43    42    1
    65    35    34    2
    66    85    87   ar
    67    31    29   am
    68    28    29    1
    69    28    27    1
    70    29    30    2
    71    34    41   am
    72    34    33    1
    73    81    82    2
    74    24    27    1
    75    24    25    1
    76    42    41    1
    77    42    45    1
    78    32    33    1
    79    32    25   am
    80    96    94    1
    81    41    47    1
    82    36    33    1
    83    36    37    1
    84    39    38    2
    85    25    26    2
    86    45    46    1
    87    37    38    1
    88    38    40   am
    89    95    94    1
    90    94    91    1
    91    47    46    1
    92    90    91    1
    93   100    99    2
    94    91    92    1
    95    99    98    1
    96   101    98    1
    97   101   102    1
    98    92    93    2
    99    98    97    1
   100   104   102   ar
   101   104   106   ar
   102   102   103   ar
   103   106   107   ar
   104   103   105   ar
   105   107   105   ar
