@<TRIPOS>MOLECULE
tmp/6cbdA00.pdb
 93 90 0 0 0
SMALL
GASTEIGER

@<TRIPOS>ATOM
      1  N         58.4900   -3.9260   44.0560 N.3   589  ARG589     -0.1245
      2  CA        58.0520   -3.9040   45.4470 C.3   589  ARG589      0.1563
      3  C         57.4650   -5.2500   45.8710 C.2   589  ARG589      0.2260
      4  O         57.8230   -5.7850   46.9200 O.2   589  ARG589     -0.2867
      5  CB        57.0220   -2.7930   45.6680 C.3   589  ARG589      0.0307
      6  CG        56.3560   -2.8570   47.0290 C.3   589  ARG589      0.0489
      7  CD        55.2770   -1.7980   47.1870 C.3   589  ARG589      0.2205
      8  NE        54.4870   -2.0230   48.3940 N.pl3 589  ARG589     -0.0865
      9  CZ        54.8300   -1.5940   49.6040 C.cat 589  ARG589      0.5346
     10  NH1       55.9530   -0.9060   49.7750 N.pl3 589  ARG589      0.1354
     11  NH2       54.0510   -1.8500   50.6460 N.pl3 589  ARG589      0.1354
     12  N         60.2920   -7.7610   46.1240 N.3   592  LEU592     -0.1231
     13  CA        61.1150   -7.5590   47.3110 C.3   592  LEU592      0.1693
     14  C         60.4080   -8.0880   48.5590 C.2   592  LEU592      0.2591
     15  O         61.0180   -8.7580   49.3920 O.2   592  LEU592     -0.2718
     16  CB        61.4720   -6.0780   47.4780 C.3   592  LEU592      0.0284
     17  CG        62.5210   -5.5210   46.5060 C.3   592  LEU592      0.0019
     18  CD1       62.7240   -4.0300   46.7170 C.3   592  LEU592      0.0001
     19  CD2       63.8490   -6.2620   46.6360 C.3   592  LEU592      0.0001
     20  N         59.1160   -7.8030   48.6730 N.am  593  ILE593     -0.1980
     21  CA        58.3270   -8.3020   49.7920 C.3   593  ILE593      0.1595
     22  C         58.3030   -9.8310   49.8040 C.2   593  ILE593      0.2287
     23  O         58.4870  -10.4560   50.8510 O.2   593  ILE593     -0.2864
     24  CB        56.8890   -7.7390   49.7480 C.3   593  ILE593      0.0276
     25  CG1       56.9070   -6.2410   50.0680 C.3   593  ILE593      0.0022
     26  CG2       55.9830   -8.4750   50.7200 C.3   593  ILE593      0.0022
     27  CD1       55.5860   -5.5440   49.8240 C.3   593  ILE593      0.0001
     28  N         61.6360  -11.2830   50.9890 N.3   596  TYR596     -0.1227
     29  CA        61.7770  -11.2290   52.4400 C.3   596  TYR596      0.1736
     30  C         60.9720  -12.3320   53.1260 C.2   596  TYR596      0.2595
     31  O         61.4240  -12.9100   54.1080 O.2   596  TYR596     -0.2718
     32  CB        61.3530   -9.8570   52.9750 C.3   596  TYR596      0.0548
     33  CG        61.5470   -9.7100   54.4680 C.ar  596  TYR596     -0.0200
     34  CD1       62.8070   -9.4610   55.0020 C.ar  596  TYR596     -0.0009
     35  CD2       60.4750   -9.8330   55.3450 C.ar  596  TYR596     -0.0009
     36  CE1       62.9940   -9.3310   56.3670 C.ar  596  TYR596      0.0417
     37  CE2       60.6500   -9.7060   56.7130 C.ar  596  TYR596      0.0417
     38  CZ        61.9120   -9.4540   57.2190 C.ar  596  TYR596      0.1957
     39  OH        62.0920   -9.3270   58.5780 O.3   596  TYR596     -0.2866
     40  N         59.7840  -12.6320   52.6100 N.am  597  LYS597     -0.1980
     41  CA        58.9660  -13.6930   53.1960 C.3   597  LYS597      0.1596
     42  C         59.5940  -15.0710   53.0000 C.2   597  LYS597      0.2287
     43  O         59.4300  -15.9570   53.8360 O.2   597  LYS597     -0.2864
     44  CB        57.5520  -13.6810   52.6090 C.3   597  LYS597      0.0298
     45  CG        56.6980  -12.5120   53.0680 C.3   597  LYS597      0.0038
     46  CD        55.3150  -12.5430   52.4230 C.3   597  LYS597      0.0206
     47  CE        54.4450  -11.3870   52.9070 C.3   597  LYS597      0.1093
     48  NZ        53.1040  -11.3670   52.2460 N.3   597  LYS597     -0.1314
     49  N         66.6330   -9.0060   53.7930 N.3   602  LYS602     -0.1231
     50  CA        66.4800   -7.9200   52.8370 C.3   602  LYS602      0.1678
     51  C         67.7020   -7.9070   51.9170 C.2   602  LYS602      0.2434
     52  O         68.8310   -7.9440   52.3950 O.2   602  LYS602     -0.2733
     53  CB        66.3260   -6.5800   53.5540 C.3   602  LYS602      0.0284
     54  CG        65.1670   -6.5310   54.5360 C.3   602  LYS602      0.0035
     55  CD        65.2660   -5.3150   55.4430 C.3   602  LYS602      0.0206
     56  CE        64.1650   -5.3160   56.4930 C.3   602  LYS602      0.1093
     57  NZ        64.2490   -4.1140   57.3670 N.3   602  LYS602     -0.1314
     58  N         67.4790   -7.8750   50.5940 N.am  603  PRO603     -0.2729
     59  CA        68.5940   -7.8570   49.6380 C.3   603  PRO603      0.1401
     60  C         69.5030   -6.6530   49.8550 C.2   603  PRO603      0.2269
     61  O         69.0060   -5.5350   49.9870 O.2   603  PRO603     -0.2865
     62  CB        67.8990   -7.7650   48.2750 C.3   603  PRO603      0.0296
     63  CG        66.5040   -8.2130   48.5120 C.3   603  PRO603      0.0237
     64  CD        66.1700   -7.8300   49.9210 C.3   603  PRO603      0.0939
     65  N         59.5260    1.0260   50.7510 N.3   636  LEU636     -0.1231
     66  CA        59.5270   -0.1570   51.6020 C.3   636  LEU636      0.1693
     67  C         60.0710    0.1540   52.9920 C.2   636  LEU636      0.2591
     68  O         59.5260   -0.3020   53.9970 O.2   636  LEU636     -0.2718
     69  CB        60.3410   -1.2850   50.9660 C.3   636  LEU636      0.0284
     70  CG        59.6050   -2.1980   49.9850 C.3   636  LEU636      0.0019
     71  CD1       60.5100   -3.3240   49.5470 C.3   636  LEU636      0.0001
     72  CD2       58.3340   -2.7510   50.6100 C.3   636  LEU636      0.0001
     73  N         61.1480    0.9300   53.0460 N.am  637  GLU637     -0.1979
     74  CA        61.7960    1.2270   54.3140 C.3   637  GLU637      0.1602
     75  C         62.6840    2.4600   54.2290 C.2   637  GLU637      0.2287
     76  O         63.3410    2.7040   53.2130 O.2   637  GLU637     -0.2864
     77  CB        62.6200    0.0240   54.7830 C.3   637  GLU637      0.0415
     78  CG        63.4060    0.2600   56.0650 C.3   637  GLU637      0.1163
     79  CD        64.2810   -0.9190   56.4420 C.2   637  GLU637      0.3649
     80  OE1       64.1100   -2.0050   55.8490 O.co2 637  GLU637     -0.2457
     81  OE2       65.1430   -0.7590   57.3320 O.co2 637  GLU637     -0.2457
     82  N         66.5200    2.3470   53.0900 N.3   640  TYR640     -0.1241
     83  CA        66.8370    1.0670   52.4720 C.3   640  TYR640      0.1605
     84  C         67.3510    1.3260   51.0630 C.2   640  TYR640      0.2264
     85  O         66.5700    1.5970   50.1520 O.2   640  TYR640     -0.2867
     86  CB        65.6200    0.1420   52.4420 C.3   640  TYR640      0.0534
     87  CG        65.8770   -1.1500   51.7020 C.ar  640  TYR640     -0.0201
     88  CD1       66.8590   -2.0360   52.1350 C.ar  640  TYR640     -0.0009
     89  CD2       65.1460   -1.4830   50.5690 C.ar  640  TYR640     -0.0009
     90  CE1       67.1030   -3.2190   51.4600 C.ar  640  TYR640      0.0417
     91  CE2       65.3830   -2.6610   49.8880 C.ar  640  TYR640      0.0417
     92  CZ        66.3590   -3.5260   50.3380 C.ar  640  TYR640      0.1957
     93  OH        66.5940   -4.6970   49.6640 O.3   640  TYR640     -0.2866
@<TRIPOS>BOND
     1     1     2    1
     2     2     5    1
     3     2     3    1
     4     5     6    1
     5     3     4    2
     6    12    13    1
     7    17    19    1
     8    17    18    1
     9    17    16    1
    10     6     7    1
    11     7     8    1
    12    13    16    1
    13    13    14    1
    14    62    63    1
    15    62    59    1
    16     8     9    2
    17    63    64    1
    18    14    20   am
    19    14    15    2
    20    20    21    1
    21    71    70    1
    22     9    10    1
    23     9    11    1
    24    59    60    1
    25    59    58    1
    26    93    92    1
    27    24    21    1
    28    24    25    1
    29    24    26    1
    30    21    22    1
    31    22    23    2
    32    27    25    1
    33    60    61    2
    34    91    92   ar
    35    91    89   ar
    36    64    58    1
    37    70    72    1
    38    70    69    1
    39    85    84    2
    40    92    90   ar
    41    89    87   ar
    42    58    51   am
    43    65    66    1
    44    69    66    1
    45    28    29    1
    46    84    83    1
    47    90    88   ar
    48    66    67    1
    49    87    88   ar
    50    87    86    1
    51    51    52    2
    52    51    50    1
    53    48    47    1
    54    46    47    1
    55    46    45    1
    56    29    32    1
    57    29    30    1
    58    86    83    1
    59    83    82    1
    60    44    45    1
    61    44    41    1
    62    40    30   am
    63    40    41    1
    64    50    53    1
    65    50    49    1
    66    32    33    1
    67    67    73   am
    68    67    68    2
    69    42    41    1
    70    42    43    2
    71    73    74    1
    72    30    31    2
    73    76    75    2
    74    53    54    1
    75    75    74    1
    76    74    77    1
    77    33    34   ar
    78    33    35   ar
    79    54    55    1
    80    77    78    1
    81    34    36   ar
    82    35    37   ar
    83    55    56    1
    84    80    79   ar
    85    78    79    1
    86    36    38   ar
    87    79    81   ar
    88    56    57    1
    89    37    38   ar
    90    38    39    1
