@<TRIPOS>MOLECULE
tmp/6cbfC00.pdb
 93 91 0 0 0
SMALL
GASTEIGER

@<TRIPOS>ATOM
      1  N         31.7190   20.5670    8.9000 N.3     1  PRO1       -0.2102
      2  CA        30.8450   19.4130    9.0980 C.3     1  PRO1        0.1504
      3  C         31.4340   18.0820    8.6120 C.2     1  PRO1        0.2575
      4  O         32.5100   18.0550    8.0230 O.2     1  PRO1       -0.2718
      5  CB        29.6120   19.7780    8.2470 C.3     1  PRO1        0.0282
      6  CG        30.1360   20.7260    7.2170 C.3     1  PRO1        0.0208
      7  CD        31.0820   21.5610    8.0190 C.3     1  PRO1        0.0893
      8  N         30.6980   17.0000    8.8450 N.am    2  MET2       -0.1980
      9  CA        31.0700   15.6720    8.3710 C.3     2  MET2        0.1605
     10  C         30.1390   15.2340    7.2310 C.2     2  MET2        0.2287
     11  O         28.9500   15.0650    7.4470 O.2     2  MET2       -0.2864
     12  CB        30.9710   14.6990    9.5420 C.3     2  MET2        0.0413
     13  CG        31.3430   13.2730    9.2120 C.3     2  MET2        0.0598
     14  SD        31.3290   12.2340   10.6720 S.3     2  MET2       -0.1393
     15  CE        29.6260   12.3450   11.1840 C.3     2  MET2        0.0692
     16  N         32.8760   27.1490    7.4560 N.3    32  LYS32      -0.1231
     17  CA        33.4850   26.4420    8.5800 C.3    32  LYS32       0.1678
     18  C         34.9640   26.2250    8.2890 C.2    32  LYS32       0.2434
     19  O         35.3560   26.1860    7.1160 O.2    32  LYS32      -0.2733
     20  CB        32.8030   25.1020    8.8280 C.3    32  LYS32       0.0284
     21  CG        31.3010   25.1830    8.9980 C.3    32  LYS32       0.0035
     22  CD        30.8600   25.4080   10.4280 C.3    32  LYS32       0.0206
     23  CE        29.3670   25.1680   10.5380 C.3    32  LYS32       0.1093
     24  NZ        28.9050   25.1480   11.9420 N.3    32  LYS32      -0.1314
     25  N         35.7970   26.0960    9.3460 N.am   33  PRO33      -0.2729
     26  CA        37.2230   25.9060    9.0780 C.3    33  PRO33       0.1401
     27  C         37.4610   24.5590    8.3960 C.2    33  PRO33       0.2269
     28  O         36.9840   23.5430    8.8960 O.2    33  PRO33      -0.2865
     29  CB        37.8590   25.9350   10.4750 C.3    33  PRO33       0.0296
     30  CG        36.7500   25.5760   11.4170 C.3    33  PRO33       0.0237
     31  CD        35.5140   26.1580   10.7950 C.3    33  PRO33       0.0939
     32  N         38.5820   21.0110   10.2090 N.3    36  TYR36      -0.1241
     33  CA        37.6150   20.1250   10.8580 C.3    36  TYR36       0.1605
     34  C         36.5790   19.5110    9.8650 C.2    36  TYR36       0.2264
     35  O         35.6550   18.8250   10.2860 O.2    36  TYR36      -0.2867
     36  CB        36.9100   20.9010   11.9900 C.3    36  TYR36       0.0534
     37  CG        37.7560   21.2490   13.2270 C.ar   36  TYR36      -0.0201
     38  CD1       39.1410   21.0630   13.2770 C.ar   36  TYR36      -0.0009
     39  CD2       37.1490   21.7970   14.3500 C.ar   36  TYR36      -0.0009
     40  CE1       39.8770   21.3910   14.4080 C.ar   36  TYR36       0.0417
     41  CE2       37.8760   22.1340   15.4830 C.ar   36  TYR36       0.0417
     42  CZ        39.2410   21.9320   15.5090 C.ar   36  TYR36       0.1957
     43  OH        39.9660   22.2810   16.6420 O.3    36  TYR36      -0.2866
     44  N         26.6000   16.1350    8.8540 N.3    62  HIS62      -0.1226
     45  CA        26.4440   16.4520   10.2870 C.3    62  HIS62       0.1752
     46  C         27.1790   17.7450   10.6180 C.2    62  HIS62       0.2597
     47  O         28.3450   17.8810   10.2740 O.2    62  HIS62      -0.2718
     48  CB        26.9810   15.3290   11.1880 C.3    62  HIS62       0.0759
     49  CG        26.2820   14.0140   11.0340 C.ar   62  HIS62       0.0818
     50  ND1       26.4790   13.1860    9.9480 N.ar   62  HIS62      -0.2268
     51  CD2       25.4270   13.3610   11.8540 C.ar   62  HIS62       0.1154
     52  CE1       25.7560   12.0920   10.0950 C.ar   62  HIS62       0.1986
     53  NE2       25.1030   12.1770   11.2400 N.ar   62  HIS62      -0.2212
     54  N         26.4930   18.6750   11.2890 N.am   63  SER63      -0.1938
     55  CA        27.1040   19.9090   11.8120 C.3    63  SER63       0.2055
     56  C         26.8510   20.0250   13.3130 C.2    63  SER63       0.2642
     57  O         25.9010   19.4500   13.8340 O.2    63  SER63      -0.2714
     58  CB        26.5180   21.1490   11.1260 C.3    63  SER63       0.2130
     59  OG        26.5950   21.0390    9.7310 O.3    63  SER63      -0.2179
     60  N         27.6870   20.7980   13.9920 N.am   64  ILE64      -0.1977
     61  CA        27.4470   21.1410   15.3810 C.3    64  ILE64       0.1596
     62  C         26.6500   22.4570   15.4100 C.2    64  ILE64       0.2287
     63  O         27.1500   23.4880   14.9560 O.2    64  ILE64      -0.2864
     64  CB        28.7630   21.2280   16.1830 C.3    64  ILE64       0.0276
     65  CG1       29.3530   19.8140   16.3130 C.3    64  ILE64       0.0022
     66  CG2       28.5080   21.8400   17.5610 C.3    64  ILE64       0.0022
     67  CD1       30.7850   19.7350   16.8130 C.3    64  ILE64       0.0001
     68  N         24.0300   18.1850   15.4080 N.3   101  MET101     -0.1245
     69  CA        24.6540   17.5420   16.5630 C.3   101  MET101      0.1570
     70  C         24.8990   18.5770   17.6590 C.2   101  MET101      0.2261
     71  O         25.3660   19.6840   17.3780 O.2   101  MET101     -0.2867
     72  CB        25.9960   16.8830   16.1770 C.3   101  MET101      0.0387
     73  CG        25.8980   15.7370   15.1700 C.3   101  MET101      0.0595
     74  SD        24.8550   14.3350   15.6260 S.3   101  MET101     -0.1393
     75  CE        25.4820   13.9260   17.2600 C.3   101  MET101      0.0692
     76  N         29.6530   15.1270   20.1080 N.3   106  VAL106     -0.1245
     77  CA        30.6690   14.8850   19.1010 C.3   106  VAL106      0.1561
     78  C         31.9900   14.7360   19.8310 C.2   106  VAL106      0.2260
     79  O         32.5360   15.7170   20.3510 O.2   106  VAL106     -0.2867
     80  CB        30.7140   16.0120   18.0520 C.3   106  VAL106      0.0252
     81  CG1       31.8710   15.8160   17.0800 C.3   106  VAL106      0.0019
     82  CG2       29.3960   16.0630   17.2910 C.3   106  VAL106      0.0019
     83  N         33.4920   18.4580   22.0260 N.3   113  PHE113     -0.1241
     84  CA        33.3250   19.9010   21.8690 C.3   113  PHE113      0.1605
     85  C         32.4720   20.5210   23.0120 C.2   113  PHE113      0.2264
     86  O         31.6690   19.8170   23.6190 O.2   113  PHE113     -0.2867
     87  CB        32.7280   20.1930   20.4890 C.3   113  PHE113      0.0534
     88  CG        33.6670   19.9020   19.3510 C.ar  113  PHE113     -0.0203
     89  CD1       34.6720   20.8070   19.0140 C.ar  113  PHE113     -0.0042
     90  CD2       33.5460   18.7340   18.6000 C.ar  113  PHE113     -0.0042
     91  CE1       35.5380   20.5450   17.9630 C.ar  113  PHE113     -0.0003
     92  CE2       34.4160   18.4690   17.5510 C.ar  113  PHE113     -0.0003
     93  CZ        35.4100   19.3720   17.2350 C.ar  113  PHE113     -0.0000
@<TRIPOS>BOND
     1    19    18    2
     2     6     7    1
     3     6     5    1
     4    10    11    2
     5    10     9    1
     6    16    17    1
     7     7     1    1
     8     4     3    2
     9     5     2    1
    10    18    17    1
    11    18    25   am
    12     9     8    1
    13     9    12    1
    14    27    28    2
    15    27    26    1
    16    17    20    1
    17     3     8   am
    18     3     2    1
    19    20    21    1
    20    44    45    1
    21     1     2    1
    22    21    22    1
    23    26    25    1
    24    26    29    1
    25    13    12    1
    26    13    14    1
    27    25    31    1
    28    59    58    1
    29    34    35    2
    30    34    33    1
    31    50    52   ar
    32    50    49   ar
    33    52    53   ar
    34    32    33    1
    35    47    46    2
    36    45    46    1
    37    45    48    1
    38    22    23    1
    39    29    30    1
    40    23    24    1
    41    46    54   am
    42    14    15    1
    43    31    30    1
    44    33    36    1
    45    49    48    1
    46    49    51   ar
    47    58    55    1
    48    53    51   ar
    49    54    55    1
    50    55    56    1
    51    36    37    1
    52    37    38   ar
    53    37    39   ar
    54    38    40   ar
    55    56    57    2
    56    56    60   am
    57    60    61    1
    58    39    41   ar
    59    40    42   ar
    60    63    62    2
    61    73    74    1
    62    73    72    1
    63    61    62    1
    64    61    64    1
    65    68    69    1
    66    41    42   ar
    67    42    43    1
    68    74    75    1
    69    72    69    1
    70    64    65    1
    71    64    66    1
    72    65    67    1
    73    69    70    1
    74    81    80    1
    75    93    92   ar
    76    93    91   ar
    77    82    80    1
    78    71    70    2
    79    92    90   ar
    80    91    89   ar
    81    80    77    1
    82    90    88   ar
    83    89    88   ar
    84    77    78    1
    85    77    76    1
    86    88    87    1
    87    78    79    2
    88    87    84    1
    89    84    83    1
    90    84    85    1
    91    85    86    2
