@<TRIPOS>MOLECULE
tmp/6cbgC00.pdb
 86 83 0 0 0
SMALL
GASTEIGER

@<TRIPOS>ATOM
      1  N        -24.6730    7.3840   18.3560 N.3     1  PRO1       -0.2102
      2  CA       -24.1430    6.6480   17.2210 C.3     1  PRO1        0.1504
      3  C        -23.3430    5.4010   17.6850 C.2     1  PRO1        0.2575
      4  O        -23.0130    5.2820   18.8770 O.2     1  PRO1       -0.2718
      5  CB       -23.2140    7.6720   16.5520 C.3     1  PRO1        0.0282
      6  CG       -23.7860    9.0070   16.9070 C.3     1  PRO1        0.0208
      7  CD       -24.4610    8.8490   18.2350 C.3     1  PRO1        0.0893
      8  N        -23.0290    4.5260   16.7330 N.am    2  MET2       -0.1980
      9  CA       -22.4220    3.2350   16.9840 C.3     2  MET2        0.1605
     10  C        -21.2320    3.0170   16.0460 C.2     2  MET2        0.2287
     11  O        -21.3900    3.1460   14.8360 O.2     2  MET2       -0.2864
     12  CB       -23.4940    2.1880   16.7090 C.3     2  MET2        0.0413
     13  CG       -23.1730    0.7920   17.1590 C.3     2  MET2        0.0598
     14  SD       -24.6570   -0.2170   16.9980 S.3     2  MET2       -0.1393
     15  CE       -24.7010   -0.5150   15.2330 C.3     2  MET2        0.0692
     16  N        -22.3990   14.7700   18.8740 N.3    32  LYS32      -0.1245
     17  CA       -23.3320   14.1770   19.8420 C.3    32  LYS32       0.1561
     18  C        -22.5950   13.7970   21.1350 C.2    32  LYS32       0.2260
     19  O        -21.4040   13.5270   21.0990 O.2    32  LYS32      -0.2867
     20  CB       -24.0440   12.9810   19.2150 C.3    32  LYS32       0.0271
     21  CG       -24.7820   13.3860   17.9570 C.3    32  LYS32       0.0035
     22  CD       -25.7490   12.3510   17.4370 C.3    32  LYS32       0.0206
     23  CE       -26.3300   12.8100   16.1080 C.3    32  LYS32       0.1093
     24  NZ       -27.6490   12.2310   15.7550 N.3    32  LYS32      -0.1314
     25  N        -24.1140    8.9230   24.2390 N.3    36  TYR36      -0.1241
     26  CA       -24.8200    8.2690   23.1230 C.3    36  TYR36       0.1605
     27  C        -23.8960    7.6020   22.0930 C.2    36  TYR36       0.2264
     28  O        -24.3400    7.2690   20.9790 O.2    36  TYR36      -0.2867
     29  CB       -25.6490    9.3300   22.3980 C.3    36  TYR36       0.0534
     30  CG       -26.8170    9.8450   23.1620 C.ar   36  TYR36      -0.0201
     31  CD1      -26.6990   10.9250   24.0400 C.ar   36  TYR36      -0.0009
     32  CD2      -28.0720    9.2770   22.9840 C.ar   36  TYR36      -0.0009
     33  CE1      -27.8140   11.4170   24.7160 C.ar   36  TYR36       0.0417
     34  CE2      -29.1790    9.7670   23.6430 C.ar   36  TYR36       0.0417
     35  CZ       -29.0420   10.8290   24.5100 C.ar   36  TYR36       0.1957
     36  OH       -30.1710   11.2890   25.1400 O.3    36  TYR36      -0.2866
     37  N        -22.7860    3.9030   12.3970 N.3    62  HIS62      -0.1226
     38  CA       -24.2210    4.1020   12.2770 C.3    62  HIS62       0.1752
     39  C        -24.5540    5.3480   13.0880 C.2    62  HIS62       0.2597
     40  O        -24.1160    5.4720   14.2410 O.2    62  HIS62      -0.2718
     41  CB       -24.9980    2.9290   12.8750 C.3    62  HIS62       0.0759
     42  CG       -24.8730    1.6250   12.1360 C.ar   62  HIS62       0.0818
     43  ND1      -23.7510    0.8250   12.1990 N.ar   62  HIS62      -0.2268
     44  CD2      -25.7810    0.9330   11.4060 C.ar   62  HIS62       0.1154
     45  CE1      -23.9530   -0.2800   11.5020 C.ar   62  HIS62       0.1986
     46  NE2      -25.1720   -0.2310   10.9950 N.ar   62  HIS62      -0.2212
     47  N        -25.3530    6.2410   12.5140 N.am   63  SER63      -0.1938
     48  CA       -25.7860    7.4490   13.2020 C.3    63  SER63       0.2055
     49  C        -27.1570    7.8900   12.6940 C.2    63  SER63       0.2642
     50  O        -27.4830    7.7100   11.5150 O.2    63  SER63      -0.2714
     51  CB       -24.7690    8.5760   12.9580 C.3    63  SER63       0.2130
     52  OG       -25.1580    9.7760   13.6070 O.3    63  SER63      -0.2179
     53  N        -27.9530    8.4830   13.5800 N.am   64  ILE64      -0.1977
     54  CA       -29.2100    9.0930   13.1610 C.3    64  ILE64       0.1596
     55  C        -28.8470   10.4650   12.5960 C.2    64  ILE64       0.2287
     56  O        -28.6480   11.4160   13.3420 O.2    64  ILE64      -0.2864
     57  CB       -30.2270    9.1910   14.3220 C.3    64  ILE64       0.0276
     58  CG1      -30.5700    7.7900   14.8300 C.3    64  ILE64       0.0022
     59  CG2      -31.5100    9.8860   13.8790 C.3    64  ILE64       0.0022
     60  CD1      -31.2080    7.7820   16.1940 C.3    64  ILE64       0.0001
     61  N        -29.2750    6.1290    9.9180 N.3   101  MET101     -0.1245
     62  CA       -30.4410    5.4380   10.4550 C.3   101  MET101      0.1570
     63  C        -31.5940    6.4260   10.6710 C.2   101  MET101      0.2261
     64  O        -31.3820    7.5730   11.0900 O.2   101  MET101     -0.2867
     65  CB       -30.0940    4.7660   11.8010 C.3   101  MET101      0.0387
     66  CG       -29.0150    3.6940   11.7450 C.3   101  MET101      0.0595
     67  SD       -29.4520    2.2850   10.6970 S.3   101  MET101     -0.1393
     68  CE       -30.8270    1.5850   11.5900 C.3   101  MET101      0.0692
     69  N        -34.0170    2.7620   15.3020 N.3   106  VAL106     -0.1245
     70  CA       -33.0510    2.5200   16.3640 C.3   106  VAL106      0.1561
     71  C        -33.7890    2.3570   17.6800 C.2   106  VAL106      0.2260
     72  O        -34.4130    3.3080   18.1940 O.2   106  VAL106     -0.2867
     73  CB       -32.0180    3.6490   16.4720 C.3   106  VAL106      0.0252
     74  CG1      -30.9800    3.3320   17.5540 C.3   106  VAL106      0.0019
     75  CG2      -31.3200    3.8570   15.1360 C.3   106  VAL106      0.0019
     76  N        -35.8680    5.7930   19.1960 N.3   113  PHE113     -0.1241
     77  CA       -35.5470    7.2260   19.2160 C.3   113  PHE113      0.1605
     78  C        -36.5320    8.1230   18.4670 C.2   113  PHE113      0.2264
     79  O        -36.3590    9.3340   18.4910 O.2   113  PHE113     -0.2867
     80  CB       -34.1120    7.4750   18.7110 C.3   113  PHE113      0.0534
     81  CG       -33.0590    7.1290   19.7310 C.ar  113  PHE113     -0.0203
     82  CD1      -32.8910    7.9220   20.8670 C.ar  113  PHE113     -0.0042
     83  CD2      -32.2840    6.0000   19.5970 C.ar  113  PHE113     -0.0042
     84  CE1      -31.9480    7.5960   21.8240 C.ar  113  PHE113     -0.0003
     85  CE2      -31.3290    5.6790   20.5360 C.ar  113  PHE113     -0.0003
     86  CZ       -31.1630    6.4700   21.6520 C.ar  113  PHE113     -0.0000
@<TRIPOS>BOND
     1    61    62    1
     2    62    63    1
     3    62    65    1
     4    63    64    2
     5    67    68    1
     6    67    66    1
     7    46    44   ar
     8    46    45   ar
     9    44    42   ar
    10    45    43   ar
    11    50    49    2
    12    66    65    1
    13    42    43   ar
    14    42    41    1
    15    38    37    1
    16    38    41    1
    17    38    39    1
    18    47    39   am
    19    47    48    1
    20    55    54    1
    21    55    56    2
    22    49    48    1
    23    49    53   am
    24    51    48    1
    25    51    52    1
    26    39    40    2
    27    54    53    1
    28    54    57    1
    29    59    57    1
    30    57    58    1
    31    58    60    1
    32    11    10    2
    33    75    73    1
    34    15    14    1
    35    69    70    1
    36    24    23    1
    37    10     9    1
    38    23    22    1
    39    70    73    1
    40    70    71    1
    41    73    74    1
    42     5     6    1
    43     5     2    1
    44    12     9    1
    45    12    13    1
    46     8     9    1
    47     8     3   am
    48     6     7    1
    49    14    13    1
    50     2     3    1
    51     2     1    1
    52    22    21    1
    53    71    72    2
    54     3     4    2
    55    21    20    1
    56     7     1    1
    57    78    79    2
    58    78    77    1
    59    80    77    1
    60    80    81    1
    61    16    17    1
    62    76    77    1
    63    20    17    1
    64    83    81   ar
    65    83    85   ar
    66    81    82   ar
    67    17    18    1
    68    85    86   ar
    69    82    84   ar
    70    28    27    2
    71    19    18    2
    72    86    84   ar
    73    27    26    1
    74    29    26    1
    75    29    30    1
    76    32    30   ar
    77    32    34   ar
    78    26    25    1
    79    30    31   ar
    80    34    35   ar
    81    31    33   ar
    82    35    33   ar
    83    35    36    1
