@<TRIPOS>MOLECULE
tmp/6cbhC00.pdb
 105 99 0 0 0
SMALL
GASTEIGER

@<TRIPOS>ATOM
      1  N        -37.3540   13.8640  -11.0740 N.3     1  PRO1       -0.2102
      2  CA       -36.2450   12.9380  -11.3020 C.3     1  PRO1        0.1504
      3  C        -34.9660   13.5740  -11.8310 C.2     1  PRO1        0.2575
      4  O        -34.9560   14.7510  -12.2270 O.2     1  PRO1       -0.2718
      5  CB       -36.8150   11.9840  -12.3590 C.3     1  PRO1        0.0282
      6  CG       -37.8330   12.8050  -13.0620 C.3     1  PRO1        0.0208
      7  CD       -38.5040   13.4900  -11.9110 C.3     1  PRO1        0.0893
      8  N        -33.9070   12.7660  -11.8360 N.am    2  MET2       -0.1980
      9  CA       -32.6040   13.1180  -12.3520 C.3     2  MET2        0.1605
     10  C        -32.2530   12.1660  -13.5010 C.2     2  MET2        0.2287
     11  O        -32.2930   10.9420  -13.3170 O.2     2  MET2       -0.2864
     12  CB       -31.5860   12.9420  -11.2380 C.3     2  MET2        0.0413
     13  CG       -30.1700   13.2790  -11.6360 C.3     2  MET2        0.0598
     14  SD       -29.0040   13.0600  -10.2900 S.3     2  MET2       -0.1393
     15  CE       -28.8600   11.2830  -10.1420 C.3     2  MET2        0.0692
     16  N        -44.6670   15.9300  -13.1490 N.3    32  LYS32      -0.1245
     17  CA       -43.9730   16.6750  -12.1160 C.3    32  LYS32       0.1561
     18  C        -43.5830   18.0360  -12.6570 C.2    32  LYS32       0.2260
     19  O        -43.3770   18.1930  -13.8710 O.2    32  LYS32      -0.2867
     20  CB       -42.7270   15.9220  -11.6380 C.3    32  LYS32       0.0271
     21  CG       -43.0880   14.6970  -10.8120 C.3    32  LYS32       0.0035
     22  CD       -41.9010   13.7990  -10.5500 C.3    32  LYS32       0.0206
     23  CE       -42.2180   12.8260   -9.4140 C.3    32  LYS32       0.1093
     24  NZ       -41.2890   11.6770   -9.3580 N.3    32  LYS32      -0.1314
     25  N        -38.3020   20.2690  -10.3320 N.3    36  TYR36      -0.1241
     26  CA       -37.7300   19.0640   -9.7180 C.3    36  TYR36       0.1605
     27  C        -36.7810   18.2830  -10.6380 C.2    36  TYR36       0.2264
     28  O        -35.9970   17.4480  -10.1460 O.2    36  TYR36      -0.2867
     29  CB       -38.8490   18.1380   -9.2350 C.3    36  TYR36       0.0534
     30  CG       -39.6450   18.7120   -8.0900 C.ar   36  TYR36      -0.0201
     31  CD1      -40.7360   19.5660   -8.3210 C.ar   36  TYR36      -0.0009
     32  CD2      -39.3140   18.4060   -6.7670 C.ar   36  TYR36      -0.0009
     33  CE1      -41.4620   20.1000   -7.2600 C.ar   36  TYR36       0.0417
     34  CE2      -40.0390   18.9290   -5.7050 C.ar   36  TYR36       0.0417
     35  CZ       -41.1070   19.7780   -5.9520 C.ar   36  TYR36       0.1957
     36  OH       -41.8320   20.2930   -4.8970 O.3    36  TYR36      -0.2866
     37  N        -33.6720   17.3810  -12.9340 N.3    38  ALA38      -0.1245
     38  CA       -32.2680   17.6720  -13.2410 C.3    38  ALA38       0.1562
     39  C        -31.8470   16.8150  -14.4130 C.2    38  ALA38       0.2260
     40  O        -32.2100   15.6160  -14.4740 O.2    38  ALA38      -0.2867
     41  CB       -31.3790   17.3830  -12.0440 C.3    38  ALA38       0.0290
     42  N        -32.9560    8.4550  -12.0090 N.3    62  HIS62      -0.1226
     43  CA       -33.2330    8.3120  -10.5830 C.3    62  HIS62       0.1752
     44  C        -34.5060    9.0700  -10.2410 C.2    62  HIS62       0.2597
     45  O        -34.6510   10.2480  -10.5910 O.2    62  HIS62      -0.2718
     46  CB       -32.1020    8.8720   -9.7310 C.3    62  HIS62       0.0759
     47  CG       -30.7940    8.1590   -9.8720 C.ar   62  HIS62       0.0818
     48  ND1      -29.9820    8.3050  -10.9710 N.ar   62  HIS62      -0.2268
     49  CD2      -30.1250    7.3470   -9.0200 C.ar   62  HIS62       0.1154
     50  CE1      -28.8780    7.6030  -10.8030 C.ar   62  HIS62       0.1986
     51  NE2      -28.9410    7.0090   -9.6260 N.ar   62  HIS62      -0.2212
     52  N        -35.4060    8.4000   -9.5320 N.am   63  SER63      -0.1938
     53  CA       -36.6480    9.0120   -9.0570 C.3    63  SER63       0.2055
     54  C        -36.9850    8.5190   -7.6490 C.2    63  SER63       0.2642
     55  O        -36.6800    7.3730   -7.2860 O.2    63  SER63      -0.2714
     56  CB       -37.7850    8.6780  -10.0270 C.3    63  SER63       0.2130
     57  OG       -38.9760    9.3310   -9.6390 O.3    63  SER63      -0.2179
     58  N        -37.5900    9.3940   -6.8470 N.am   64  ILE64      -0.1977
     59  CA       -38.1090    9.0060   -5.5390 C.3    64  ILE64       0.1596
     60  C        -39.5020    8.4080   -5.7810 C.2    64  ILE64       0.2287
     61  O        -40.4820    9.1380   -5.9360 O.2    64  ILE64      -0.2864
     62  CB       -38.1410   10.1980   -4.5500 C.3    64  ILE64       0.0276
     63  CG1      -36.7100   10.6580   -4.2330 C.3    64  ILE64       0.0022
     64  CG2      -38.8460    9.8050   -3.2550 C.3    64  ILE64       0.0022
     65  CD1      -36.5920   12.0760   -3.7240 C.3    64  ILE64       0.0001
     66  N        -42.3020    6.2030   -8.1540 N.3    66  LYS66      -0.1245
     67  CA       -42.7490    6.2930   -9.5510 C.3    66  LYS66       0.1561
     68  C        -41.8040    5.5450  -10.5200 C.2    66  LYS66       0.2260
     69  O        -41.5690    5.9760  -11.6560 O.2    66  LYS66      -0.2867
     70  CB       -42.9310    7.7530   -9.9750 C.3    66  LYS66       0.0271
     71  CG       -43.7380    8.5890   -8.9900 C.3    66  LYS66       0.0035
     72  CD       -45.1920    8.1000   -8.9520 C.3    66  LYS66       0.0206
     73  CE       -46.1260    9.1950   -8.4330 C.3    66  LYS66       0.1093
     74  NZ       -45.5550    9.8090   -7.1700 N.3    66  LYS66      -0.1314
     75  N        -35.1600    5.7500   -5.6320 N.3   101  MET101     -0.1245
     76  CA       -34.4440    6.2730   -4.4670 C.3   101  MET101      0.1570
     77  C        -35.4000    6.4650   -3.2770 C.2   101  MET101      0.2261
     78  O        -36.5360    6.9190   -3.4460 O.2   101  MET101     -0.2867
     79  CB       -33.7730    7.5990   -4.8110 C.3   101  MET101      0.0387
     80  CG       -32.6890    7.5060   -5.8870 C.3   101  MET101      0.0595
     81  SD       -31.3100    6.4480   -5.4160 S.3   101  MET101     -0.1393
     82  CE       -30.6690    7.3150   -3.9910 C.3   101  MET101      0.0692
     83  N        -36.4870    8.6170   -0.1160 N.3   103  ALA103     -0.1245
     84  CA       -36.4040   10.0580    0.1340 C.3   103  ALA103      0.1562
     85  C        -35.2900   10.4070    1.1190 C.2   103  ALA103      0.2260
     86  O        -34.6480   11.4550    0.9780 O.2   103  ALA103     -0.2867
     87  CB       -37.7410   10.6010    0.6310 C.3   103  ALA103      0.0290
     88  N        -31.8220   10.9400   -0.6640 N.3   106  VAL106     -0.1245
     89  CA       -31.5960   12.0430   -1.6050 C.3   106  VAL106      0.1561
     90  C        -31.4390   13.3480   -0.8370 C.2   106  VAL106      0.2260
     91  O        -32.3860   13.8500   -0.2350 O.2   106  VAL106     -0.2867
     92  CB       -32.7270   12.1680   -2.6500 C.3   106  VAL106      0.0252
     93  CG1      -32.4510   13.3120   -3.6230 C.3   106  VAL106      0.0019
     94  CG2      -32.8780   10.8540   -3.4150 C.3   106  VAL106      0.0019
     95  N        -34.8230   14.7040    1.5090 N.3   113  PHE113     -0.1241
     96  CA       -36.2530   14.7850    1.2310 C.3   113  PHE113      0.1605
     97  C        -37.1030   13.9730    2.2120 C.2   113  PHE113      0.2264
     98  O        -38.3260   13.9940    2.1030 O.2   113  PHE113     -0.2867
     99  CB       -36.5440   14.3310   -0.2130 C.3   113  PHE113      0.0534
    100  CG       -36.1870   15.3510   -1.2580 C.ar  113  PHE113     -0.0203
    101  CD1      -36.8900   16.5520   -1.3470 C.ar  113  PHE113     -0.0042
    102  CD2      -35.1710   15.1090   -2.1820 C.ar  113  PHE113     -0.0042
    103  CE1      -36.5850   17.4890   -2.3300 C.ar  113  PHE113     -0.0003
    104  CE2      -34.8700   16.0360   -3.1640 C.ar  113  PHE113     -0.0003
    105  CZ       -35.5730   17.2280   -3.2370 C.ar  113  PHE113     -0.0000
@<TRIPOS>BOND
     1    40    39    2
     2    39    38    1
     3    19    18    2
     4    10    11    2
     5    10     9    1
     6    38    37    1
     7    38    41    1
     8    16    17    1
     9     6     5    1
    10     6     7    1
    11    18    17    1
    12     5     2    1
    13     9     8    1
    14     9    12    1
    15     4     3    2
    16    17    20    1
    17    42    43    1
    18     7     1    1
    19     8     3   am
    20     3     2    1
    21    69    68    2
    22    20    21    1
    23    13    12    1
    24    13    14    1
    25     2     1    1
    26    48    50   ar
    27    48    47   ar
    28    21    22    1
    29    50    51   ar
    30    27    28    2
    31    27    26    1
    32    45    44    2
    33    43    44    1
    34    43    46    1
    35    22    23    1
    36    68    67    1
    37    25    26    1
    38    14    15    1
    39    44    52   am
    40    56    57    1
    41    56    53    1
    42    70    67    1
    43    70    71    1
    44    47    46    1
    45    47    49   ar
    46    26    29    1
    47    51    49   ar
    48    67    66    1
    49    52    53    1
    50    23    24    1
    51    29    30    1
    52    53    54    1
    53    71    72    1
    54    72    73    1
    55    73    74    1
    56    31    30   ar
    57    31    33   ar
    58    30    32   ar
    59    54    55    2
    60    54    58   am
    61    33    35   ar
    62    58    59    1
    63    32    34   ar
    64    35    34   ar
    65    35    36    1
    66    61    60    2
    67    80    81    1
    68    80    79    1
    69    60    59    1
    70    75    76    1
    71    59    62    1
    72    81    82    1
    73    79    76    1
    74    62    63    1
    75    62    64    1
    76    76    77    1
    77    63    65    1
    78    93    92    1
    79    78    77    2
    80    94    92    1
    81   105   104   ar
    82   105   103   ar
    83   104   102   ar
    84    92    89    1
    85   103   101   ar
    86   102   100   ar
    87    89    90    1
    88    89    88    1
    89   101   100   ar
    90   100    99    1
    91    90    91    2
    92    99    96    1
    93    83    84    1
    94    84    87    1
    95    84    85    1
    96    86    85    2
    97    96    95    1
    98    96    97    1
    99    98    97    2
