@<TRIPOS>MOLECULE
tmp/6cbkD00.pdb
 123 120 0 0 0
SMALL
GASTEIGER

@<TRIPOS>ATOM
      1  N         36.5630   81.8010   29.1120 N.3   101  SER101     -0.1202
      2  CA        36.6130   81.1090   27.8270 C.3   101  SER101      0.2020
      3  C         35.4670   80.1290   27.8000 C.2   101  SER101      0.2619
      4  O         34.9500   79.7330   28.8510 O.2   101  SER101     -0.2717
      5  CB        37.9270   80.3470   27.5610 C.3   101  SER101      0.2103
      6  OG        38.1420   79.2530   28.4660 O.3   101  SER101     -0.2182
      7  N         35.1370   79.6630   26.6160 N.am  102  GLY102     -0.1942
      8  CA        34.1090   78.6060   26.5150 C.3   102  GLY102      0.2014
      9  C         34.6280   77.3350   27.1580 C.2   102  GLY102      0.2639
     10  O         33.9370   76.6570   27.9050 O.2   102  GLY102     -0.2714
     11  N         35.9090   77.0490   26.9740 N.am  103  THR103     -0.1950
     12  CA        36.5280   75.8710   27.6040 C.3   103  THR103      0.1897
     13  C         36.3790   75.8590   29.1230 C.2   103  THR103      0.2313
     14  O         35.9760   74.8740   29.7110 O.2   103  THR103     -0.2863
     15  CB        38.0200   75.8340   27.2340 C.3   103  THR103      0.1794
     16  OG1       38.1580   75.6250   25.8290 O.3   103  THR103     -0.2208
     17  CG2       38.7390   74.7350   28.0120 C.3   103  THR103      0.0378
     18  N         32.5200   75.3580   30.1140 N.3   106  VAL106     -0.1245
     19  CA        31.9480   74.0100   29.9710 C.3   106  VAL106      0.1561
     20  C         32.5670   73.0580   30.9970 C.2   106  VAL106      0.2260
     21  O         31.8500   72.2660   31.6110 O.2   106  VAL106     -0.2867
     22  CB        32.0590   73.4370   28.5510 C.3   106  VAL106      0.0252
     23  CG1       31.3980   72.0530   28.4660 C.3   106  VAL106      0.0019
     24  CG2       31.3780   74.3640   27.5550 C.3   106  VAL106      0.0019
     25  N         32.2470   69.2820   20.3750 N.3   127  TYR127     -0.1227
     26  CA        33.4620   69.8980   20.8980 C.3   127  TYR127      0.1736
     27  C         33.0970   70.7890   22.0830 C.2   127  TYR127      0.2595
     28  O         32.1100   71.5580   22.0230 O.2   127  TYR127     -0.2718
     29  CB        34.0960   70.7350   19.7870 C.3   127  TYR127      0.0548
     30  CG        35.3520   71.4560   20.2130 C.ar  127  TYR127     -0.0200
     31  CD1       36.5160   70.7470   20.4940 C.ar  127  TYR127     -0.0009
     32  CD2       35.3410   72.8270   20.3920 C.ar  127  TYR127     -0.0009
     33  CE1       37.6740   71.4090   20.8860 C.ar  127  TYR127      0.0417
     34  CE2       36.4820   73.4950   20.7940 C.ar  127  TYR127      0.0417
     35  CZ        37.6270   72.7810   21.0400 C.ar  127  TYR127      0.1957
     36  OH        38.7550   73.4900   21.4210 O.3   127  TYR127     -0.2866
     37  N         33.8930   70.6620   23.1450 N.am  128  HIS128     -0.1961
     38  CA        33.6440   71.4120   24.3620 C.3   128  HIS128      0.1787
     39  C         34.7810   72.2740   24.8110 C.2   128  HIS128      0.2621
     40  O         34.6760   72.8990   25.8750 O.2   128  HIS128     -0.2715
     41  CB        33.2490   70.4830   25.5080 C.3   128  HIS128      0.0785
     42  CG        32.0680   69.6430   25.1640 C.ar  128  HIS128      0.0821
     43  ND1       30.8920   70.2000   24.7190 N.ar  128  HIS128     -0.2267
     44  CD2       31.8920   68.2980   25.1300 C.ar  128  HIS128      0.1154
     45  CE1       30.0160   69.2400   24.4760 C.ar  128  HIS128      0.1986
     46  NE2       30.6080   68.0770   24.6960 N.ar  128  HIS128     -0.2212
     47  N         35.8200   72.3420   23.9940 N.am  129  GLY129     -0.1940
     48  CA        36.9590   73.1940   24.3160 C.3   129  GLY129      0.2014
     49  C         38.2620   72.4210   24.4030 C.2   129  GLY129      0.2638
     50  O         38.3150   71.2100   24.1460 O.2   129  GLY129     -0.2714
     51  N         39.3540   73.1230   24.7060 N.am  130  TYR130     -0.1973
     52  CA        40.6890   72.5440   24.5300 C.3   130  TYR130      0.1639
     53  C         41.1710   71.6480   25.6710 C.2   130  TYR130      0.2290
     54  O         42.1910   70.9800   25.5320 O.2   130  TYR130     -0.2864
     55  CB        41.7240   73.6530   24.2670 C.3   130  TYR130      0.0560
     56  CG        42.0330   74.5440   25.4560 C.ar  130  TYR130     -0.0198
     57  CD1       42.8590   74.1100   26.4760 C.ar  130  TYR130     -0.0009
     58  CD2       41.4790   75.8110   25.5590 C.ar  130  TYR130     -0.0009
     59  CE1       43.1630   74.9200   27.5520 C.ar  130  TYR130      0.0417
     60  CE2       41.7720   76.6380   26.6310 C.ar  130  TYR130      0.0417
     61  CZ        42.6340   76.1910   27.6210 C.ar  130  TYR130      0.1957
     62  OH        42.9190   76.9830   28.7050 O.3   130  TYR130     -0.2866
     63  N         26.8760   69.7400   22.1740 N.3   174  SER174     -0.1203
     64  CA        27.0770   70.9620   21.3860 C.3   174  SER174      0.2005
     65  C         26.2250   70.9720   20.1130 C.2   174  SER174      0.2460
     66  O         26.5040   70.2300   19.1790 O.2   174  SER174     -0.2732
     67  CB        28.5660   71.0950   21.0160 C.3   174  SER174      0.2103
     68  OG        29.3410   71.1190   22.1960 O.3   174  SER174     -0.2182
     69  N         25.1500   71.7780   20.0750 N.am  175  PRO175     -0.2728
     70  CA        24.2530   71.7710   18.9310 C.3   175  PRO175      0.1401
     71  C         24.8770   72.1290   17.5950 C.2   175  PRO175      0.2269
     72  O         25.8700   72.8670   17.5270 O.2   175  PRO175     -0.2865
     73  CB        23.1360   72.7350   19.3300 C.3   175  PRO175      0.0296
     74  CG        23.2160   72.8180   20.8110 C.3   175  PRO175      0.0237
     75  CD        24.6830   72.7160   21.1110 C.3   175  PRO175      0.0939
     76  N         25.7670   72.7920   25.5420 N.3   202  ASP202     -0.1239
     77  CA        26.9750   73.6250   25.3000 C.3   202  ASP202      0.1674
     78  C         26.6680   74.4890   24.0790 C.2   202  ASP202      0.2266
     79  O         26.8660   74.0600   22.9280 O.2   202  ASP202     -0.2867
     80  CB        28.1500   72.7220   25.0560 C.3   202  ASP202      0.1410
     81  CG        29.4070   73.5090   24.7220 C.2   202  ASP202      0.3668
     82  OD1       29.2370   74.7350   24.6340 O.co2 202  ASP202     -0.2456
     83  OD2       30.4690   72.8880   24.6230 O.co2 202  ASP202     -0.2456
     84  N         28.0400   77.3450   23.4680 N.3   204  VAL204     -0.1231
     85  CA        29.1220   78.3230   23.3250 C.3   204  VAL204      0.1692
     86  C         29.0710   78.9420   21.9260 C.2   204  VAL204      0.2591
     87  O         29.2310   80.1470   21.7690 O.2   204  VAL204     -0.2718
     88  CB        30.5080   77.6720   23.5750 C.3   204  VAL204      0.0266
     89  CG1       31.6820   78.4870   23.0000 C.3   204  VAL204      0.0020
     90  CG2       30.7590   77.4540   25.0650 C.3   204  VAL204      0.0020
     91  N         28.9360   78.1170   20.8860 N.am  205  LYS205     -0.1980
     92  CA        28.8560   78.6260   19.5320 C.3   205  LYS205      0.1596
     93  C         27.4690   79.1720   19.1560 C.2   205  LYS205      0.2287
     94  O         27.3590   80.2500   18.6080 O.2   205  LYS205     -0.2864
     95  CB        29.2970   77.5450   18.5410 C.3   205  LYS205      0.0298
     96  CG        29.2760   78.0460   17.1200 C.3   205  LYS205      0.0038
     97  CD        29.9110   77.0880   16.1390 C.3   205  LYS205      0.0206
     98  CE        29.0310   75.9050   15.8650 C.3   205  LYS205      0.1093
     99  NZ        29.7980   74.9130   15.0410 N.3   205  LYS205     -0.1314
    100  N         28.7930   81.7450   24.9110 N.3   228  ALA228     -0.1231
    101  CA        30.0250   82.5840   24.9240 C.3   228  ALA228      0.1694
    102  C         30.1820   83.4250   23.6700 C.2   228  ALA228      0.2591
    103  O         30.3010   84.6300   23.7470 O.2   228  ALA228     -0.2718
    104  CB        31.2540   81.7450   25.1660 C.3   228  ALA228      0.0304
    105  N         30.1860   82.7970   22.5030 N.am  229  LYS229     -0.1980
    106  CA        30.5330   83.5050   21.2840 C.3   229  LYS229      0.1596
    107  C         29.5600   84.5910   20.9320 C.2   229  LYS229      0.2287
    108  O         29.8880   85.6370   20.3520 O.2   229  LYS229     -0.2864
    109  CB        30.7010   82.5100   20.1450 C.3   229  LYS229      0.0298
    110  CG        31.8780   81.5330   20.3290 C.3   229  LYS229      0.0038
    111  CD        32.1540   80.8240   19.0230 C.3   229  LYS229      0.0206
    112  CE        33.1270   79.6740   19.2150 C.3   229  LYS229      0.1093
    113  NZ        33.7100   79.2140   17.9130 N.3   229  LYS229     -0.1314
    114  N         39.4660   73.7860   15.6000 N.3   422  HIS422     -0.1241
    115  CA        38.4520   74.1070   16.6130 C.3   422  HIS422      0.1621
    116  C         38.4380   75.5810   17.0130 C.2   422  HIS422      0.2264
    117  O         37.3880   76.1900   17.2450 O.2   422  HIS422     -0.2867
    118  CB        38.7330   73.3070   17.8880 C.3   422  HIS422      0.0745
    119  CG        38.6630   71.8250   17.7040 C.ar  422  HIS422      0.0817
    120  ND1       37.5720   71.1950   17.1370 N.ar  422  HIS422     -0.2268
    121  CD2       39.5420   70.8470   18.0310 C.ar  422  HIS422      0.1154
    122  CE1       37.7930   69.8920   17.1090 C.ar  422  HIS422      0.1986
    123  NE2       38.9750   69.6530   17.6510 N.ar  422  HIS422     -0.2212
@<TRIPOS>BOND
     1    99    98    1
     2   114   115    1
     3    98    97    1
     4    97    96    1
     5   115   116    1
     6   115   118    1
     7   116   117    2
     8   122   120   ar
     9   122   123   ar
    10    96    95    1
    11   120   119   ar
    12    72    71    2
    13    71    70    1
    14   123   121   ar
    15   119   118    1
    16   119   121   ar
    17   113   112    1
    18    95    92    1
    19    94    93    2
    20    70    73    1
    21    70    69    1
    22   111   112    1
    23   111   110    1
    24    93    92    1
    25    66    65    2
    26    73    74    1
    27    92    91    1
    28    29    30    1
    29    29    26    1
    30    69    65   am
    31    69    75    1
    32    65    64    1
    33   109   110    1
    34   109   106    1
    35    30    32   ar
    36    30    31   ar
    37   108   107    2
    38    25    26    1
    39    32    34   ar
    40    31    33   ar
    41    34    35   ar
    42    74    75    1
    43    33    35   ar
    44    91    86   am
    45    26    27    1
    46   107   106    1
    47    67    64    1
    48    67    68    1
    49    35    36    1
    50   106   105    1
    51    64    63    1
    52    87    86    2
    53    86    85    1
    54    28    27    2
    55    27    37   am
    56   105   102   am
    57    79    78    2
    58    89    88    1
    59    37    38    1
    60    85    84    1
    61    85    88    1
    62    88    90    1
    63   102   103    2
    64   102   101    1
    65    47    48    1
    66    47    39   am
    67    78    77    1
    68    50    49    2
    69    55    52    1
    70    55    56    1
    71    48    49    1
    72    38    39    1
    73    38    41    1
    74    49    51   am
    75    45    46   ar
    76    45    43   ar
    77    52    51    1
    78    52    53    1
    79    83    81   ar
    80    82    81   ar
    81    46    44   ar
    82    43    42   ar
    83    81    80    1
    84    39    40    2
    85   100   101    1
    86   101   104    1
    87    80    77    1
    88    44    42   ar
    89    42    41    1
    90    77    76    1
    91    56    58   ar
    92    56    57   ar
    93    54    53    2
    94    58    60   ar
    95    16    15    1
    96    57    59   ar
    97     8     7    1
    98     8     9    1
    99     7     3   am
   100    60    61   ar
   101    11     9   am
   102    11    12    1
   103     9    10    2
   104    15    12    1
   105    15    17    1
   106    59    61   ar
   107    24    22    1
   108     5     2    1
   109     5     6    1
   110    12    13    1
   111    61    62    1
   112     3     2    1
   113     3     4    2
   114     2     1    1
   115    23    22    1
   116    22    19    1
   117    13    14    2
   118    19    18    1
   119    19    20    1
   120    20    21    2
