@<TRIPOS>MOLECULE
tmp/6cblH00.pdb
 182 174 0 0 0
SMALL
GASTEIGER

@<TRIPOS>ATOM
      1  N         23.0320   -7.9330   45.8380 N.3     8  THR8       -0.1218
      2  CA        24.4180   -7.7850   45.3940 C.3     8  THR8        0.1862
      3  C         24.4840   -7.9060   43.8800 C.2     8  THR8        0.2287
      4  O         24.1290   -8.9350   43.2960 O.2     8  THR8       -0.2866
      5  CB        25.3270   -8.8040   46.0830 C.3     8  THR8        0.1770
      6  OG1       25.1930   -8.6730   47.5040 O.3     8  THR8       -0.2211
      7  CG2       26.7860   -8.5790   45.6920 C.3     8  THR8        0.0375
      8  N         28.6160  -14.0630   41.1450 N.3    43  ARG43      -0.1245
      9  CA        29.2680  -14.3540   42.4240 C.3    43  ARG43       0.1563
     10  C         30.0240  -15.6980   42.4350 C.2    43  ARG43       0.2260
     11  O         30.1920  -16.3260   43.4920 O.2    43  ARG43      -0.2867
     12  CB        28.2240  -14.2410   43.5700 C.3    43  ARG43       0.0307
     13  CG        27.9570  -12.8570   44.1190 C.3    43  ARG43       0.0489
     14  CD        27.6360  -11.7810   43.1050 C.3    43  ARG43       0.2205
     15  NE        26.2650  -11.8130   42.6490 N.pl3  43  ARG43      -0.0865
     16  CZ        25.8320  -11.3500   41.4700 C.cat  43  ARG43       0.5346
     17  NH1       24.5430  -11.4620   41.1850 N.pl3  43  ARG43       0.1354
     18  NH2       26.6470  -10.8200   40.5620 N.pl3  43  ARG43       0.1354
     19  N         18.3140  -22.2130   47.5570 N.3    98  SER98      -0.1202
     20  CA        19.3420  -21.1880   47.6820 C.3    98  SER98       0.2020
     21  C         20.3900  -21.6700   48.6780 C.2    98  SER98       0.2619
     22  O         20.2000  -22.6600   49.4370 O.2    98  SER98      -0.2717
     23  CB        18.7860  -19.8320   48.1340 C.3    98  SER98       0.2103
     24  OG        18.3600  -19.8810   49.5160 O.3    98  SER98      -0.2182
     25  N         21.5420  -21.0140   48.6740 N.am   99  GLY99      -0.1942
     26  CA        22.5790  -21.3630   49.6430 C.3    99  GLY99       0.2014
     27  C         22.1040  -21.0970   51.0580 C.2    99  GLY99       0.2639
     28  O         22.3080  -21.9190   51.9690 O.2    99  GLY99      -0.2714
     29  N         21.4450  -19.9780   51.1980 N.am  100  THR100     -0.1950
     30  CA        20.8500  -19.5360   52.4730 C.3   100  THR100      0.1897
     31  C         19.9310  -20.5780   53.0520 C.2   100  THR100      0.2313
     32  O         20.0910  -20.9720   54.2290 O.2   100  THR100     -0.2863
     33  CB        20.1000  -18.1990   52.2900 C.3   100  THR100      0.1794
     34  OG1       21.0060  -17.1630   51.9110 O.3   100  THR100     -0.2208
     35  CG2       19.4000  -17.7480   53.5830 C.3   100  THR100      0.0378
     36  N         21.9940  -23.9000   54.0830 N.3   103  VAL103     -0.1245
     37  CA        22.8520  -23.8090   55.2540 C.3   103  VAL103      0.1561
     38  C         21.9750  -23.7530   56.4910 C.2   103  VAL103      0.2260
     39  O         22.2800  -24.4200   57.4860 O.2   103  VAL103     -0.2867
     40  CB        23.8390  -22.6250   55.2230 C.3   103  VAL103      0.0252
     41  CG1       24.7710  -22.6880   56.4280 C.3   103  VAL103      0.0019
     42  CG2       24.7480  -22.7410   53.9880 C.3   103  VAL103      0.0019
     43  N         30.3750  -16.0620   56.0590 N.3   124  TYR124     -0.1227
     44  CA        29.0140  -15.7840   55.6130 C.3   124  TYR124      0.1736
     45  C         28.2310  -17.0580   55.2440 C.2   124  TYR124      0.2595
     46  O         28.7720  -17.9730   54.6150 O.2   124  TYR124     -0.2718
     47  CB        29.0730  -14.7820   54.4680 C.3   124  TYR124      0.0548
     48  CG        27.7420  -14.3550   53.9130 C.ar  124  TYR124     -0.0200
     49  CD1       26.9520  -13.4130   54.5890 C.ar  124  TYR124     -0.0009
     50  CD2       27.2410  -14.9070   52.7300 C.ar  124  TYR124     -0.0009
     51  CE1       25.7360  -13.0050   54.0730 C.ar  124  TYR124      0.0417
     52  CE2       26.0350  -14.5170   52.2160 C.ar  124  TYR124      0.0417
     53  CZ        25.2760  -13.5760   52.8850 C.ar  124  TYR124      0.1957
     54  OH        24.0530  -13.2180   52.3530 O.3   124  TYR124     -0.2866
     55  N         26.9740  -17.1150   55.7120 N.am  125  HIS125     -0.1961
     56  CA        26.1230  -18.3100   55.5310 C.3   125  HIS125      0.1787
     57  C         24.8330  -18.0170   54.8210 C.2   125  HIS125      0.2621
     58  O         23.9770  -18.9040   54.6980 O.2   125  HIS125     -0.2715
     59  CB        25.8660  -19.1030   56.8260 C.3   125  HIS125      0.0785
     60  CG        27.1180  -19.5280   57.5310 C.ar  125  HIS125      0.0821
     61  ND1       28.0970  -20.3140   56.9450 N.ar  125  HIS125     -0.2267
     62  CD2       27.5530  -19.2540   58.7860 C.ar  125  HIS125      0.1154
     63  CE1       29.1040  -20.4410   57.7980 C.ar  125  HIS125      0.1986
     64  NE2       28.7980  -19.8150   58.9250 N.ar  125  HIS125     -0.2212
     65  N         24.6730  -16.7850   54.3560 N.am  126  GLY126     -0.1940
     66  CA        23.4710  -16.3790   53.6770 C.3   126  GLY126      0.2014
     67  C         22.7990  -15.2250   54.3780 C.2   126  GLY126      0.2638
     68  O         23.3100  -14.7170   55.4040 O.2   126  GLY126     -0.2714
     69  N         21.6690  -14.8330   53.8000 N.am  127  TYR127     -0.1973
     70  CA        20.9930  -13.6230   54.1860 C.3   127  TYR127      0.1639
     71  C         20.0670  -13.7900   55.3770 C.2   127  TYR127      0.2290
     72  O         19.5850  -12.8210   55.8650 O.2   127  TYR127     -0.2864
     73  CB        20.2010  -13.0550   53.0060 C.3   127  TYR127      0.0560
     74  CG        18.9510  -13.8270   52.6090 C.ar  127  TYR127     -0.0198
     75  CD1       17.7400  -13.6840   53.2950 C.ar  127  TYR127     -0.0009
     76  CD2       18.9630  -14.6800   51.5060 C.ar  127  TYR127     -0.0009
     77  CE1       16.6030  -14.3920   52.9150 C.ar  127  TYR127      0.0417
     78  CE2       17.8250  -15.3720   51.1040 C.ar  127  TYR127      0.0417
     79  CZ        16.6390  -15.2380   51.8070 C.ar  127  TYR127      0.1957
     80  OH        15.5110  -15.9580   51.4180 O.3   127  TYR127     -0.2866
     81  N         32.6110  -21.2880   56.5980 N.3   171  SER171     -0.1203
     82  CA        32.7350  -21.0620   55.1390 C.3   171  SER171      0.2005
     83  C         34.2170  -20.9240   54.7160 C.2   171  SER171      0.2460
     84  O         34.8480  -19.9220   55.0760 O.2   171  SER171     -0.2732
     85  CB        31.9800  -19.7750   54.8190 C.3   171  SER171      0.2103
     86  OG        30.6100  -19.9220   55.2100 O.3   171  SER171     -0.2182
     87  N         34.7930  -21.9210   53.9820 N.am  172  PRO172     -0.2728
     88  CA        36.2050  -21.7700   53.6560 C.3   172  PRO172      0.1401
     89  C         36.5460  -20.4870   52.8790 C.2   172  PRO172      0.2269
     90  O         35.7500  -19.9860   52.0890 O.2   172  PRO172     -0.2865
     91  CB        36.5370  -23.0620   52.9070 C.3   172  PRO172      0.0296
     92  CG        35.4870  -24.0590   53.3350 C.3   172  PRO172      0.0237
     93  CD        34.2490  -23.1690   53.4540 C.3   172  PRO172      0.0939
     94  N         30.4890  -25.2200   55.1150 N.3   199  ASP199     -0.1239
     95  CA        29.6990  -24.4360   54.2090 C.3   199  ASP199      0.1674
     96  C         30.4910  -24.0750   52.9490 C.2   199  ASP199      0.2266
     97  O         31.1530  -23.0400   52.8730 O.2   199  ASP199     -0.2867
     98  CB        29.1900  -23.1700   54.8750 C.3   199  ASP199      0.1410
     99  CG        28.3340  -22.3060   53.9590 C.2   199  ASP199      0.3668
    100  OD1       28.0890  -22.6430   52.7770 O.co2 199  ASP199     -0.2456
    101  OD2       27.8720  -21.2120   54.3970 O.co2 199  ASP199     -0.2456
    102  N         29.2000  -23.4900   49.9670 N.3   201  VAL201     -0.1231
    103  CA        28.3200  -22.8940   48.9640 C.3   201  VAL201      0.1692
    104  C         29.1180  -22.1970   47.8640 C.2   201  VAL201      0.2591
    105  O         28.8010  -22.3070   46.6960 O.2   201  VAL201     -0.2718
    106  CB        27.3320  -21.9010   49.5650 C.3   201  VAL201      0.0266
    107  CG1       26.7850  -20.9210   48.5470 C.3   201  VAL201      0.0020
    108  CG2       26.2050  -22.5960   50.3130 C.3   201  VAL201      0.0020
    109  N         30.1240  -21.4250   48.2480 N.am  202  LYS202     -0.1980
    110  CA        30.9630  -20.7440   47.2900 C.3   202  LYS202      0.1596
    111  C         32.0660  -21.6120   46.7440 C.2   202  LYS202      0.2287
    112  O         32.2550  -21.5890   45.5150 O.2   202  LYS202     -0.2864
    113  CB        31.5360  -19.4690   47.9020 C.3   202  LYS202      0.0298
    114  CG        32.3490  -18.6400   46.8940 C.3   202  LYS202      0.0038
    115  CD        32.7750  -17.2930   47.4650 C.3   202  LYS202      0.0206
    116  CE        33.9980  -17.4260   48.3240 C.3   202  LYS202      0.1093
    117  NZ        34.1920  -16.1370   49.0430 N.3   202  LYS202     -0.1314
    118  N         26.5980  -25.1650   46.3950 N.3   225  ALA225     -0.1231
    119  CA        25.5570  -24.6050   45.5430 C.3   225  ALA225      0.1694
    120  C         26.0920  -23.9270   44.2900 C.2   225  ALA225      0.2591
    121  O         25.6310  -24.2190   43.1820 O.2   225  ALA225     -0.2718
    122  CB        24.7400  -23.5650   46.3100 C.3   225  ALA225      0.0304
    123  N         27.0030  -22.9770   44.4570 N.am  226  LYS226     -0.1980
    124  CA        27.4450  -22.1810   43.3070 C.3   226  LYS226      0.1596
    125  C         28.0570  -23.0110   42.1900 C.2   226  LYS226      0.2287
    126  O         27.9390  -22.6510   41.0000 O.2   226  LYS226     -0.2864
    127  CB        28.3760  -21.0710   43.7610 C.3   226  LYS226      0.0298
    128  CG        27.6170  -20.0250   44.5530 C.3   226  LYS226      0.0038
    129  CD        28.6050  -18.9410   44.9030 C.3   226  LYS226      0.0206
    130  CE        28.0860  -18.1810   46.1190 C.3   226  LYS226      0.1093
    131  NZ        27.9980  -16.7700   45.6680 N.3   226  LYS226     -0.1314
    132  N         34.0420   -8.0180   40.7980 N.3   336  TYR336     -0.1241
    133  CA        33.1330   -8.0430   41.9400 C.3   336  TYR336      0.1605
    134  C         33.8200   -7.1470   42.9700 C.2   336  TYR336      0.2264
    135  O         34.6890   -7.5820   43.7310 O.2   336  TYR336     -0.2867
    136  CB        32.9370   -9.4950   42.4070 C.3   336  TYR336      0.0534
    137  CG        32.0320   -9.7480   43.5940 C.ar  336  TYR336     -0.0201
    138  CD1       31.2870   -8.7430   44.1830 C.ar  336  TYR336     -0.0009
    139  CD2       31.9010  -11.0450   44.1130 C.ar  336  TYR336     -0.0009
    140  CE1       30.4560   -9.0170   45.2660 C.ar  336  TYR336      0.0417
    141  CE2       31.0740  -11.3210   45.1840 C.ar  336  TYR336      0.0417
    142  CZ        30.3590  -10.2950   45.7660 C.ar  336  TYR336      0.1957
    143  OH        29.5360  -10.5740   46.8190 O.3   336  TYR336     -0.2866
    144  N         35.6810   -7.7630   46.5100 N.3   339  ASP339     -0.1225
    145  CA        35.4440   -9.1460   46.9140 C.3   339  ASP339      0.1805
    146  C         36.3140  -10.0430   45.9940 C.2   339  ASP339      0.2597
    147  O         37.3710   -9.6260   45.5250 O.2   339  ASP339     -0.2718
    148  CB        33.9370   -9.4550   46.7970 C.3   339  ASP339      0.1424
    149  CG        33.5030  -10.6210   47.6470 C.2   339  ASP339      0.3668
    150  OD1       33.8090  -11.7600   47.2580 O.co2 339  ASP339     -0.2456
    151  OD2       32.8430  -10.3980   48.6930 O.co2 339  ASP339     -0.2456
    152  N         35.9250  -11.2910   45.7500 N.am  340  ASN340     -0.1974
    153  CA        36.7350  -12.1700   44.9410 C.3   340  ASN340      0.1688
    154  C         36.3940  -12.2830   43.4580 C.2   340  ASN340      0.2292
    155  O         35.2390  -12.2110   43.0600 O.2   340  ASN340     -0.2864
    156  CB        36.9830  -13.5070   45.6520 C.3   340  ASN340      0.1181
    157  CG        35.7130  -14.3090   45.9930 C.2   340  ASN340      0.2629
    158  OD1       35.7320  -15.1300   46.9450 O.2   340  ASN340     -0.2716
    159  ND2       34.6580  -14.1300   45.2350 N.am  340  ASN340     -0.0877
    160  N         36.1410   -7.9830   54.0080 N.3   386  ASN386     -0.1225
    161  CA        35.0690   -7.8350   53.0550 C.3   386  ASN386      0.1785
    162  C         34.7100   -9.1220   52.3120 C.2   386  ASN386      0.2597
    163  O         33.5670   -9.2600   51.9210 O.2   386  ASN386     -0.2718
    164  CB        35.3130   -6.6690   52.0700 C.3   386  ASN386      0.1169
    165  CG        35.2810   -5.3260   52.7730 C.2   386  ASN386      0.2627
    166  OD1       34.4510   -5.1110   53.6570 O.2   386  ASN386     -0.2716
    167  ND2       36.1980   -4.4290   52.4190 N.am  386  ASN386     -0.0877
    168  N         35.6650  -10.0480   52.1360 N.am  387  VAL387     -0.1980
    169  CA        35.3790  -11.2570   51.3990 C.3   387  VAL387      0.1595
    170  C         35.0060  -12.3810   52.3660 C.2   387  VAL387      0.2287
    171  O         34.2650  -13.2900   51.9710 O.2   387  VAL387     -0.2864
    172  CB        36.5180  -11.6630   50.4240 C.3   387  VAL387      0.0276
    173  CG1       37.8240  -12.0310   51.1360 C.3   387  VAL387      0.0022
    174  CG2       36.0750  -12.8850   49.6010 C.3   387  VAL387      0.0022
    175  N         34.0520  -12.0120   55.9800 N.3   389  ASP389     -0.1239
    176  CA        33.3510  -11.6350   57.2310 C.3   389  ASP389      0.1674
    177  C         34.0090  -12.2020   58.5160 C.2   389  ASP389      0.2266
    178  O         33.3540  -12.6160   59.4930 O.2   389  ASP389     -0.2867
    179  CB        31.8770  -11.9940   57.1170 C.3   389  ASP389      0.1410
    180  CG        31.1830  -11.2050   56.0350 C.2   389  ASP389      0.3668
    181  OD1       30.9800   -9.9990   56.2240 O.co2 389  ASP389     -0.2456
    182  OD2       30.8390  -11.7770   54.9910 O.co2 389  ASP389     -0.2456
@<TRIPOS>BOND
     1    18    16    1
     2   132   133    1
     3   126   125    2
     4     8     9    1
     5    17    16    1
     6    16    15    2
     7   133   136    1
     8   133   134    1
     9   125   124    1
    10   136   137    1
    11     9    10    1
    12     9    12    1
    13    10    11    2
    14    15    14    1
    15   134   135    2
    16   155   154    2
    17    14    13    1
    18   121   120    2
    19     4     3    2
    20   124   127    1
    21   124   123    1
    22   154   153    1
    23    12    13    1
    24   137   139   ar
    25   137   138   ar
    26   127   128    1
    27     3     2    1
    28   139   141   ar
    29   138   140   ar
    30   120   123   am
    31   120   119    1
    32   128   129    1
    33   129   130    1
    34   153   156    1
    35   153   152    1
    36   141   142   ar
    37   159   157   am
    38   140   142   ar
    39     2     1    1
    40     2     5    1
    41   112   111    2
    42   147   146    2
    43   119   122    1
    44   119   118    1
    45   156   157    1
    46   131   130    1
    47     7     5    1
    48   152   146   am
    49   142   143    1
    50   157   158    2
    51   146   145    1
    52     5     6    1
    53   144   145    1
    54   105   104    2
    55   111   110    1
    56   148   145    1
    57   148   149    1
    58   114   115    1
    59   114   113    1
    60   150   149   ar
    61   110   113    1
    62   110   109    1
    63   115   116    1
    64    19    20    1
    65   149   151   ar
    66    20    23    1
    67    20    21    1
    68   104   109   am
    69   104   103    1
    70    23    24    1
    71   116   117    1
    72   107   106    1
    73    25    21   am
    74    25    26    1
    75    21    22    2
    76   103   106    1
    77   103   102    1
    78   106   108    1
    79   174   172    1
    80    26    27    1
    81   172   173    1
    82   172   169    1
    83    27    29   am
    84    27    28    2
    85    78    76   ar
    86    78    79   ar
    87    29    30    1
    88   169   168    1
    89   169   170    1
    90    80    79    1
    91    76    74   ar
    92    79    77   ar
    93    34    33    1
    94   163   162    2
    95   171   170    2
    96   164   165    1
    97   164   161    1
    98    90    89    2
    99   168   162   am
   100    52    50   ar
   101    52    53   ar
   102    33    30    1
   103    33    35    1
   104   162   161    1
   105    54    53    1
   106   167   165   am
   107    30    31    1
   108    74    73    1
   109    74    75   ar
   110    50    48   ar
   111   165   166    2
   112   100    99   ar
   113    97    96    2
   114    89    88    1
   115    53    51   ar
   116    91    92    1
   117    91    88    1
   118    77    75   ar
   119    96    95    1
   120    73    70    1
   121    31    32    2
   122   161   160    1
   123    92    93    1
   124    93    87    1
   125    88    87    1
   126    66    65    1
   127    66    67    1
   128    69    70    1
   129    69    67   am
   130    48    47    1
   131    48    49   ar
   132    99   101   ar
   133    99    98    1
   134    87    83   am
   135    42    40    1
   136    51    49   ar
   137    36    37    1
   138    70    71    1
   139    95    98    1
   140    95    94    1
   141    65    57   am
   142    67    68    2
   143    47    44    1
   144    46    45    2
   145    58    57    2
   146    83    84    2
   147    83    82    1
   148    85    82    1
   149    85    86    1
   150    57    56    1
   151   182   180   ar
   152    82    81    1
   153    40    37    1
   154    40    41    1
   155    45    44    1
   156    45    55   am
   157    37    38    1
   158    71    72    2
   159    56    55    1
   160    56    59    1
   161    44    43    1
   162   175   176    1
   163   180   181   ar
   164   180   179    1
   165    38    39    2
   166    59    60    1
   167    61    60   ar
   168    61    63   ar
   169   179   176    1
   170   176   177    1
   171    60    62   ar
   172    63    64   ar
   173   177   178    2
   174    62    64   ar
