@<TRIPOS>MOLECULE
tmp/6cbmA00.pdb
 207 201 0 0 0
SMALL
GASTEIGER

@<TRIPOS>ATOM
      1  N         41.9120   11.7730   19.3370 N.3     6  PHE6       -0.1241
      2  CA        42.4520   11.4010   20.6330 C.3     6  PHE6        0.1605
      3  C         41.4510   11.7450   21.7300 C.2     6  PHE6        0.2264
      4  O         41.5330   12.8140   22.3350 O.2     6  PHE6       -0.2867
      5  CB        43.7770   12.0980   20.9190 C.3     6  PHE6        0.0534
      6  CG        44.5760   11.4350   22.0200 C.ar    6  PHE6       -0.0203
      7  CD1       45.3100   10.2850   21.7720 C.ar    6  PHE6       -0.0042
      8  CD2       44.5730   11.9640   23.2830 C.ar    6  PHE6       -0.0042
      9  CE1       46.0420    9.6840   22.7820 C.ar    6  PHE6       -0.0003
     10  CE2       45.3070   11.3760   24.2940 C.ar    6  PHE6       -0.0003
     11  CZ        46.0370   10.2320   24.0440 C.ar    6  PHE6       -0.0000
     12  N         39.6400   12.1930   25.1760 N.3     8  THR8       -0.1218
     13  CA        39.8690   12.1890   26.6110 C.3     8  THR8        0.1862
     14  C         39.1330   11.0570   27.2760 C.2     8  THR8        0.2287
     15  O         37.9020   10.9850   27.2270 O.2     8  THR8       -0.2866
     16  CB        39.4300   13.5330   27.2140 C.3     8  THR8        0.1770
     17  OG1       40.1220   14.5640   26.5250 O.3     8  THR8       -0.2211
     18  CG2       39.7500   13.6170   28.6820 C.3     8  THR8        0.0375
     19  N         33.3380   12.9430   32.7540 N.3    43  ARG43      -0.1245
     20  CA        33.7900   14.3010   33.0040 C.3    43  ARG43       0.1563
     21  C         32.7300   15.1590   33.6610 C.2    43  ARG43       0.2260
     22  O         32.6300   16.3730   33.4290 O.2    43  ARG43      -0.2867
     23  CB        34.2790   14.8800   31.6710 C.3    43  ARG43       0.0307
     24  CG        35.2940   13.9350   31.0350 C.3    43  ARG43       0.0489
     25  CD        36.2570   14.6670   30.1440 C.3    43  ARG43       0.2205
     26  NE        35.8280   14.6380   28.7440 N.pl3  43  ARG43      -0.0865
     27  CZ        36.4610   15.2860   27.7840 C.cat  43  ARG43       0.5346
     28  NH1       36.0530   15.1910   26.5230 N.pl3  43  ARG43       0.1354
     29  NH2       37.5450   15.9990   28.1010 N.pl3  43  ARG43       0.1354
     30  N         26.5380   18.8910   21.0810 N.3    98  SER98      -0.1202
     31  CA        27.6920   18.8270   21.9610 C.3    98  SER98       0.2020
     32  C         27.9010   20.2000   22.5740 C.2    98  SER98       0.2619
     33  O         27.3540   21.2010   22.1050 O.2    98  SER98      -0.2717
     34  CB        28.9740   18.4900   21.1910 C.3    98  SER98       0.2103
     35  OG        29.3190   19.5600   20.3140 O.3    98  SER98      -0.2182
     36  N         28.7030   20.2460   23.6190 N.am   99  GLY99      -0.1942
     37  CA        29.0790   21.4890   24.1900 C.3    99  GLY99       0.2014
     38  C         29.8300   22.3560   23.2040 C.2    99  GLY99       0.2639
     39  O         29.6100   23.5750   23.1210 O.2    99  GLY99      -0.2714
     40  N         30.7040   21.7150   22.4440 N.am  100  THR100     -0.1950
     41  CA        31.4980   22.4080   21.4240 C.3   100  THR100      0.1897
     42  C         30.5940   23.1180   20.4080 C.2   100  THR100      0.2313
     43  O         30.7880   24.2880   20.0710 O.2   100  THR100     -0.2863
     44  CB        32.4270   21.4180   20.7140 C.3   100  THR100      0.1794
     45  OG1       33.4400   20.9700   21.6000 O.3   100  THR100     -0.2208
     46  CG2       33.0270   22.0270   19.5120 C.3   100  THR100      0.0378
     47  N         28.5550   26.2110   22.1670 N.3   103  VAL103     -0.1245
     48  CA        29.3220   27.4300   22.4650 C.3   103  VAL103      0.1561
     49  C         29.7550   28.1620   21.1780 C.2   103  VAL103      0.2260
     50  O         29.6430   29.3810   21.1000 O.2   103  VAL103     -0.2867
     51  CB        30.5830   27.1820   23.3160 C.3   103  VAL103      0.0252
     52  CG1       31.2530   28.5190   23.6700 C.3   103  VAL103      0.0019
     53  CG2       30.2640   26.4660   24.6450 C.3   103  VAL103      0.0019
     54  N         38.0400   26.7420   28.7240 N.3   124  TYR124     -0.1227
     55  CA        37.8780   25.8440   27.5910 C.3   124  TYR124      0.1736
     56  C         36.4570   25.9070   27.0780 C.2   124  TYR124      0.2595
     57  O         35.4970   25.9880   27.8630 O.2   124  TYR124     -0.2718
     58  CB        38.2370   24.4260   28.0500 C.3   124  TYR124      0.0548
     59  CG        38.1510   23.3810   26.9830 C.ar  124  TYR124     -0.0200
     60  CD1       39.1520   23.2790   25.9980 C.ar  124  TYR124     -0.0009
     61  CD2       37.1120   22.4740   26.9800 C.ar  124  TYR124     -0.0009
     62  CE1       39.0900   22.2590   25.0330 C.ar  124  TYR124      0.0417
     63  CE2       37.0510   21.4540   26.0260 C.ar  124  TYR124      0.0417
     64  CZ        38.0220   21.3780   25.0620 C.ar  124  TYR124      0.1957
     65  OH        37.8580   20.3950   24.0980 O.3   124  TYR124     -0.2866
     66  N         36.3070   25.8440   25.7480 N.am  125  HIS125     -0.1961
     67  CA        35.0230   26.0000   25.1170 C.3   125  HIS125      0.1787
     68  C         34.7400   24.8590   24.1460 C.2   125  HIS125      0.2621
     69  O         33.7340   24.9040   23.4320 O.2   125  HIS125     -0.2715
     70  CB        34.8600   27.3480   24.4200 C.3   125  HIS125      0.0785
     71  CG        35.0810   28.5050   25.3340 C.ar  125  HIS125      0.0821
     72  ND1       34.4400   28.6160   26.5540 N.ar  125  HIS125     -0.2267
     73  CD2       35.9110   29.5720   25.2430 C.ar  125  HIS125      0.1154
     74  CE1       34.8540   29.7190   27.1600 C.ar  125  HIS125      0.1986
     75  NE2       35.7670   30.2980   26.3970 N.ar  125  HIS125     -0.2212
     76  N         35.5800   23.8240   24.1760 N.am  126  GLY126     -0.1940
     77  CA        35.4010   22.6770   23.2890 C.3   126  GLY126      0.2014
     78  C         36.5110   22.5410   22.2390 C.2   126  GLY126      0.2638
     79  O         37.5180   23.2760   22.2560 O.2   126  GLY126     -0.2714
     80  N         36.3330   21.6090   21.3140 N.am  127  TYR127     -0.1973
     81  CA        37.4750   21.1290   20.5220 C.3   127  TYR127      0.1639
     82  C         37.6780   21.9190   19.2420 C.2   127  TYR127      0.2290
     83  O         38.6800   21.7490   18.5570 O.2   127  TYR127     -0.2864
     84  CB        37.3350   19.6520   20.1990 C.3   127  TYR127      0.0560
     85  CG        36.2350   19.3030   19.2650 C.ar  127  TYR127     -0.0198
     86  CD1       36.3970   19.4540   17.8690 C.ar  127  TYR127     -0.0009
     87  CD2       35.0100   18.8260   19.7410 C.ar  127  TYR127     -0.0009
     88  CE1       35.3760   19.1440   16.9790 C.ar  127  TYR127      0.0417
     89  CE2       34.0050   18.4970   18.8660 C.ar  127  TYR127      0.0417
     90  CZ        34.1760   18.6310   17.5030 C.ar  127  TYR127      0.1957
     91  OH        33.1500   18.3050   16.6590 O.3   127  TYR127     -0.2866
     92  N         34.1990   30.2870   30.9300 N.3   171  SER171     -0.1203
     93  CA        33.9010   29.0030   31.5550 C.3   171  SER171      0.2005
     94  C         34.2180   29.0270   33.0600 C.2   171  SER171      0.2460
     95  O         35.3740   29.0310   33.4440 O.2   171  SER171     -0.2732
     96  CB        34.7590   27.9370   30.8980 C.3   171  SER171      0.2103
     97  OG        34.5060   27.9010   29.5100 O.3   171  SER171     -0.2182
     98  N         33.1920   29.0960   33.9160 N.am  172  PRO172     -0.2728
     99  CA        33.4430   29.2570   35.3600 C.3   172  PRO172      0.1401
    100  C         34.2110   28.1130   35.9510 C.2   172  PRO172      0.2269
    101  O         34.0780   26.9850   35.4820 O.2   172  PRO172     -0.2865
    102  CB        32.0180   29.2830   35.9590 C.3   172  PRO172      0.0296
    103  CG        31.1670   29.6940   34.8510 C.3   172  PRO172      0.0237
    104  CD        31.7560   29.1310   33.6230 C.3   172  PRO172      0.0939
    105  N         29.7540   30.2610   29.6200 N.3   199  ASP199     -0.1239
    106  CA        29.8940   28.8980   29.1570 C.3   199  ASP199      0.1674
    107  C         29.7890   27.9680   30.3470 C.2   199  ASP199      0.2266
    108  O         30.7790   27.6700   30.9840 O.2   199  ASP199     -0.2867
    109  CB        31.2380   28.6710   28.4370 C.3   199  ASP199      0.1410
    110  CG        31.3960   27.2650   27.9430 C.2   199  ASP199      0.3668
    111  OD1       30.4970   26.4310   28.2120 O.co2 199  ASP199     -0.2456
    112  OD2       32.3840   26.9840   27.2190 O.co2 199  ASP199     -0.2456
    113  N         28.7400   24.8580   30.2240 N.3   201  VAL201     -0.1231
    114  CA        28.6650   23.4780   29.7720 C.3   201  VAL201      0.1692
    115  C         29.0100   22.5090   30.9110 C.2   201  VAL201      0.2591
    116  O         28.3230   21.4960   31.1170 O.2   201  VAL201     -0.2718
    117  CB        29.6190   23.2260   28.5790 C.3   201  VAL201      0.0266
    118  CG1       29.9500   21.7410   28.4260 C.3   201  VAL201      0.0020
    119  CG2       28.9860   23.7190   27.2920 C.3   201  VAL201      0.0020
    120  N         30.0830   22.7840   31.6430 N.am  202  LYS202     -0.1980
    121  CA        30.4450   21.9290   32.7710 C.3   202  LYS202      0.1596
    122  C         29.6400   22.1940   34.0410 C.2   202  LYS202      0.2287
    123  O         29.1570   21.2320   34.6580 O.2   202  LYS202     -0.2864
    124  CB        31.9380   21.9970   33.0840 C.3   202  LYS202      0.0298
    125  CG        32.2930   21.0580   34.2300 C.3   202  LYS202      0.0038
    126  CD        33.8120   20.9430   34.3780 C.3   202  LYS202      0.0206
    127  CE        34.4580   22.1380   35.0020 C.3   202  LYS202      0.1093
    128  NZ        35.9500   21.9650   34.8720 N.3   202  LYS202     -0.1314
    129  N         25.2490   21.8760   29.3410 N.3   225  ALA225     -0.1231
    130  CA        25.2440   20.5910   28.6470 C.3   225  ALA225      0.1694
    131  C         25.4140   19.3980   29.5900 C.2   225  ALA225      0.2591
    132  O         24.5550   18.4920   29.6370 O.2   225  ALA225     -0.2718
    133  CB        26.3280   20.5750   27.5660 C.3   225  ALA225      0.0304
    134  N         26.4670   19.3880   30.3780 N.am  226  LYS226     -0.1980
    135  CA        26.8310   18.1740   31.0980 C.3   226  LYS226      0.1596
    136  C         25.7540   17.8490   32.1290 C.2   226  LYS226      0.2287
    137  O         25.5070   16.6700   32.4460 O.2   226  LYS226     -0.2864
    138  CB        28.2060   18.3160   31.7500 C.3   226  LYS226      0.0298
    139  CG        29.3470   18.3870   30.7450 C.3   226  LYS226      0.0038
    140  CD        30.6500   17.9040   31.3650 C.3   226  LYS226      0.0206
    141  CE        31.8440   18.7080   30.8670 C.3   226  LYS226      0.1093
    142  NZ        33.0790   17.8970   30.8150 N.3   226  LYS226     -0.1314
    143  N         39.4750   11.3920   37.3860 N.3   336  TYR336     -0.1241
    144  CA        39.8130   12.0810   36.1240 C.3   336  TYR336      0.1605
    145  C         41.1850   12.7100   36.3380 C.2   336  TYR336      0.2264
    146  O         41.3350   13.6830   37.0720 O.2   336  TYR336     -0.2867
    147  CB        38.7090   13.0990   35.8370 C.3   336  TYR336      0.0534
    148  CG        38.8150   13.9240   34.5620 C.ar  336  TYR336     -0.0201
    149  CD1       39.7750   13.6650   33.5920 C.ar  336  TYR336     -0.0009
    150  CD2       37.8860   14.9260   34.3050 C.ar  336  TYR336     -0.0009
    151  CE1       39.8610   14.4600   32.4550 C.ar  336  TYR336      0.0417
    152  CE2       37.9430   15.6880   33.1620 C.ar  336  TYR336      0.0417
    153  CZ        38.9320   15.4650   32.2460 C.ar  336  TYR336      0.1957
    154  OH        39.0000   16.2590   31.1180 O.3   336  TYR336     -0.2866
    155  N         42.5740   16.4790   36.8430 N.3   339  ASP339     -0.1225
    156  CA        41.4610   17.3710   36.5400 C.3   339  ASP339      0.1805
    157  C         40.5230   17.3810   37.7450 C.2   339  ASP339      0.2597
    158  O         40.9850   17.1190   38.8850 O.2   339  ASP339     -0.2718
    159  CB        40.7860   16.9340   35.2250 C.3   339  ASP339      0.1424
    160  CG        40.0970   18.0970   34.4900 C.2   339  ASP339      0.3668
    161  OD1       38.9960   18.4610   34.9370 O.co2 339  ASP339     -0.2456
    162  OD2       40.6170   18.6060   33.4540 O.co2 339  ASP339     -0.2456
    163  N         39.2370   17.6790   37.5310 N.am  340  ASN340     -0.1974
    164  CA        38.3010   17.6830   38.6320 C.3   340  ASN340      0.1688
    165  C         37.5510   16.3930   38.8240 C.2   340  ASN340      0.2292
    166  O         37.2140   15.6910   37.8620 O.2   340  ASN340     -0.2864
    167  CB        37.3700   18.9230   38.7090 C.3   340  ASN340      0.1181
    168  CG        36.5800   19.2270   37.4360 C.2   340  ASN340      0.2629
    169  OD1       36.1740   20.3980   37.2090 O.2   340  ASN340     -0.2716
    170  ND2       36.2930   18.2200   36.6430 N.am  340  ASN340     -0.0877
    171  N         45.8350   25.0830   36.0920 N.3   385  TRP385     -0.1227
    172  CA        45.8040   25.2890   34.6310 C.3   385  TRP385      0.1737
    173  C         45.2390   24.0410   33.9430 C.2   385  TRP385      0.2595
    174  O         44.5010   24.1220   32.9580 O.2   385  TRP385     -0.2718
    175  CB        47.1900   25.5440   34.0850 C.3   385  TRP385      0.0564
    176  CG        47.1900   25.9770   32.6730 C.ar  385  TRP385      0.0003
    177  CD1       47.0700   25.1760   31.6000 C.ar  385  TRP385      0.0946
    178  CD2       47.3560   27.3090   32.1720 C.ar  385  TRP385      0.0152
    179  NE1       47.1280   25.9120   30.4600 N.ar  385  TRP385     -0.2442
    180  CE2       47.3030   27.2310   30.7830 C.ar  385  TRP385      0.0810
    181  CE3       47.5250   28.5580   32.7740 C.ar  385  TRP385      0.0012
    182  CZ2       47.4260   28.3520   29.9630 C.ar  385  TRP385      0.0191
    183  CZ3       47.6490   29.6700   31.9640 C.ar  385  TRP385      0.0001
    184  CH2       47.5800   29.5520   30.5750 C.ar  385  TRP385      0.0015
    185  N         45.6160   22.8730   34.4490 N.am  386  ASN386     -0.1960
    186  CA        45.0760   21.6430   33.8760 C.3   386  ASN386      0.1819
    187  C         43.5360   21.5430   33.8740 C.2   386  ASN386      0.2621
    188  O         42.9330   20.9460   32.9520 O.2   386  ASN386     -0.2715
    189  CB        45.7070   20.4380   34.5520 C.3   386  ASN386      0.1195
    190  CG        47.1390   20.2370   34.1360 C.2   386  ASN386      0.2630
    191  OD1       47.5530   20.6610   33.0490 O.2   386  ASN386     -0.2716
    192  ND2       47.9160   19.6110   34.9980 N.am  386  ASN386     -0.0877
    193  N         42.8760   22.1190   34.8770 N.am  387  VAL387     -0.1977
    194  CA        41.4200   22.0640   34.9240 C.3   387  VAL387      0.1596
    195  C         40.7470   23.2690   34.2620 C.2   387  VAL387      0.2287
    196  O         39.6440   23.1310   33.7050 O.2   387  VAL387     -0.2864
    197  CB        40.8470   21.8300   36.3430 C.3   387  VAL387      0.0276
    198  CG1       41.0990   23.0110   37.2940 C.3   387  VAL387      0.0022
    199  CG2       39.3610   21.5740   36.2980 C.3   387  VAL387      0.0022
    200  N         42.4940   25.8060   32.0910 N.3   389  ASP389     -0.1239
    201  CA        43.1220   26.3550   30.8880 C.3   389  ASP389      0.1674
    202  C         43.3660   27.8270   31.0450 C.2   389  ASP389      0.2266
    203  O         43.2650   28.6120   30.1160 O.2   389  ASP389     -0.2867
    204  CB        42.3120   26.0450   29.6090 C.3   389  ASP389      0.1410
    205  CG        42.4050   24.5680   29.2190 C.2   389  ASP389      0.3668
    206  OD1       43.5070   24.1480   28.7980 O.co2 389  ASP389     -0.2456
    207  OD2       41.4130   23.8540   29.3830 O.co2 389  ASP389     -0.2456
@<TRIPOS>BOND
     1    91    90    1
     2    88    90   ar
     3    88    86   ar
     4    90    89   ar
     5    86    85   ar
     6    83    82    2
     7    89    87   ar
     8    82    81    1
     9    85    87   ar
    10    85    84    1
    11     1     2    1
    12    46    44    1
    13    43    42    2
    14    84    81    1
    15    35    34    1
    16    42    41    1
    17    81    80    1
    18     2     5    1
    19     2     3    1
    20    44    41    1
    21    44    45    1
    22     5     6    1
    23    30    31    1
    24    50    49    2
    25    49    48    1
    26    34    31    1
    27    80    78   am
    28    41    40    1
    29     3     4    2
    30     7     6   ar
    31     7     9   ar
    32    31    32    1
    33     6     8   ar
    34    33    32    2
    35    47    48    1
    36    78    79    2
    37    78    77    1
    38    40    38   am
    39    48    51    1
    40    32    36   am
    41     9    11   ar
    42    39    38    2
    43    38    37    1
    44     8    10   ar
    45    77    76    1
    46    51    52    1
    47    51    53    1
    48    69    68    2
    49    36    37    1
    50    11    10   ar
    51    65    64    1
    52    68    76   am
    53    68    67    1
    54    70    67    1
    55    70    71    1
    56    62    64   ar
    57    62    60   ar
    58    64    63   ar
    59    67    66    1
    60    12    13    1
    61    73    71   ar
    62    73    75   ar
    63    71    72   ar
    64    66    56   am
    65    60    59   ar
    66    63    61   ar
    67    75    74   ar
    68    28    27    1
    69    17    16    1
    70    72    74   ar
    71    13    16    1
    72    13    14    1
    73    61    59   ar
    74    59    58    1
    75    56    55    1
    76    56    57    2
    77    16    18    1
    78   112   110   ar
    79    15    14    2
    80   119   117    1
    81   133   130    1
    82    55    58    1
    83    55    54    1
    84    27    29    1
    85    27    26    2
    86   110   111   ar
    87   110   109    1
    88   118   117    1
    89   109   106    1
    90   117   114    1
    91   130   129    1
    92   130   131    1
    93    26    25    1
    94   206   205   ar
    95   106   105    1
    96   106   107    1
    97   205   207   ar
    98   205   204    1
    99    97    96    1
   100   131   132    2
   101   131   134   am
   102   204   201    1
   103   114   113    1
   104   114   115    1
   105   182   184   ar
   106   182   180   ar
   107   203   202    2
   108    25    24    1
   109   107   108    2
   110   134   135    1
   111   179   180   ar
   112   179   177   ar
   113   184   183   ar
   114   139   140    1
   115   139   138    1
   116   180   178   ar
   117   142   141    1
   118   141   140    1
   119   201   202    1
   120   201   200    1
   121    96    93    1
   122   115   116    2
   123   115   120   am
   124    92    93    1
   125    24    23    1
   126   135   138    1
   127   135   136    1
   128   154   153    1
   129    93    94    1
   130   177   176   ar
   131   120   121    1
   132    23    20    1
   133   183   181   ar
   134   136   137    2
   135   178   176   ar
   136   178   181   ar
   137   153   151   ar
   138   153   152   ar
   139   151   149   ar
   140   176   175    1
   141    19    20    1
   142   121   124    1
   143   121   122    1
   144   188   187    2
   145   174   173    2
   146    20    21    1
   147   191   190    2
   148    94    95    2
   149    94    98   am
   150   124   125    1
   151   152   150   ar
   152    22    21    2
   153   162   160   ar
   154   149   148   ar
   155   104    98    1
   156   104   103    1
   157   196   195    2
   158   187   186    1
   159   187   193   am
   160   186   185    1
   161   186   189    1
   162    98    99    1
   163   173   185   am
   164   173   172    1
   165   122   123    2
   166   175   172    1
   167   190   189    1
   168   190   192   am
   169   125   126    1
   170   195   194    1
   171   150   148   ar
   172   126   127    1
   173   160   161   ar
   174   160   159    1
   175   148   147    1
   176   172   171    1
   177   103   102    1
   178   128   127    1
   179   193   194    1
   180   194   197    1
   181   159   156    1
   182    99   100    1
   183    99   102    1
   184   101   100    2
   185   147   144    1
   186   144   145    1
   187   144   143    1
   188   199   197    1
   189   145   146    2
   190   197   198    1
   191   156   155    1
   192   156   157    1
   193   170   168   am
   194   169   168    2
   195   168   167    1
   196   163   157   am
   197   163   164    1
   198   157   158    2
   199   166   165    2
   200   164   167    1
   201   164   165    1
