@<TRIPOS>MOLECULE
tmp/6cboC01.pdb
 170 161 0 0 0
SMALL
GASTEIGER

@<TRIPOS>ATOM
      1  N         28.1700   11.5850  134.3330 N.3    11  THR11      -0.1218
      2  CA        26.9000   10.9720  134.6720 C.3    11  THR11       0.1862
      3  C         26.2780   10.5000  133.3620 C.2    11  THR11       0.2287
      4  O         26.1450   11.2660  132.4200 O.2    11  THR11      -0.2866
      5  CB        26.0160   11.9790  135.3920 C.3    11  THR11       0.1770
      6  OG1       26.7110   12.4310  136.5630 O.3    11  THR11      -0.2211
      7  CG2       24.6930   11.3710  135.7730 C.3    11  THR11       0.0375
      8  N         19.9660   14.1900  130.9620 N.3    46  ARG46      -0.1245
      9  CA        19.7570   14.7980  132.2840 C.3    46  ARG46       0.1563
     10  C         18.6780   15.9040  132.2240 C.2    46  ARG46       0.2260
     11  O         18.7490   16.9240  132.9110 O.2    46  ARG46      -0.2867
     12  CB        21.0960   15.2930  132.8630 C.3    46  ARG46       0.0307
     13  CG        21.8960   14.2800  133.6760 C.3    46  ARG46       0.0489
     14  CD        22.1090   12.9510  132.9770 C.3    46  ARG46       0.2205
     15  NE        23.0960   13.0890  131.9520 N.pl3  46  ARG46      -0.0865
     16  CZ        23.2350   12.2910  130.8920 C.cat  46  ARG46       0.5346
     17  NH1       24.1790   12.5750  130.0210 N.pl3  46  ARG46       0.1354
     18  NH2       22.4300   11.2600  130.6660 N.pl3  46  ARG46       0.1354
     19  N         27.5350   26.2600  130.5330 N.3   101  THR101     -0.1203
     20  CA        27.0650   25.1810  131.4050 C.3   101  THR101      0.1994
     21  C         26.3630   25.8510  132.6030 C.2   101  THR101      0.2618
     22  O         26.6400   27.0340  132.9340 O.2   101  THR101     -0.2717
     23  CB        28.1830   24.3150  132.0040 C.3   101  THR101      0.1784
     24  OG1       29.0700   25.1130  132.8000 O.3   101  THR101     -0.2211
     25  CG2       28.9940   23.6510  130.8800 C.3   101  THR101      0.0376
     26  N         25.4720   25.0930  133.2170 N.am  102  GLY102     -0.1942
     27  CA        24.8970   25.5050  134.4680 C.3   102  GLY102      0.2014
     28  C         25.9520   25.7070  135.5220 C.2   102  GLY102      0.2639
     29  O         25.8850   26.6380  136.3110 O.2   102  GLY102     -0.2714
     30  N         26.9670   24.8580  135.5400 N.am  103  THR103     -0.1950
     31  CA        28.0570   24.9970  136.5160 C.3   103  THR103      0.1897
     32  C         28.7050   26.3680  136.4400 C.2   103  THR103      0.2313
     33  O         28.9180   27.0710  137.4640 O.2   103  THR103     -0.2863
     34  CB        29.0920   23.9060  136.3380 C.3   103  THR103      0.1794
     35  OG1       28.5060   22.6390  136.6790 O.3   103  THR103     -0.2208
     36  CG2       30.3110   24.1530  137.2180 C.3   103  THR103      0.0378
     37  N         26.3300   29.2300  137.5920 N.3   106  LEU106     -0.1245
     38  CA        26.0630   29.3110  139.0540 C.3   106  LEU106      0.1561
     39  C         27.2890   29.8720  139.7340 C.2   106  LEU106      0.2260
     40  O         27.1330   30.6740  140.6680 O.2   106  LEU106     -0.2867
     41  CB        25.7590   27.9340  139.6380 C.3   106  LEU106      0.0270
     42  CG        24.2510   27.6970  139.8180 C.3   106  LEU106      0.0019
     43  CD1       23.7030   28.5050  140.9720 C.3   106  LEU106      0.0001
     44  CD2       23.4410   27.9390  138.5610 C.3   106  LEU106      0.0001
     45  N         21.6330   21.0000  144.0860 N.3   127  TYR127     -0.1227
     46  CA        22.8430   20.8800  143.2840 C.3   127  TYR127      0.1736
     47  C         23.0240   22.1250  142.4190 C.2   127  TYR127      0.2595
     48  O         22.0470   22.5910  141.8310 O.2   127  TYR127     -0.2718
     49  CB        22.7420   19.6380  142.4170 C.3   127  TYR127      0.0548
     50  CG        23.9990   19.3510  141.6370 C.ar  127  TYR127     -0.0200
     51  CD1       25.1470   18.9990  142.2860 C.ar  127  TYR127     -0.0009
     52  CD2       24.0020   19.4190  140.2490 C.ar  127  TYR127     -0.0009
     53  CE1       26.3110   18.7460  141.5850 C.ar  127  TYR127      0.0417
     54  CE2       25.1670   19.1360  139.5390 C.ar  127  TYR127      0.0417
     55  CZ        26.2900   18.8050  140.2230 C.ar  127  TYR127      0.1957
     56  OH        27.4590   18.5260  139.5180 O.3   127  TYR127     -0.2866
     57  N         24.2630   22.6070  142.2920 N.am  128  HIS128     -0.1961
     58  CA        24.5900   23.8340  141.5390 C.3   128  HIS128      0.1787
     59  C         25.6780   23.5630  140.5240 C.2   128  HIS128      0.2621
     60  O         26.1210   24.4790  139.8950 O.2   128  HIS128     -0.2715
     61  CB        24.9540   24.9960  142.4580 C.3   128  HIS128      0.0785
     62  CG        23.8860   25.3000  143.4590 C.ar  128  HIS128      0.0821
     63  ND1       22.5610   25.4490  143.1200 N.ar  128  HIS128     -0.2267
     64  CD2       23.9480   25.4180  144.7970 C.ar  128  HIS128      0.1154
     65  CE1       21.8480   25.6030  144.2190 C.ar  128  HIS128      0.1986
     66  NE2       22.6740   25.6560  145.2500 N.ar  128  HIS128     -0.2212
     67  N         26.0830   22.3080  140.3430 N.am  129  GLY129     -0.1940
     68  CA        27.1640   22.0070  139.3800 C.3   129  GLY129      0.2014
     69  C         28.4100   21.4520  140.0400 C.2   129  GLY129      0.2638
     70  O         28.4420   21.2680  141.2660 O.2   129  GLY129     -0.2714
     71  N         29.3990   21.1370  139.1920 N.am  130  TYR130     -0.1973
     72  CA        30.5360   20.3310  139.6120 C.3   130  TYR130      0.1639
     73  C         31.6600   21.0950  140.3180 C.2   130  TYR130      0.2290
     74  O         32.5980   20.5020  140.8210 O.2   130  TYR130     -0.2864
     75  CB        31.0710   19.4910  138.4530 C.3   130  TYR130      0.0560
     76  CG        31.7660   20.2650  137.3880 C.ar  130  TYR130     -0.0198
     77  CD1       33.0810   20.6730  137.5590 C.ar  130  TYR130     -0.0009
     78  CD2       31.1500   20.5760  136.1840 C.ar  130  TYR130     -0.0009
     79  CE1       33.7210   21.4030  136.5930 C.ar  130  TYR130      0.0417
     80  CE2       31.8110   21.2870  135.1950 C.ar  130  TYR130      0.0417
     81  CZ        33.1020   21.6860  135.4210 C.ar  130  TYR130      0.1957
     82  OH        33.7490   22.3770  134.4190 O.3   130  TYR130     -0.2866
     83  N         18.0360   25.4470  144.4730 N.3   173  SER173     -0.1217
     84  CA        17.5360   24.7610  143.2690 C.3   173  SER173      0.1889
     85  C         16.1300   24.2370  143.5830 C.2   173  SER173      0.2288
     86  O         15.9690   23.2870  144.3540 O.2   173  SER173     -0.2866
     87  CB        18.4300   23.6190  142.9040 C.3   173  SER173      0.2089
     88  OG        19.7590   24.0170  142.8120 O.3   173  SER173     -0.2183
     89  N         18.2210   28.8800  141.2730 N.3   201  ASP201     -0.1239
     90  CA        18.9240   27.9990  140.3360 C.3   201  ASP201      0.1674
     91  C         17.8600   27.1710  139.6810 C.2   201  ASP201      0.2266
     92  O         17.4930   26.0700  140.1550 O.2   201  ASP201     -0.2867
     93  CB        19.9390   27.1460  141.0510 C.3   201  ASP201      0.1410
     94  CG        20.6670   26.1970  140.1110 C.2   201  ASP201      0.3668
     95  OD1       20.2540   26.1860  138.9260 O.co2 201  ASP201     -0.2456
     96  OD2       21.6600   25.5770  140.5650 O.co2 201  ASP201     -0.2456
     97  N         18.1420   25.9120  136.6590 N.3   203  VAL203     -0.1231
     98  CA        18.7880   25.1430  135.6060 C.3   203  VAL203      0.1692
     99  C         17.9310   23.9640  135.1800 C.2   203  VAL203      0.2591
    100  O         17.7800   23.7490  133.9890 O.2   203  VAL203     -0.2718
    101  CB        20.2140   24.7040  136.0170 C.3   203  VAL203      0.0266
    102  CG1       20.6860   23.5600  135.1410 C.3   203  VAL203      0.0020
    103  CG2       21.2070   25.8840  135.9060 C.3   203  VAL203      0.0020
    104  N         17.3500   23.2480  136.1200 N.am  204  LYS204     -0.1980
    105  CA        16.4820   22.0730  135.8540 C.3   204  LYS204      0.1596
    106  C         15.0230   22.3970  135.6640 C.2   204  LYS204      0.2287
    107  O         14.3810   21.8740  134.7520 O.2   204  LYS204     -0.2864
    108  CB        16.6150   21.0200  136.9370 C.3   204  LYS204      0.0298
    109  CG        15.9440   19.7040  136.6050 C.3   204  LYS204      0.0038
    110  CD        16.4290   18.5930  137.5210 C.3   204  LYS204      0.0206
    111  CE        16.0590   18.8620  138.9620 C.3   204  LYS204      0.1093
    112  NZ        16.7560   17.9260  139.8850 N.3   204  LYS204     -0.1314
    113  N         18.7290   26.6460  132.0550 N.3   226  ALA226     -0.1231
    114  CA        19.6240   26.0350  131.0630 C.3   226  ALA226      0.1694
    115  C         19.0700   24.7720  130.4140 C.2   226  ALA226      0.2591
    116  O         19.0780   24.6680  129.1740 O.2   226  ALA226     -0.2718
    117  CB        20.9790   25.7210  131.6690 C.3   226  ALA226      0.0304
    118  N         18.6610   23.7980  131.2070 N.am  227  LYS227     -0.1980
    119  CA        18.3010   22.5060  130.5770 C.3   227  LYS227      0.1596
    120  C         17.1540   22.6130  129.5790 C.2   227  LYS227      0.2287
    121  O         17.1670   21.8960  128.5740 O.2   227  LYS227     -0.2864
    122  CB        18.0050   21.4610  131.6230 C.3   227  LYS227      0.0298
    123  CG        19.2340   20.9770  132.3390 C.3   227  LYS227      0.0038
    124  CD        18.8840   20.0970  133.5150 C.3   227  LYS227      0.0206
    125  CE        20.0880   19.5180  134.2100 C.3   227  LYS227      0.1093
    126  NZ        19.5170   18.8280  135.3840 N.3   227  LYS227     -0.1314
    127  N         16.7330    7.5930  134.3580 N.3   337  PHE337     -0.1241
    128  CA        17.8560    8.1830  135.0910 C.3   337  PHE337      0.1605
    129  C         17.8260    7.5480  136.4770 C.2   337  PHE337      0.2264
    130  O         17.0090    7.9130  137.3060 O.2   337  PHE337     -0.2867
    131  CB        17.6650    9.7350  135.1060 C.3   337  PHE337      0.0534
    132  CG        18.8130   10.5370  135.6930 C.ar  337  PHE337     -0.0203
    133  CD1       19.9530    9.9510  136.2280 C.ar  337  PHE337     -0.0042
    134  CD2       18.7080   11.9170  135.7270 C.ar  337  PHE337     -0.0042
    135  CE1       20.9730   10.7210  136.7750 C.ar  337  PHE337     -0.0003
    136  CE2       19.7240   12.6970  136.2950 C.ar  337  PHE337     -0.0003
    137  CZ        20.8510   12.1110  136.8040 C.ar  337  PHE337     -0.0000
    138  N         17.2020    9.0040  140.2740 N.3   340  ASP340     -0.1225
    139  CA        17.0760   10.4500  140.1090 C.3   340  ASP340      0.1805
    140  C         15.7280   10.7580  139.4360 C.2   340  ASP340      0.2597
    141  O         14.7820    9.9420  139.4830 O.2   340  ASP340     -0.2718
    142  CB        18.3060   10.9770  139.3520 C.3   340  ASP340      0.1424
    143  CG        18.6240   12.4320  139.6890 C.2   340  ASP340      0.3668
    144  OD1       19.7880   12.7300  140.0530 O.co2 340  ASP340     -0.2456
    145  OD2       17.7040   13.2680  139.5580 O.co2 340  ASP340     -0.2456
    146  N         15.5820   11.9140  138.7970 N.am  341  ASN341     -0.1974
    147  CA        14.2770   12.2340  138.2250 C.3   341  ASN341      0.1688
    148  C         14.1810   11.9140  136.7530 C.2   341  ASN341      0.2292
    149  O         15.1720   11.9280  136.0220 O.2   341  ASN341     -0.2864
    150  CB        13.8540   13.6970  138.4710 C.3   341  ASN341      0.1181
    151  CG        14.9150   14.7060  138.0850 C.2   341  ASN341      0.2629
    152  OD1       14.9960   15.7570  138.7290 O.2   341  ASN341     -0.2716
    153  ND2       15.7490   14.4010  137.1190 N.am  341  ASN341     -0.0877
    154  N         18.1910   11.6900  146.5350 N.3   387  GLY387     -0.1210
    155  CA        18.8310   11.4590  145.2370 C.3   387  GLY387      0.1956
    156  C         18.4160   12.4060  144.1290 C.2   387  GLY387      0.2611
    157  O         19.2480   12.8690  143.3530 O.2   387  GLY387     -0.2717
    158  N         17.1280   12.7360  144.0720 N.am  388  ALA388     -0.1979
    159  CA        16.5790   13.4840  142.9710 C.3   388  ALA388      0.1597
    160  C         16.6990   14.9620  143.1780 C.2   388  ALA388      0.2287
    161  O         16.9630   15.6910  142.2350 O.2   388  ALA388     -0.2864
    162  CB        15.1210   13.1200  142.7700 C.3   388  ALA388      0.0319
    163  N         18.4230   16.4230  146.0700 N.3   390  ASP390     -0.1239
    164  CA        19.7060   16.7620  146.6680 C.3   390  ASP390      0.1674
    165  C         19.5900   17.3970  148.0480 C.2   390  ASP390      0.2266
    166  O         20.4370   18.2110  148.4680 O.2   390  ASP390     -0.2867
    167  CB        20.4560   17.6550  145.6830 C.3   390  ASP390      0.1410
    168  CG        20.6250   16.9880  144.3110 C.2   390  ASP390      0.3668
    169  OD1       21.2400   15.9000  144.2890 O.co2 390  ASP390     -0.2456
    170  OD2       20.1290   17.4850  143.2850 O.co2 390  ASP390     -0.2456
@<TRIPOS>BOND
     1   121   120    2
     2   116   115    2
     3   120   119    1
     4    17    16    1
     5   115   114    1
     6   115   118   am
     7    19    20    1
     8   119   118    1
     9   119   122    1
    10    18    16    1
    11    25    23    1
    12    16    15    2
    13     8     9    1
    14   114   117    1
    15   114   113    1
    16    20    23    1
    17    20    21    1
    18   122   123    1
    19    15    14    1
    20    23    24    1
    21    10     9    1
    22    10    11    2
    23     9    12    1
    24   123   124    1
    25     4     3    2
    26    21    22    2
    27    21    26   am
    28    12    13    1
    29    14    13    1
    30    26    27    1
    31     3     2    1
    32   124   125    1
    33   100    99    2
    34   125   126    1
    35     1     2    1
    36   127   128    1
    37    82    81    1
    38    27    28    1
    39     2     5    1
    40   107   106    2
    41   128   131    1
    42   128   129    1
    43   131   132    1
    44   102   101    1
    45    99    98    1
    46    99   104   am
    47    80    81   ar
    48    80    78   ar
    49     5     7    1
    50     5     6    1
    51    81    79   ar
    52    28    30   am
    53    28    29    2
    54    30    31    1
    55    98   101    1
    56    98    97    1
    57   106   105    1
    58   132   134   ar
    59   132   133   ar
    60   134   136   ar
    61   105   104    1
    62   105   108    1
    63   103   101    1
    64   149   148    2
    65    78    76   ar
    66   133   135   ar
    67   136   137   ar
    68    34    31    1
    69    34    35    1
    70    34    36    1
    71    32    31    1
    72    32    33    2
    73   129   130    2
    74    79    77   ar
    75   109   108    1
    76   109   110    1
    77   148   147    1
    78   135   137   ar
    79   153   151   am
    80    76    77   ar
    81    76    75    1
    82   110   111    1
    83    37    38    1
    84   151   150    1
    85   151   152    2
    86   147   150    1
    87   147   146    1
    88    75    72    1
    89    44    42    1
    90   146   140   am
    91    95    94   ar
    92   111   112    1
    93    38    41    1
    94    38    39    1
    95    71    72    1
    96    71    69   am
    97   142   143    1
    98   142   139    1
    99    68    69    1
   100    68    67    1
   101   140   141    2
   102   140   139    1
   103    56    55    1
   104    54    55   ar
   105    54    52   ar
   106   145   143   ar
   107    72    73    1
   108    41    42    1
   109    91    92    2
   110    91    90    1
   111   143   144   ar
   112    39    40    2
   113    42    43    1
   114    60    59    2
   115    69    70    2
   116   139   138    1
   117    94    96   ar
   118    94    93    1
   119    55    53   ar
   120    52    50   ar
   121    73    74    2
   122    90    93    1
   123    90    89    1
   124    67    59   am
   125    59    58    1
   126    58    57    1
   127    58    61    1
   128    53    51   ar
   129    50    51   ar
   130    50    49    1
   131    48    47    2
   132   161   160    2
   133    57    47   am
   134    49    46    1
   135    47    46    1
   136    61    62    1
   137   162   159    1
   138    88    87    1
   139    87    84    1
   140   159   160    1
   141   159   158    1
   142    63    62   ar
   143    63    65   ar
   144    84    85    1
   145    84    83    1
   146    46    45    1
   147   170   168   ar
   148   157   156    2
   149    62    64   ar
   150    85    86    2
   151   158   156   am
   152   156   155    1
   153    65    66   ar
   154   169   168   ar
   155   168   167    1
   156    64    66   ar
   157   155   154    1
   158   167   164    1
   159   163   164    1
   160   164   165    1
   161   165   166    2
