@<TRIPOS>MOLECULE
tmp/6cboC00.pdb
 80 78 0 0 0
SMALL
GASTEIGER

@<TRIPOS>ATOM
      1  N         37.1660    4.2930  127.7990 N.3     3  GLY3       -0.1210
      2  CA        36.9620    4.6370  129.1990 C.3     3  GLY3        0.1956
      3  C         38.2230    4.6960  130.0450 C.2     3  GLY3        0.2611
      4  O         38.3140    5.5220  130.9490 O.2     3  GLY3       -0.2717
      5  N         39.2050    3.8310  129.7910 N.am    4  LYS4       -0.1979
      6  CA        40.3950    3.8280  130.6340 C.3     4  LYS4        0.1596
      7  C         41.2280    5.1100  130.4150 C.2     4  LYS4        0.2287
      8  O         42.0600    5.4540  131.2370 O.2     4  LYS4       -0.2864
      9  CB        41.2430    2.5610  130.4170 C.3     4  LYS4        0.0298
     10  CG        42.2410    2.6160  129.2750 C.3     4  LYS4        0.0038
     11  CD        42.7300    1.2220  128.8770 C.3     4  LYS4        0.0206
     12  CE        43.1470    0.3550  130.0610 C.3     4  LYS4        0.1093
     13  NZ        44.2420    0.9390  130.8920 N.3     4  LYS4       -0.1314
     14  N         39.7910    8.0250  130.1000 N.3     6  LEU6       -0.1231
     15  CA        39.0210    9.2160  130.5290 C.3     6  LEU6        0.1693
     16  C         39.2340    9.4850  132.0040 C.2     6  LEU6        0.2592
     17  O         38.9290    8.6770  132.8560 O.2     6  LEU6       -0.2718
     18  CB        37.5310    9.0450  130.2150 C.3     6  LEU6        0.0284
     19  CG        36.6250   10.1890  130.6230 C.3     6  LEU6        0.0019
     20  CD1       37.0590   11.4540  129.8990 C.3     6  LEU6        0.0001
     21  CD2       35.1880    9.8100  130.3290 C.3     6  LEU6        0.0001
     22  N         39.7080   10.6920  132.3390 N.am    7  ALA7       -0.1966
     23  CA        39.9240   11.0540  133.7190 C.3     7  ALA7        0.1728
     24  C         38.6900   11.4030  134.5230 C.2     7  ALA7        0.2616
     25  O         38.6960   11.3590  135.7590 O.2     7  ALA7       -0.2715
     26  CB        40.8590   12.2520  133.7590 C.3     7  ALA7        0.0334
     27  N         37.6540   11.8040  133.7890 N.am    8  GLN8       -0.1963
     28  CA        36.3880   12.2540  134.3840 C.3     8  GLN8        0.1733
     29  C         35.4430   11.0770  134.5620 C.2     8  GLN8        0.2616
     30  O         35.7080    9.9960  134.0590 O.2     8  GLN8       -0.2715
     31  CB        35.7850   13.3190  133.4980 C.3     8  GLN8        0.0408
     32  CG        36.6310   14.5770  133.4040 C.3     8  GLN8        0.0908
     33  CD        36.3240   15.4290  132.2000 C.2     8  GLN8        0.2608
     34  OE1       36.0970   14.9310  131.1200 O.2     8  GLN8       -0.2717
     35  NE2       36.3980   16.7450  132.3660 N.am    8  GLN8       -0.0878
     36  N         34.3610   11.2960  135.2870 N.am    9  GLU9       -0.1964
     37  CA        33.3380   10.2760  135.4780 C.3     9  GLU9        0.1718
     38  C         31.9790   10.8750  135.1480 C.2     9  GLU9        0.2458
     39  O         31.2010   11.2650  136.0330 O.2     9  GLU9       -0.2730
     40  CB        33.4200    9.7110  136.8980 C.3     9  GLU9        0.0428
     41  CG        34.5790    8.7450  137.0500 C.3     9  GLU9        0.1163
     42  CD        34.7420    8.2010  138.4550 C.2     9  GLU9        0.3649
     43  OE1       34.1880    8.7930  139.4080 O.co2   9  GLU9       -0.2457
     44  OE2       35.4630    7.1900  138.5940 O.co2   9  GLU9       -0.2457
     45  N         31.6900   10.9950  133.8510 N.am   10  PRO10      -0.2727
     46  CA        30.4430   11.6470  133.5000 C.3    10  PRO10       0.1402
     47  C         29.2140   10.8710  133.9480 C.2    10  PRO10       0.2269
     48  O         29.2100    9.6290  133.9210 O.2    10  PRO10      -0.2865
     49  CB        30.5010   11.7430  131.9650 C.3    10  PRO10       0.0296
     50  CG        31.5190   10.7680  131.5350 C.3    10  PRO10       0.0237
     51  CD        32.5000   10.6600  132.6700 C.3    10  PRO10       0.0939
     52  N         24.4850    3.5730  133.0920 N.3    14  ARG14      -0.1245
     53  CA        25.5170    2.5750  133.2540 C.3    14  ARG14       0.1563
     54  C         24.8630    1.2220  133.5040 C.2    14  ARG14       0.2260
     55  O         23.7590    1.1340  134.0880 O.2    14  ARG14      -0.2867
     56  CB        26.4280    2.9330  134.4150 C.3    14  ARG14       0.0307
     57  CG        27.2570    4.1620  134.0860 C.3    14  ARG14       0.0489
     58  CD        28.0630    4.6550  135.2500 C.3    14  ARG14       0.2205
     59  NE        28.7760    5.8780  134.8840 N.pl3  14  ARG14      -0.0865
     60  CZ        30.0280    5.9260  134.4400 C.cat  14  ARG14       0.5346
     61  NH1       30.7310    4.8150  134.2890 N.pl3  14  ARG14       0.1354
     62  NH2       30.5520    7.1100  134.1000 N.pl3  14  ARG14       0.1354
     63  N         29.5870    0.1930  133.8480 N.3    19  ARG19      -0.1231
     64  CA        30.1170    0.6070  132.5600 C.3    19  ARG19       0.1679
     65  C         29.0440    1.3990  131.8450 C.2    19  ARG19       0.2434
     66  O         27.8780    1.0050  131.8550 O.2    19  ARG19      -0.2733
     67  CB        30.4460   -0.5760  131.6460 C.3    19  ARG19       0.0321
     68  CG        31.7600   -1.2910  131.8980 C.3    19  ARG19       0.0489
     69  CD        32.9300   -0.4400  131.4270 C.3    19  ARG19       0.2205
     70  NE        33.2830    0.4090  132.5430 N.pl3  19  ARG19      -0.0865
     71  CZ        33.7050    1.6700  132.4930 C.cat  19  ARG19       0.5346
     72  NH1       33.9430    2.2590  133.6480 N.pl3  19  ARG19       0.1354
     73  NH2       33.9130    2.3250  131.3530 N.pl3  19  ARG19       0.1354
     74  N         29.4430    2.4910  131.1850 N.am   20  PRO20      -0.2729
     75  CA        28.4760    3.2280  130.3840 C.3    20  PRO20       0.1401
     76  C         27.7260    2.3950  129.3570 C.2    20  PRO20       0.2269
     77  O         28.3380    1.6140  128.5960 O.2    20  PRO20      -0.2865
     78  CB        29.3360    4.2830  129.6810 C.3    20  PRO20       0.0296
     79  CG        30.5010    4.4910  130.6210 C.3    20  PRO20       0.0237
     80  CD        30.7810    3.0970  131.1260 C.3    20  PRO20       0.0939
@<TRIPOS>BOND
     1     1     2    1
     2    77    76    2
     3    11    10    1
     4    11    12    1
     5     2     3    1
     6    10     9    1
     7    76    75    1
     8    78    75    1
     9    78    79    1
    10     5     3   am
    11     5     6    1
    12    20    19    1
    13     3     4    2
    14    12    13    1
    15    14    15    1
    16    18    15    1
    17    18    19    1
    18    21    19    1
    19    75    74    1
    20     7     6    1
    21     7     8    2
    22     9     6    1
    23    15    16    1
    24    79    80    1
    25    34    33    2
    26    80    74    1
    27    74    65   am
    28    73    71    1
    29    69    68    1
    30    69    70    1
    31    50    49    1
    32    50    51    1
    33    67    68    1
    34    67    64    1
    35    65    66    2
    36    65    64    1
    37    49    46    1
    38    16    22   am
    39    16    17    2
    40    33    35   am
    41    33    32    1
    42    22    23    1
    43    71    70    2
    44    71    72    1
    45    64    63    1
    46    51    45    1
    47    52    53    1
    48    53    54    1
    49    53    56    1
    50    32    31    1
    51    31    28    1
    52    46    45    1
    53    46    47    1
    54    54    55    2
    55    23    26    1
    56    23    24    1
    57    27    28    1
    58    27    24   am
    59    45    38   am
    60    48    47    2
    61    30    29    2
    62    57    56    1
    63    57    58    1
    64    62    60    1
    65    61    60    1
    66    28    29    1
    67    60    59    2
    68    24    25    2
    69    29    36   am
    70    59    58    1
    71    38    37    1
    72    38    39    2
    73    36    37    1
    74    37    40    1
    75    40    41    1
    76    41    42    1
    77    42    44   ar
    78    42    43   ar
