@<TRIPOS>MOLECULE
tmp/6cbqB00.pdb
 225 219 0 0 0
SMALL
GASTEIGER

@<TRIPOS>ATOM
      1  N         12.9670  -17.1080  -22.3650 N.3    35  SER35      -0.1217
      2  CA        14.0460  -18.0250  -22.7220 C.3    35  SER35       0.1889
      3  C         13.8670  -19.2990  -21.9100 C.2    35  SER35       0.2288
      4  O         14.0880  -19.2930  -20.6950 O.2    35  SER35      -0.2866
      5  CB        15.4070  -17.3940  -22.4640 C.3    35  SER35       0.2089
      6  OG        16.4450  -18.3200  -22.7250 O.3    35  SER35      -0.2183
      7  N         15.4510  -22.7200  -21.5450 N.3    37  GLY37      -0.1210
      8  CA        16.6330  -23.5150  -21.8430 C.3    37  GLY37       0.1956
      9  C         16.6360  -24.8080  -21.0440 C.2    37  GLY37       0.2612
     10  O         16.2070  -24.8340  -19.8870 O.2    37  GLY37      -0.2717
     11  N         17.1190  -25.8740  -21.6730 N.am   38  ALA38      -0.1965
     12  CA        17.2420  -27.1760  -21.0380 C.3    38  ALA38       0.1728
     13  C         18.6560  -27.6930  -21.2410 C.2    38  ALA38       0.2616
     14  O         19.2390  -27.5260  -22.3170 O.2    38  ALA38      -0.2715
     15  CB        16.2270  -28.1760  -21.6020 C.3    38  ALA38       0.0334
     16  N         19.2070  -28.3140  -20.2040 N.am   39  ARG39      -0.1977
     17  CA        20.5610  -28.8520  -20.2340 C.3    39  ARG39       0.1597
     18  C         20.4770  -30.3690  -20.1470 C.2    39  ARG39       0.2287
     19  O         20.1860  -30.9210  -19.0800 O.2    39  ARG39      -0.2864
     20  CB        21.4000  -28.2790  -19.0960 C.3    39  ARG39       0.0334
     21  CG        22.7780  -28.9040  -18.9560 C.3    39  ARG39       0.0492
     22  CD        23.4890  -28.3300  -17.7460 C.3    39  ARG39       0.2205
     23  NE        24.7480  -29.0040  -17.4480 N.pl3  39  ARG39      -0.0865
     24  CZ        24.8570  -30.0640  -16.6550 C.cat  39  ARG39       0.5346
     25  NH1       23.7790  -30.5800  -16.0800 N.pl3  39  ARG39       0.1354
     26  NH2       26.0460  -30.6110  -16.4370 N.pl3  39  ARG39       0.1354
     27  N         23.3450  -27.8070  -24.4920 N.3    49  TYR49      -0.1241
     28  CA        22.2010  -26.9770  -24.1530 C.3    49  TYR49       0.1605
     29  C         21.2930  -26.8090  -25.3650 C.2    49  TYR49       0.2264
     30  O         21.7360  -26.9000  -26.5140 O.2    49  TYR49      -0.2867
     31  CB        22.6520  -25.6030  -23.6550 C.3    49  TYR49       0.0534
     32  CG        23.3240  -25.6210  -22.3030 C.ar   49  TYR49      -0.0201
     33  CD1       24.6320  -26.0640  -22.1620 C.ar   49  TYR49      -0.0009
     34  CD2       22.6520  -25.1880  -21.1690 C.ar   49  TYR49      -0.0009
     35  CE1       25.2510  -26.0820  -20.9260 C.ar   49  TYR49       0.0417
     36  CE2       23.2610  -25.2010  -19.9280 C.ar   49  TYR49       0.0417
     37  CZ        24.5620  -25.6490  -19.8130 C.ar   49  TYR49       0.1957
     38  OH        25.1750  -25.6640  -18.5810 O.3    49  TYR49      -0.2866
     39  N         18.0720  -24.0960  -26.3320 N.3    51  PHE51      -0.1241
     40  CA        17.2560  -22.9540  -25.9500 C.3    51  PHE51       0.1605
     41  C         16.1660  -22.6950  -26.9810 C.2    51  PHE51       0.2264
     42  O         16.3150  -23.0080  -28.1660 O.2    51  PHE51      -0.2867
     43  CB        18.1120  -21.6910  -25.7930 C.3    51  PHE51       0.0534
     44  CG        19.3490  -21.8910  -24.9660 C.ar   51  PHE51      -0.0203
     45  CD1       20.5780  -22.0900  -25.5730 C.ar   51  PHE51      -0.0042
     46  CD2       19.2860  -21.8750  -23.5830 C.ar   51  PHE51      -0.0042
     47  CE1       21.7210  -22.2710  -24.8170 C.ar   51  PHE51      -0.0003
     48  CE2       20.4250  -22.0560  -22.8210 C.ar   51  PHE51      -0.0003
     49  CZ        21.6440  -22.2530  -23.4400 C.ar   51  PHE51      -0.0000
     50  N         13.9830  -19.2070  -27.5310 N.3    53  SER53      -0.1217
     51  CA        13.7920  -17.8480  -27.0480 C.3    53  SER53       0.1889
     52  C         13.4430  -16.9260  -28.2080 C.2    53  SER53       0.2288
     53  O         13.7410  -17.2110  -29.3710 O.2    53  SER53      -0.2866
     54  CB        15.0450  -17.3320  -26.3250 C.3    53  SER53       0.2089
     55  OG        16.1750  -17.3610  -27.1790 O.3    53  SER53      -0.2183
     56  N         14.6590  -13.8070  -28.2130 N.3    55  TYR55      -0.1241
     57  CA        15.6600  -12.7590  -28.1110 C.3    55  TYR55       0.1605
     58  C         15.9740  -12.1910  -29.4950 C.2    55  TYR55       0.2264
     59  O         15.6830  -12.8230  -30.5140 O.2    55  TYR55      -0.2867
     60  CB        16.9300  -13.3090  -27.4590 C.3    55  TYR55       0.0534
     61  CG        16.8060  -13.5630  -25.9710 C.ar   55  TYR55      -0.0201
     62  CD1       15.9730  -12.7830  -25.1800 C.ar   55  TYR55      -0.0009
     63  CD2       17.5220  -14.5840  -25.3590 C.ar   55  TYR55      -0.0009
     64  CE1       15.8590  -13.0120  -23.8200 C.ar   55  TYR55       0.0417
     65  CE2       17.4130  -14.8200  -24.0000 C.ar   55  TYR55       0.0417
     66  CZ        16.5800  -14.0310  -23.2360 C.ar   55  TYR55       0.1957
     67  OH        16.4660  -14.2590  -21.8840 O.3    55  TYR55      -0.2866
     68  N         21.3880  -11.4600  -30.8200 N.3    59  TRP59      -0.1227
     69  CA        21.7510  -12.0760  -29.5500 C.3    59  TRP59       0.1737
     70  C         21.6190  -13.5940  -29.5840 C.2    59  TRP59       0.2595
     71  O         22.3890  -14.2910  -28.9140 O.2    59  TRP59      -0.2718
     72  CB        20.8920  -11.4980  -28.4240 C.3    59  TRP59       0.0564
     73  CG        21.2790  -11.9830  -27.0620 C.ar   59  TRP59       0.0003
     74  CD1       20.5530  -12.7980  -26.2440 C.ar   59  TRP59       0.0946
     75  CD2       22.4930  -11.6880  -26.3600 C.ar   59  TRP59       0.0152
     76  NE1       21.2370  -13.0260  -25.0740 N.ar   59  TRP59      -0.2442
     77  CE2       22.4320  -12.3560  -25.1210 C.ar   59  TRP59       0.0810
     78  CE3       23.6250  -10.9240  -26.6590 C.ar   59  TRP59       0.0012
     79  CZ2       23.4580  -12.2820  -24.1820 C.ar   59  TRP59       0.0191
     80  CZ3       24.6430  -10.8520  -25.7250 C.ar   59  TRP59       0.0001
     81  CH2       24.5520  -11.5270  -24.5020 C.ar   59  TRP59       0.0015
     82  N         20.6600  -14.1230  -30.3500 N.am   60  LYS60      -0.1980
     83  CA        20.5040  -15.5710  -30.4370 C.3    60  LYS60       0.1596
     84  C         21.6980  -16.2260  -31.1210 C.2    60  LYS60       0.2287
     85  O         21.9990  -17.3940  -30.8510 O.2    60  LYS60      -0.2864
     86  CB        19.2100  -15.9200  -31.1750 C.3    60  LYS60       0.0298
     87  CG        17.9480  -15.4660  -30.4590 C.3    60  LYS60       0.0038
     88  CD        16.6980  -15.8040  -31.2580 C.3    60  LYS60       0.0206
     89  CE        16.5380  -17.3040  -31.4390 C.3    60  LYS60       0.1093
     90  NZ        15.2760  -17.6400  -32.1560 N.3    60  LYS60      -0.1314
     91  N         25.1140  -15.5090  -28.6610 N.3    63  TYR63      -0.1227
     92  CA        25.1750  -16.2920  -27.4310 C.3    63  TYR63       0.1736
     93  C         25.8960  -17.6160  -27.6480 C.2    63  TYR63       0.2595
     94  O         26.4830  -18.1620  -26.7080 O.2    63  TYR63      -0.2718
     95  CB        23.7630  -16.5370  -26.8930 C.3    63  TYR63       0.0548
     96  CG        23.7080  -16.9450  -25.4340 C.ar   63  TYR63      -0.0200
     97  CD1       23.8280  -18.2770  -25.0560 C.ar   63  TYR63      -0.0009
     98  CD2       23.5240  -15.9960  -24.4360 C.ar   63  TYR63      -0.0009
     99  CE1       23.7750  -18.6500  -23.7230 C.ar   63  TYR63       0.0417
    100  CE2       23.4680  -16.3600  -23.1020 C.ar   63  TYR63       0.0417
    101  CZ        23.5940  -17.6880  -22.7510 C.ar   63  TYR63       0.1957
    102  OH        23.5390  -18.0520  -21.4260 O.3    63  TYR63      -0.2866
    103  N         25.8710  -18.1370  -28.8720 N.am   64  ILE64      -0.1980
    104  CA        26.4950  -19.4240  -29.1550 C.3    64  ILE64       0.1595
    105  C         27.9430  -19.2670  -29.6150 C.2    64  ILE64       0.2287
    106  O         28.7600  -20.1700  -29.4030 O.2    64  ILE64      -0.2864
    107  CB        25.6630  -20.1880  -30.2010 C.3    64  ILE64       0.0276
    108  CG1       24.1780  -20.1520  -29.8310 C.3    64  ILE64       0.0022
    109  CG2       26.1370  -21.6290  -30.3220 C.3    64  ILE64       0.0022
    110  CD1       23.2810  -20.8340  -30.8420 C.3    64  ILE64       0.0001
    111  N         27.6780  -17.4920  -17.9070 N.3    72  ASP72      -0.1239
    112  CA        26.3950  -16.9300  -17.4920 C.3    72  ASP72       0.1674
    113  C         26.0750  -17.3380  -16.0590 C.2    72  ASP72       0.2266
    114  O         25.9260  -18.5360  -15.7850 O.2    72  ASP72      -0.2867
    115  CB        25.2910  -17.4030  -18.4370 C.3    72  ASP72       0.1410
    116  CG        24.0230  -16.5730  -18.3310 C.2    72  ASP72       0.3668
    117  OD1       23.2400  -16.5660  -19.3040 O.co2  72  ASP72      -0.2456
    118  OD2       23.8070  -15.9270  -17.2850 O.co2  72  ASP72      -0.2456
    119  N         23.2730  -16.8740  -14.6350 N.3    74  ILE74      -0.1231
    120  CA        21.8900  -17.3390  -14.6230 C.3    74  ILE74       0.1692
    121  C         21.8340  -18.8430  -14.8550 C.2    74  ILE74       0.2591
    122  O         21.0240  -19.5510  -14.2430 O.2    74  ILE74      -0.2718
    123  CB        21.0620  -16.5700  -15.6690 C.3    74  ILE74       0.0266
    124  CG1       21.1570  -15.0640  -15.4150 C.3    74  ILE74       0.0019
    125  CG2       19.6110  -17.0320  -15.6540 C.3    74  ILE74       0.0020
    126  CD1       20.6810  -14.6430  -14.0430 C.3    74  ILE74       0.0001
    127  N         22.6900  -19.3550  -15.7400 N.am   75  VAL75      -0.1980
    128  CA        22.7900  -20.7980  -15.9260 C.3    75  VAL75       0.1595
    129  C         23.3370  -21.4560  -14.6660 C.2    75  VAL75       0.2287
    130  O         22.8890  -22.5380  -14.2690 O.2    75  VAL75      -0.2864
    131  CB        23.6620  -21.1180  -17.1540 C.3    75  VAL75       0.0276
    132  CG1       23.7000  -22.6190  -17.4070 C.3    75  VAL75       0.0022
    133  CG2       23.1520  -20.3790  -18.3770 C.3    75  VAL75       0.0022
    134  N         20.6830  -22.2610  -11.8900 N.3    78  GLY78      -0.1210
    135  CA        19.8600  -23.4250  -12.1550 C.3    78  GLY78       0.1956
    136  C         20.5930  -24.7430  -12.0350 C.2    78  GLY78       0.2611
    137  O         19.9480  -25.7890  -11.9110 O.2    78  GLY78      -0.2717
    138  N         21.9250  -24.7200  -12.0680 N.am   79  LEU79      -0.1979
    139  CA        22.6960  -25.9510  -11.9590 C.3    79  LEU79       0.1596
    140  C         22.9810  -26.3410  -10.5180 C.2    79  LEU79       0.2287
    141  O         23.0570  -27.5370  -10.2100 O.2    79  LEU79      -0.2864
    142  CB        24.0180  -25.8190  -12.7190 C.3    79  LEU79       0.0297
    143  CG        23.9100  -25.5410  -14.2180 C.3    79  LEU79       0.0022
    144  CD1       25.2580  -25.7200  -14.8980 C.3    79  LEU79       0.0001
    145  CD2       22.8530  -26.4310  -14.8500 C.3    79  LEU79       0.0001
    146  N         16.7060  -11.2690  -10.8400 N.3    87  TRP87      -0.1241
    147  CA        17.9800  -10.6700  -11.2070 C.3    87  TRP87       0.1605
    148  C         17.7660   -9.3790  -11.9820 C.2    87  TRP87       0.2264
    149  O         16.8200   -9.2570  -12.7660 O.2    87  TRP87      -0.2867
    150  CB        18.8330  -11.6440  -12.0360 C.3    87  TRP87       0.0550
    151  CG        18.1000  -12.2870  -13.1790 C.ar   87  TRP87       0.0003
    152  CD1       17.2660  -13.3660  -13.1130 C.ar   87  TRP87       0.0946
    153  CD2       18.1480  -11.9010  -14.5590 C.ar   87  TRP87       0.0152
    154  NE1       16.7860  -13.6710  -14.3640 N.ar   87  TRP87      -0.2442
    155  CE2       17.3130  -12.7870  -15.2690 C.ar   87  TRP87       0.0810
    156  CE3       18.8130  -10.8920  -15.2620 C.ar   87  TRP87       0.0012
    157  CZ2       17.1260  -12.6950  -16.6470 C.ar   87  TRP87       0.0191
    158  CZ3       18.6260  -10.8010  -16.6320 C.ar   87  TRP87       0.0001
    159  CH2       17.7890  -11.6970  -17.3090 C.ar   87  TRP87       0.0015
    160  N         29.9490   -9.5730  -20.4920 N.3    98  PHE98      -0.1227
    161  CA        28.7480  -10.3270  -20.8320 C.3    98  PHE98       0.1736
    162  C         27.4840   -9.5570  -20.4680 C.2    98  PHE98       0.2595
    163  O         26.5160   -9.5520  -21.2360 O.2    98  PHE98      -0.2718
    164  CB        28.7700  -11.6880  -20.1310 C.3    98  PHE98       0.0547
    165  CG        27.4760  -12.4500  -20.2340 C.ar   98  PHE98      -0.0202
    166  CD1       27.1570  -13.1510  -21.3850 C.ar   98  PHE98      -0.0042
    167  CD2       26.5850  -12.4750  -19.1720 C.ar   98  PHE98      -0.0042
    168  CE1       25.9690  -13.8530  -21.4780 C.ar   98  PHE98      -0.0003
    169  CE2       25.3960  -13.1770  -19.2610 C.ar   98  PHE98      -0.0003
    170  CZ        25.0880  -13.8670  -20.4150 C.ar   98  PHE98      -0.0000
    171  N         27.4740   -8.8980  -19.3060 N.am   99  TRP99      -0.1976
    172  CA        26.2770   -8.1840  -18.8730 C.3    99  TRP99       0.1640
    173  C         26.1520   -6.8240  -19.5480 C.2    99  TRP99       0.2290
    174  O         25.0380   -6.3880  -19.8590 O.2    99  TRP99      -0.2864
    175  CB        26.2720   -8.0350  -17.3510 C.3    99  TRP99       0.0576
    176  CG        25.8990   -9.3020  -16.6430 C.ar   99  TRP99       0.0006
    177  CD1       26.7140  -10.0910  -15.8840 C.ar   99  TRP99       0.0946
    178  CD2       24.6140   -9.9370  -16.6430 C.ar   99  TRP99       0.0152
    179  NE1       26.0140  -11.1720  -15.4060 N.ar   99  TRP99      -0.2442
    180  CE2       24.7220  -11.1010  -15.8580 C.ar   99  TRP99       0.0810
    181  CE3       23.3810   -9.6310  -17.2290 C.ar   99  TRP99       0.0012
    182  CZ2       23.6460  -11.9600  -15.6430 C.ar   99  TRP99       0.0191
    183  CZ3       22.3140  -10.4850  -17.0150 C.ar   99  TRP99       0.0001
    184  CH2       22.4530  -11.6350  -16.2290 C.ar   99  TRP99       0.0015
    185  N         24.7010   -7.8230  -22.7030 N.3   102  ALA102     -0.1245
    186  CA        23.3330   -8.3140  -22.5760 C.3   102  ALA102      0.1562
    187  C         22.3550   -7.1900  -22.2600 C.2   102  ALA102      0.2260
    188  O         21.1950   -7.2430  -22.6840 O.2   102  ALA102     -0.2867
    189  CB        23.2570   -9.3980  -21.5020 C.3   102  ALA102      0.0290
    190  N         17.8700   -7.0570  -22.1770 N.3   107  ILE107     -0.1245
    191  CA        17.8070   -8.1600  -21.2210 C.3   107  ILE107      0.1561
    192  C         18.3150   -7.6000  -19.8960 C.2   107  ILE107      0.2260
    193  O         19.5060   -7.6600  -19.5810 O.2   107  ILE107     -0.2867
    194  CB        18.6100   -9.3700  -21.6940 C.3   107  ILE107      0.0252
    195  CG1       18.1130   -9.8240  -23.0680 C.3   107  ILE107      0.0019
    196  CG2       18.5110  -10.5100  -20.6940 C.3   107  ILE107      0.0019
    197  CD1       18.8800  -10.9910  -23.6410 C.3   107  ILE107      0.0001
    198  N         17.8300  -30.6170  -16.7460 N.3   122  ILE122     -0.1231
    199  CA        17.8320  -29.4500  -15.8710 C.3   122  ILE122      0.1692
    200  C         17.3590  -28.2450  -16.6740 C.2   122  ILE122      0.2593
    201  O         18.1590  -27.5780  -17.3410 O.2   122  ILE122     -0.2718
    202  CB        19.2220  -29.1940  -15.2640 C.3   122  ILE122      0.0266
    203  CG1       19.7270  -30.4540  -14.5510 C.3   122  ILE122      0.0019
    204  CG2       19.1690  -28.0130  -14.3040 C.3   122  ILE122      0.0020
    205  CD1       21.0470  -30.2730  -13.8460 C.3   122  ILE122      0.0001
    206  N         16.0620  -27.9610  -16.6200 N.am  123  SER123     -0.1938
    207  CA        15.4680  -26.8810  -17.3920 C.3   123  SER123      0.2055
    208  C         15.2870  -25.6350  -16.5320 C.2   123  SER123      0.2642
    209  O         15.4470  -25.6560  -15.3100 O.2   123  SER123     -0.2714
    210  CB        14.1250  -27.3210  -17.9780 C.3   123  SER123      0.2130
    211  OG        14.2800  -28.4550  -18.8100 O.3   123  SER123     -0.2179
    212  N         14.9360  -24.5380  -17.1980 N.am  124  MET124     -0.1976
    213  CA        14.6930  -23.2750  -16.5140 C.3   124  MET124      0.1605
    214  C         13.9040  -22.3540  -17.4310 C.2   124  MET124      0.2287
    215  O         14.2730  -22.1660  -18.5950 O.2   124  MET124     -0.2864
    216  CB        16.0080  -22.6120  -16.0950 C.3   124  MET124      0.0413
    217  CG        15.8510  -21.1760  -15.6280 C.3   124  MET124      0.0598
    218  SD        17.4150  -20.4480  -15.1190 S.3   124  MET124     -0.1393
    219  CE        17.5580  -21.0830  -13.4570 C.3   124  MET124      0.0692
    220  N         12.7940  -18.5520  -18.1160 N.3   126  SER126     -0.1217
    221  CA        13.2790  -17.2080  -17.8300 C.3   126  SER126      0.1889
    222  C         12.4400  -16.2020  -18.6020 C.2   126  SER126      0.2288
    223  O         12.4380  -16.2130  -19.8370 O.2   126  SER126     -0.2866
    224  CB        14.7590  -17.0670  -18.1990 C.3   126  SER126      0.2089
    225  OG        15.5470  -18.0220  -17.5110 O.3   126  SER126     -0.2183
@<TRIPOS>BOND
     1    90    89    1
     2    89    88    1
     3    88    87    1
     4    86    87    1
     5    86    83    1
     6    84    85    2
     7    84    83    1
     8   110   108    1
     9    68    69    1
    10    59    58    2
    11    83    82    1
    12    82    70   am
    13   109   107    1
    14   107   108    1
    15   107   104    1
    16   105   106    2
    17   105   104    1
    18    70    69    1
    19    70    71    2
    20    69    72    1
    21    58    57    1
    22    53    52    2
    23   104   103    1
    24   103    93   am
    25    91    92    1
    26    72    73    1
    27    56    57    1
    28    52    51    1
    29    42    41    2
    30    57    60    1
    31    93    92    1
    32    93    94    2
    33    50    51    1
    34    60    61    1
    35    92    95    1
    36    55    54    1
    37    73    75   ar
    38    73    74   ar
    39    51    54    1
    40    41    40    1
    41    95    96    1
    42    78    75   ar
    43    78    80   ar
    44    30    29    2
    45    75    77   ar
    46    39    40    1
    47    74    76   ar
    48    61    63   ar
    49    61    62   ar
    50    40    43    1
    51    43    44    1
    52    80    81   ar
    53    45    44   ar
    54    45    47   ar
    55    96    97   ar
    56    96    98   ar
    57    29    28    1
    58    63    65   ar
    59    62    64   ar
    60    77    76   ar
    61    77    79   ar
    62    97    99   ar
    63    44    46   ar
    64    47    49   ar
    65    81    79   ar
    66    27    28    1
    67    98   100   ar
    68    28    31    1
    69    65    66   ar
    70    64    66   ar
    71    99   101   ar
    72    31    32    1
    73   197   195    1
    74    46    48   ar
    75    49    48   ar
    76    66    67    1
    77   100   101   ar
    78   195   194    1
    79   101   102    1
    80     6     5    1
    81     2     5    1
    82     2     1    1
    83     2     3    1
    84   185   186    1
    85   188   187    2
    86   186   187    1
    87   186   189    1
    88    14    13    2
    89    32    33   ar
    90    32    34   ar
    91   190   191    1
    92    33    35   ar
    93     3     4    2
    94     8     7    1
    95     8     9    1
    96   194   191    1
    97   194   196    1
    98    11     9   am
    99    11    12    1
   100    15    12    1
   101   168   166   ar
   102   168   170   ar
   103   166   165   ar
   104    13    12    1
   105    13    16   am
   106   163   162    2
   107   191   192    1
   108    34    36   ar
   109     9    10    2
   110    35    37   ar
   111   161   160    1
   112   161   162    1
   113   161   164    1
   114   162   171   am
   115   170   169   ar
   116   165   164    1
   117   165   167   ar
   118    17    16    1
   119    17    18    1
   120    17    20    1
   121    18    19    2
   122    36    37   ar
   123   192   193    2
   124   174   173    2
   125   223   222    2
   126    37    38    1
   127   173   172    1
   128   171   172    1
   129   117   116   ar
   130   169   167   ar
   131    20    21    1
   132    21    22    1
   133   172   175    1
   134   211   210    1
   135   222   221    1
   136   215   214    2
   137   115   116    1
   138   115   112    1
   139   133   131    1
   140   116   118   ar
   141   224   221    1
   142   224   225    1
   143   220   221    1
   144   210   207    1
   145   111   112    1
   146    22    23    1
   147   112   113    1
   148    23    24    2
   149   214   213    1
   150   132   131    1
   151   207   206    1
   152   207   208    1
   153   175   176    1
   154   201   200    2
   155   159   157   ar
   156   159   158   ar
   157   181   183   ar
   158   181   178   ar
   159   212   208   am
   160   212   213    1
   161   131   128    1
   162   183   184   ar
   163   198   199    1
   164   200   206   am
   165   200   199    1
   166    24    26    1
   167    24    25    1
   168   157   155   ar
   169   178   176   ar
   170   178   180   ar
   171   176   177   ar
   172   158   156   ar
   173   208   209    2
   174   213   216    1
   175   184   182   ar
   176   216   217    1
   177   113   114    2
   178   128   127    1
   179   128   129    1
   180   177   179   ar
   181   199   202    1
   182   180   182   ar
   183   180   179   ar
   184   127   121   am
   185   123   125    1
   186   123   124    1
   187   123   120    1
   188   217   218    1
   189   124   126    1
   190   155   153   ar
   191   155   154   ar
   192   202   203    1
   193   202   204    1
   194   156   153   ar
   195   218   219    1
   196   144   143    1
   197   121   120    1
   198   121   122    2
   199   145   143    1
   200   129   130    2
   201   119   120    1
   202   153   151   ar
   203   203   205    1
   204   154   152   ar
   205   143   142    1
   206   151   152   ar
   207   151   150    1
   208   149   148    2
   209   142   139    1
   210   135   136    1
   211   135   134    1
   212   138   136   am
   213   138   139    1
   214   150   147    1
   215   136   137    2
   216   148   147    1
   217   139   140    1
   218   147   146    1
   219   140   141    2
