@<TRIPOS>MOLECULE
tmp/6cbxA00.pdb
 172 168 0 0 0
SMALL
GASTEIGER

@<TRIPOS>ATOM
      1  N        -24.2740    5.7070  -15.4420 N.3    12  GLY12      -0.1210
      2  CA       -23.3150    6.7340  -15.0960 C.3    12  GLY12       0.1956
      3  C        -21.8630    6.2990  -15.1770 C.2    12  GLY12       0.2611
      4  O        -20.9700    7.1420  -15.0340 O.2    12  GLY12      -0.2717
      5  N        -21.6330    5.0060  -15.4410 N.am   13  LYS13      -0.1979
      6  CA       -20.3010    4.4130  -15.3880 C.3    13  LYS13       0.1596
      7  C        -19.8640    3.7800  -16.6860 C.2    13  LYS13       0.2287
      8  O        -18.7160    3.9060  -17.0540 O.2    13  LYS13      -0.2864
      9  CB       -20.2460    3.3770  -14.2640 C.3    13  LYS13       0.0298
     10  CG       -20.5220    3.9630  -12.9000 C.3    13  LYS13       0.0038
     11  CD       -20.4950    2.8930  -11.8340 C.3    13  LYS13       0.0206
     12  CE       -20.5650    3.4710  -10.4380 C.3    13  LYS13       0.1093
     13  NZ       -21.8420    4.1480  -10.1590 N.3    13  LYS13      -0.1314
     14  N        -19.9950    0.2480  -19.4540 N.3    15  ARG15      -0.1245
     15  CA       -20.0130   -1.2150  -19.4250 C.3    15  ARG15       0.1563
     16  C        -19.3990   -1.7640  -18.1250 C.2    15  ARG15       0.2260
     17  O        -18.3700   -1.2650  -17.6590 O.2    15  ARG15      -0.2867
     18  CB       -19.2650   -1.7730  -20.6410 C.3    15  ARG15       0.0307
     19  CG       -17.7740   -1.4130  -20.6460 C.3    15  ARG15       0.0489
     20  CD       -17.0920   -1.6980  -21.9610 C.3    15  ARG15       0.2205
     21  NE       -15.6580   -1.4000  -21.8770 N.pl3  15  ARG15      -0.0865
     22  CZ       -14.8690   -1.1330  -22.9190 C.cat  15  ARG15       0.5346
     23  NH1      -13.5750   -0.8750  -22.7120 N.pl3  15  ARG15       0.1354
     24  NH2      -15.3490   -1.1180  -24.1630 N.pl3  15  ARG15       0.1354
     25  N        -10.4720    0.8600  -23.5810 N.3   131  GLU131     -0.1245
     26  CA       -10.4350    2.3130  -23.6510 C.3   131  GLU131      0.1567
     27  C         -8.9740    2.7720  -23.7270 C.2   131  GLU131      0.2260
     28  O         -8.1300    2.2940  -22.9610 O.2   131  GLU131     -0.2867
     29  CB       -11.1390    2.9120  -22.4360 C.3   131  GLU131      0.0388
     30  CG       -12.6460    2.6870  -22.4330 C.3   131  GLU131      0.1160
     31  CD       -13.3780    3.5210  -21.3960 C.2   131  GLU131      0.3649
     32  OE1      -13.4120    4.7580  -21.5370 O.co2 131  GLU131     -0.2457
     33  OE2      -13.9350    2.9350  -20.4430 O.co2 131  GLU131     -0.2457
     34  N         -8.3580    6.3450  -24.0640 N.3   133  HIS133     -0.1241
     35  CA        -8.3870    7.7290  -23.6080 C.3   133  HIS133      0.1621
     36  C         -7.4760    8.6610  -24.4090 C.2   133  HIS133      0.2264
     37  O         -7.0460    9.6870  -23.8980 O.2   133  HIS133     -0.2867
     38  CB        -8.0820    7.8420  -22.0980 C.3   133  HIS133      0.0745
     39  CG        -9.1590    7.2900  -21.2250 C.ar  133  HIS133      0.0817
     40  ND1      -10.4740    7.6790  -21.3360 N.ar  133  HIS133     -0.2268
     41  CD2       -9.1160    6.3880  -20.2160 C.ar  133  HIS133      0.1154
     42  CE1      -11.1980    7.0320  -20.4420 C.ar  133  HIS133      0.1986
     43  NE2      -10.3970    6.2440  -19.7470 N.ar  133  HIS133     -0.2212
     44  N         -3.4640    2.2440  -19.4870 N.3   177  CYS177     -0.1221
     45  CA        -4.5360    2.2710  -18.4840 C.3   177  CYS177      0.1808
     46  C         -5.1850    0.9030  -18.1630 C.2   177  CYS177      0.2601
     47  O         -5.8270    0.7810  -17.1430 O.2   177  CYS177     -0.2717
     48  CB        -5.5770    3.3430  -18.8230 C.3   177  CYS177      0.0970
     49  SG        -6.5680    3.0510  -20.2870 S.3   177  CYS177     -0.0800
     50  N         -4.9680   -0.1210  -18.9850 N.am  178  ASN178     -0.1960
     51  CA        -5.6100   -1.4280  -18.7810 C.3   178  ASN178      0.1819
     52  C         -4.7060   -2.5040  -18.2240 C.2   178  ASN178      0.2622
     53  O         -5.2110   -3.5060  -17.7440 O.2   178  ASN178     -0.2715
     54  CB        -6.2190   -1.9340  -20.0860 C.3   178  ASN178      0.1195
     55  CG        -7.4340   -1.1550  -20.4790 C.2   178  ASN178      0.2630
     56  OD1       -8.5060   -1.3860  -19.9380 O.2   178  ASN178     -0.2716
     57  ND2       -7.2770   -0.1940  -21.3870 N.am  178  ASN178     -0.0877
     58  N         -3.3850   -2.3160  -18.2880 N.am  179  GLY179     -0.1940
     59  CA        -2.4560   -3.2950  -17.7230 C.3   179  GLY179      0.2014
     60  C         -2.6090   -3.4580  -16.2170 C.2   179  GLY179      0.2639
     61  O         -2.8500   -2.4790  -15.4950 O.2   179  GLY179     -0.2714
     62  N         -2.4820   -4.6960  -15.7460 N.am  180  PHE180     -0.1959
     63  CA        -2.4570   -5.0080  -14.3140 C.3   180  PHE180      0.1771
     64  C         -1.0360   -5.3230  -13.8810 C.2   180  PHE180      0.2620
     65  O         -0.2970   -5.9370  -14.6260 O.2   180  PHE180     -0.2715
     66  CB        -3.3200   -6.2330  -14.0220 C.3   180  PHE180      0.0574
     67  CG        -4.7940   -5.9620  -14.1150 C.ar  180  PHE180     -0.0200
     68  CD1       -5.4440   -6.0430  -15.3350 C.ar  180  PHE180     -0.0042
     69  CD2       -5.5240   -5.6320  -12.9760 C.ar  180  PHE180     -0.0042
     70  CE1       -6.8090   -5.8070  -15.4260 C.ar  180  PHE180     -0.0003
     71  CE2       -6.8920   -5.3890  -13.0560 C.ar  180  PHE180     -0.0003
     72  CZ        -7.5270   -5.4790  -14.2920 C.ar  180  PHE180     -0.0000
     73  N         -0.6700   -4.9430  -12.6620 N.am  181  THR181     -0.1951
     74  CA         0.6040   -5.3580  -12.0850 C.3   181  THR181      0.1897
     75  C          0.3330   -6.6140  -11.2610 C.2   181  THR181      0.2313
     76  O         -0.6140   -6.6690  -10.5030 O.2   181  THR181     -0.2863
     77  CB         1.2340   -4.2440  -11.2260 C.3   181  THR181      0.1794
     78  OG1        0.2440   -3.7100  -10.3420 O.3   181  THR181     -0.2208
     79  CG2        1.6710   -3.1220  -12.0920 C.3   181  THR181      0.0378
     80  N        -10.6760   -6.3200  -16.5820 N.3   199  ALA199     -0.1245
     81  CA       -10.7850   -4.8920  -16.9460 C.3   199  ALA199      0.1562
     82  C        -12.2290   -4.3810  -17.1610 C.2   199  ALA199      0.2260
     83  O        -12.4610   -3.1700  -17.2610 O.2   199  ALA199     -0.2867
     84  CB        -9.9240   -4.5960  -18.1660 C.3   199  ALA199      0.0290
     85  N        -16.1550   -2.1430  -13.0490 N.3   202  ASN202     -0.1225
     86  CA       -16.1130   -0.7450  -12.6800 C.3   202  ASN202      0.1785
     87  C        -15.5090   -0.5720  -11.2900 C.2   202  ASN202      0.2597
     88  O        -15.2880   -1.5380  -10.5590 O.2   202  ASN202     -0.2718
     89  CB       -17.4990   -0.0770  -12.8070 C.3   202  ASN202      0.1169
     90  CG       -17.8710    0.2180  -14.2660 C.2   202  ASN202      0.2627
     91  OD1      -17.0380    0.6670  -15.0640 O.2   202  ASN202     -0.2716
     92  ND2      -19.1100   -0.0500  -14.6210 N.am  202  ASN202     -0.0877
     93  N        -15.2210    0.6850  -10.9740 N.am  203  HIS203     -0.1975
     94  CA       -14.5490    1.0940   -9.7560 C.3   203  HIS203      0.1656
     95  C        -15.5340    1.5530   -8.6880 C.2   203  HIS203      0.2291
     96  O        -16.4880    2.2700   -8.9970 O.2   203  HIS203     -0.2864
     97  CB       -13.5730    2.2390  -10.0270 C.3   203  HIS203      0.0771
     98  CG       -13.1220    2.9190   -8.7770 C.ar  203  HIS203      0.0820
     99  ND1      -12.0810    2.4410   -8.0300 N.ar  203  HIS203     -0.2267
    100  CD2      -13.6560    3.9450   -8.0680 C.ar  203  HIS203      0.1154
    101  CE1      -11.9440    3.1750   -6.9420 C.ar  203  HIS203      0.1986
    102  NE2      -12.9060    4.0830   -6.9300 N.ar  203  HIS203     -0.2212
    103  N        -14.5840   -3.4800   -8.3490 N.3   234  THR234     -0.1203
    104  CA       -13.2010   -3.5850   -7.9070 C.3   234  THR234      0.1994
    105  C        -12.7350   -2.1590   -7.5430 C.2   234  THR234      0.2619
    106  O        -13.4880   -1.2010   -7.7470 O.2   234  THR234     -0.2717
    107  CB       -12.3380   -4.2340   -9.0050 C.3   234  THR234      0.1784
    108  OG1      -11.0600   -4.6150   -8.4860 O.3   234  THR234     -0.2211
    109  CG2      -12.1270   -3.3090  -10.2030 C.3   234  THR234      0.0376
    110  N        -11.5520   -2.0220   -6.9380 N.am  235  SER235     -0.1937
    111  CA       -10.9180   -0.7120   -6.7880 C.3   235  SER235      0.2055
    112  C         -9.7380   -0.5650   -7.7460 C.2   235  SER235      0.2643
    113  O         -8.9260   -1.4590   -7.8720 O.2   235  SER235     -0.2714
    114  CB       -10.4280   -0.4430   -5.3520 C.3   235  SER235      0.2130
    115  OG        -9.7500    0.8250   -5.3350 O.3   235  SER235     -0.2179
    116  N         -9.6360    0.5900   -8.3880 N.am  236  TYR236     -0.1973
    117  CA        -8.5770    0.8850   -9.3120 C.3   236  TYR236      0.1639
    118  C         -7.4530    1.5930   -8.5810 C.2   236  TYR236      0.2290
    119  O         -6.3570    1.6990   -9.1480 O.2   236  TYR236     -0.2864
    120  CB        -9.0290    1.8530  -10.4200 C.3   236  TYR236      0.0560
    121  CG       -10.1140    1.4040  -11.3700 C.ar  236  TYR236     -0.0198
    122  CD1      -10.6480    0.1240  -11.3370 C.ar  236  TYR236     -0.0009
    123  CD2      -10.5920    2.2900  -12.3480 C.ar  236  TYR236     -0.0009
    124  CE1      -11.6510   -0.2480  -12.2320 C.ar  236  TYR236      0.0417
    125  CE2      -11.5750    1.9230  -13.2450 C.ar  236  TYR236      0.0417
    126  CZ       -12.1130    0.6520  -13.1720 C.ar  236  TYR236      0.1957
    127  OH       -13.0760    0.2750  -14.0660 O.3   236  TYR236     -0.2866
    128  N         -7.5480    7.6430  -15.4200 N.3   254  TYR254     -0.1241
    129  CA        -8.7800    7.1830  -16.0830 C.3   254  TYR254      0.1605
    130  C         -9.7590    8.3110  -16.4250 C.2   254  TYR254      0.2264
    131  O        -10.7830    8.0450  -17.0270 O.2   254  TYR254     -0.2867
    132  CB        -9.4910    6.1280  -15.2190 C.3   254  TYR254      0.0534
    133  CG        -8.5140    5.1270  -14.6610 C.ar  254  TYR254     -0.0201
    134  CD1       -7.9120    4.1770  -15.4880 C.ar  254  TYR254     -0.0009
    135  CD2       -8.1130    5.1920  -13.3320 C.ar  254  TYR254     -0.0009
    136  CE1       -6.9570    3.3020  -14.9900 C.ar  254  TYR254      0.0417
    137  CE2       -7.1610    4.3160  -12.8240 C.ar  254  TYR254      0.0417
    138  CZ        -6.5980    3.3720  -13.6360 C.ar  254  TYR254      0.1957
    139  OH        -5.6570    2.5010  -13.1110 O.3   254  TYR254     -0.2866
    140  N        -11.9200   10.0890  -14.8370 N.3   256  PHE256     -0.1227
    141  CA       -13.2350   10.1380  -14.2270 C.3   256  PHE256      0.1736
    142  C        -13.0920   10.3340  -12.7390 C.2   256  PHE256      0.2596
    143  O        -12.0210   10.1510  -12.1780 O.2   256  PHE256     -0.2718
    144  CB       -14.0720    8.8720  -14.5350 C.3   256  PHE256      0.0547
    145  CG       -13.6700    7.6420  -13.7490 C.ar  256  PHE256     -0.0202
    146  CD1      -12.7000    6.7690  -14.2430 C.ar  256  PHE256     -0.0042
    147  CD2      -14.2770    7.3350  -12.5240 C.ar  256  PHE256     -0.0042
    148  CE1      -12.3630    5.6020  -13.5350 C.ar  256  PHE256     -0.0003
    149  CE2      -13.9220    6.1930  -11.8130 C.ar  256  PHE256     -0.0003
    150  CZ       -12.9700    5.3300  -12.3280 C.ar  256  PHE256     -0.0000
    151  N        -14.1920   10.7320  -12.1130 N.am  257  THR257     -0.1939
    152  CA       -14.2700   10.8960  -10.6620 C.3   257  THR257      0.2028
    153  C        -15.3130    9.9250  -10.1170 C.2   257  THR257      0.2642
    154  O        -16.2850    9.5950  -10.8010 O.2   257  THR257     -0.2714
    155  CB       -14.6460   12.3440  -10.2870 C.3   257  THR257      0.1808
    156  OG1      -15.8540   12.6900  -10.9530 O.3   257  THR257     -0.2208
    157  CG2      -13.5720   13.3170  -10.7320 C.3   257  THR257      0.0379
    158  N        -15.1130    9.4810   -8.8840 N.am  258  CYS258     -0.1953
    159  CA       -15.9440    8.4420   -8.2820 C.3   258  CYS258      0.1843
    160  C        -17.1830    9.0390   -7.6270 C.2   258  CYS258      0.2625
    161  O        -17.1520   10.1520   -7.1530 O.2   258  CYS258     -0.2714
    162  CB       -15.1620    7.6510   -7.2380 C.3   258  CYS258      0.0997
    163  SG       -16.0650    6.1990   -6.6280 S.3   258  CYS258     -0.0797
    164  N        -18.2470    8.2480   -7.5880 N.am  259  GLU259     -0.1977
    165  CA       -19.5410    8.6370   -7.0150 C.3   259  GLU259      0.1602
    166  C        -20.0150    7.6840   -5.9380 C.2   259  GLU259      0.2287
    167  O        -21.1600    7.7970   -5.4800 O.2   259  GLU259     -0.2864
    168  CB       -20.6100    8.7890   -8.1290 C.3   259  GLU259      0.0415
    169  CG       -20.9190    7.5320   -8.9590 C.3   259  GLU259      0.1163
    170  CD       -19.7160    7.0240   -9.7660 C.2   259  GLU259      0.3649
    171  OE1      -18.9900    6.1350   -9.2660 O.co2 259  GLU259     -0.2457
    172  OE2      -19.4420    7.5510  -10.8500 O.co2 259  GLU259     -0.2457
@<TRIPOS>BOND
     1    36    37    2
     2    36    35    1
     3    24    22    1
     4    34    35    1
     5    27    26    1
     6    27    28    2
     7    26    25    1
     8    26    29    1
     9    35    38    1
    10    22    23    1
    11    22    21    2
    12    29    30    1
    13    30    31    1
    14    38    39    1
    15    20    21    1
    16    20    19    1
    17    32    31   ar
    18    31    33   ar
    19    57    55   am
    20    40    39   ar
    21    40    42   ar
    22    39    41   ar
    23    19    18    1
    24    18    15    1
    25    55    54    1
    26    55    56    2
    27    42    43   ar
    28    49    48    1
    29    41    43   ar
    30    54    51    1
    31    44    45    1
    32    14    15    1
    33    15    16    1
    34    50    51    1
    35    50    46   am
    36    48    45    1
    37    51    52    1
    38    45    46    1
    39    58    52   am
    40    58    59    1
    41    52    53    2
    42    84    81    1
    43    46    47    2
    44    16    17    2
    45    59    60    1
    46    83    82    2
    47    82    81    1
    48     8     7    2
    49   131   130    2
    50    81    80    1
    51     7     6    1
    52   130   129    1
    53    60    62   am
    54    60    61    2
    55   129   128    1
    56   129   132    1
    57    62    63    1
    58   134   136   ar
    59   134   133   ar
    60     1     2    1
    61     5     6    1
    62     5     3   am
    63    70    68   ar
    64    70    72   ar
    65     6     9    1
    66    68    67   ar
    67   132   133    1
    68     3     2    1
    69     3     4    2
    70    91    90    2
    71   136   138   ar
    72   140   141    1
    73   133   135   ar
    74    65    64    2
    75    92    90   am
    76   144   141    1
    77   144   145    1
    78    63    66    1
    79    63    64    1
    80    72    71   ar
    81    90    89    1
    82     9    10    1
    83   146   145   ar
    84   146   148   ar
    85   141   142    1
    86    67    66    1
    87    67    69   ar
    88   127   126    1
    89    64    73   am
    90   145   147   ar
    91   138   139    1
    92   138   137   ar
    93   148   150   ar
    94   135   137   ar
    95   125   126   ar
    96   125   123   ar
    97   126   124   ar
    98    71    69   ar
    99    85    86    1
   100    10    11    1
   101    89    86    1
   102   142   143    2
   103   142   151   am
   104    86    87    1
   105    73    74    1
   106   147   149   ar
   107   123   121   ar
   108   150   149   ar
   109   124   122   ar
   110   151   152    1
   111    79    77    1
   112    74    75    1
   113    74    77    1
   114    11    12    1
   115   121   122   ar
   116   121   120    1
   117    87    93   am
   118    87    88    2
   119    75    76    2
   120    77    78    1
   121    93    94    1
   122   156   155    1
   123   172   170   ar
   124   154   153    2
   125   157   155    1
   126   152   155    1
   127   152   153    1
   128    12    13    1
   129   120   117    1
   130   109   107    1
   131   153   158   am
   132    97    94    1
   133    97    98    1
   134   170   171   ar
   135   170   169    1
   136    94    95    1
   137   117   118    1
   138   117   116    1
   139   119   118    2
   140   107   108    1
   141   107   104    1
   142    96    95    2
   143   169   168    1
   144   158   159    1
   145    98   100   ar
   146    98    99   ar
   147   116   112   am
   148   103   104    1
   149   159   160    1
   150   159   162    1
   151   168   165    1
   152   100   102   ar
   153    99   101   ar
   154   104   105    1
   155   113   112    2
   156   106   105    2
   157   112   111    1
   158   160   164   am
   159   160   161    2
   160   164   165    1
   161   105   110   am
   162   162   163    1
   163   165   166    1
   164   101   102   ar
   165   110   111    1
   166   111   114    1
   167   166   167    2
   168   114   115    1
