@<TRIPOS>MOLECULE
tmp/6cc0A00.pdb
 216 210 0 0 0
SMALL
GASTEIGER

@<TRIPOS>ATOM
      1  N        -79.8170   -3.0760   12.5840 N.3    35  SER35      -0.1217
      2  CA       -79.1220   -3.7420   13.6800 C.3    35  SER35       0.1889
      3  C        -77.7050   -3.1910   13.7500 C.2    35  SER35       0.2288
      4  O        -77.0800   -2.9140   12.7220 O.2    35  SER35      -0.2866
      5  CB       -79.1230   -5.2870   13.5620 C.3    35  SER35       0.2089
      6  OG       -78.3270   -5.8100   12.5080 O.3    35  SER35      -0.2183
      7  N        -74.1030   -3.9700   16.2210 N.3    37  GLY37      -0.1210
      8  CA       -73.6250   -4.8430   17.2740 C.3    37  GLY37       0.1956
      9  C        -72.1340   -5.0510   17.1860 C.2    37  GLY37       0.2612
     10  O        -71.4690   -4.5830   16.2610 O.2    37  GLY37      -0.2717
     11  N        -71.6130   -5.7610   18.1790 N.am   38  ALA38      -0.1965
     12  CA       -70.2070   -6.1220   18.1930 C.3    38  ALA38       0.1728
     13  C        -70.0490   -7.5730   18.6420 C.2    38  ALA38       0.2616
     14  O        -70.8940   -8.1220   19.3550 O.2    38  ALA38      -0.2715
     15  CB       -69.4140   -5.1700   19.0950 C.3    38  ALA38       0.0334
     16  N        -68.9570   -8.1950   18.2110 N.am   39  ARG39      -0.1977
     17  CA       -68.5830   -9.5200   18.6790 C.3    39  ARG39       0.1597
     18  C        -67.3950   -9.3770   19.6080 C.2    39  ARG39       0.2287
     19  O        -66.3360   -8.8880   19.1980 O.2    39  ARG39      -0.2864
     20  CB       -68.2410  -10.4470   17.5220 C.3    39  ARG39       0.0334
     21  CG       -67.9160  -11.8670   17.9500 C.3    39  ARG39       0.0492
     22  CD       -67.5060  -12.6860   16.7520 C.3    39  ARG39       0.2205
     23  NE       -66.4960  -13.6840   17.0770 N.pl3  39  ARG39      -0.0865
     24  CZ       -65.1870  -13.4570   17.0550 C.cat  39  ARG39       0.5346
     25  NH1      -64.7090  -12.2660   16.7300 N.pl3  39  ARG39       0.1354
     26  NH2      -64.3530  -14.4300   17.3670 N.pl3  39  ARG39       0.1354
     27  N        -71.9920  -12.1580   21.4080 N.3    49  TYR49      -0.1241
     28  CA       -72.4300  -11.0120   20.6240 C.3    49  TYR49       0.1605
     29  C        -73.2920  -10.0860   21.4750 C.2    49  TYR49       0.2264
     30  O        -74.0410  -10.5360   22.3450 O.2    49  TYR49      -0.2867
     31  CB       -73.2160  -11.4600   19.3860 C.3    49  TYR49       0.0534
     32  CG       -72.4040  -12.2480   18.3810 C.ar   49  TYR49      -0.0201
     33  CD1      -72.0070  -13.5520   18.6480 C.ar   49  TYR49      -0.0009
     34  CD2      -72.0500  -11.6910   17.1570 C.ar   49  TYR49      -0.0009
     35  CE1      -71.2720  -14.2780   17.7290 C.ar   49  TYR49       0.0417
     36  CE2      -71.3110  -12.4090   16.2220 C.ar   49  TYR49       0.0417
     37  CZ       -70.9200  -13.7070   16.5150 C.ar   49  TYR49       0.1957
     38  OH       -70.1850  -14.4450   15.6030 O.3    49  TYR49      -0.2866
     39  N        -75.7610   -6.8180   20.5020 N.3    51  PHE51      -0.1241
     40  CA       -76.3130   -6.0170   19.4250 C.3    51  PHE51       0.1605
     41  C        -77.6620   -5.4040   19.8050 C.2    51  PHE51       0.2264
     42  O        -78.3330   -5.8290   20.7520 O.2    51  PHE51      -0.2867
     43  CB       -76.4600   -6.8560   18.1460 C.3    51  PHE51       0.0534
     44  CG       -77.4370   -8.0050   18.2610 C.ar   51  PHE51      -0.0203
     45  CD1      -77.0780   -9.1840   18.8920 C.ar   51  PHE51      -0.0042
     46  CD2      -78.6950   -7.9210   17.6850 C.ar   51  PHE51      -0.0042
     47  CE1      -77.9650  -10.2410   18.9760 C.ar   51  PHE51      -0.0003
     48  CE2      -79.5840   -8.9760   17.7640 C.ar   51  PHE51      -0.0003
     49  CZ       -79.2200  -10.1390   18.4120 C.ar   51  PHE51      -0.0000
     50  N        -86.0790   -5.0020   14.9000 N.3    55  TYR55      -0.1241
     51  CA       -86.8130   -6.1140   14.3060 C.3    55  TYR55       0.1605
     52  C        -88.0490   -6.4510   15.1320 C.2    55  TYR55       0.2264
     53  O        -88.0840   -6.1710   16.3380 O.2    55  TYR55      -0.2867
     54  CB       -85.9170   -7.3520   14.1960 C.3    55  TYR55       0.0534
     55  CG       -84.8070   -7.2440   13.1780 C.ar   55  TYR55      -0.0201
     56  CD1      -84.9260   -6.4080   12.0850 C.ar   55  TYR55      -0.0009
     57  CD2      -83.6420   -7.9860   13.3050 C.ar   55  TYR55      -0.0009
     58  CE1      -83.9200   -6.3140   11.1480 C.ar   55  TYR55       0.0417
     59  CE2      -82.6200   -7.8950   12.3630 C.ar   55  TYR55       0.0417
     60  CZ       -82.7710   -7.0530   11.2850 C.ar   55  TYR55       0.1957
     61  OH       -81.7820   -6.9310   10.3280 O.3    55  TYR55      -0.2866
     62  N        -89.1340  -11.8140   16.1100 N.3    59  TRP59      -0.1241
     63  CA       -87.8810  -12.1350   15.4430 C.3    59  TRP59       0.1605
     64  C        -86.6710  -11.9690   16.3490 C.2    59  TRP59       0.2264
     65  O        -85.6760  -12.6780   16.1710 O.2    59  TRP59      -0.2867
     66  CB       -87.6970  -11.2580   14.2020 C.3    59  TRP59       0.0550
     67  CG       -86.4340  -11.5730   13.4840 C.ar   59  TRP59       0.0003
     68  CD1      -85.3860  -10.7300   13.2480 C.ar   59  TRP59       0.0946
     69  CD2      -86.0560  -12.8450   12.9510 C.ar   59  TRP59       0.0152
     70  NE1      -84.3910  -11.3920   12.5750 N.ar   59  TRP59      -0.2442
     71  CE2      -84.7780  -12.6940   12.3830 C.ar   59  TRP59       0.0810
     72  CE3      -86.6800  -14.0990   12.8910 C.ar   59  TRP59       0.0012
     73  CZ2      -84.1130  -13.7450   11.7660 C.ar   59  TRP59       0.0191
     74  CZ3      -86.0230  -15.1340   12.2770 C.ar   59  TRP59       0.0001
     75  CH2      -84.7530  -14.9530   11.7190 C.ar   59  TRP59       0.0015
     76  N        -84.2530  -15.0560   17.0030 N.3    63  TYR63      -0.1241
     77  CA       -82.8400  -14.9470   16.6650 C.3    63  TYR63       0.1605
     78  C        -81.9600  -15.3720   17.8250 C.2    63  TYR63       0.2264
     79  O        -80.8620  -15.9110   17.6190 O.2    63  TYR63      -0.2867
     80  CB       -82.5280  -13.5060   16.2840 C.3    63  TYR63       0.0534
     81  CG       -81.2750  -13.3120   15.4860 C.ar   63  TYR63      -0.0201
     82  CD1      -80.0440  -13.2260   16.1070 C.ar   63  TYR63      -0.0009
     83  CD2      -81.3280  -13.1680   14.1100 C.ar   63  TYR63      -0.0009
     84  CE1      -78.8980  -13.0380   15.3780 C.ar   63  TYR63       0.0417
     85  CE2      -80.1880  -12.9740   13.3710 C.ar   63  TYR63       0.0417
     86  CZ       -78.9740  -12.9160   14.0110 C.ar   63  TYR63       0.1957
     87  OH       -77.8380  -12.7300   13.2790 O.3    63  TYR63      -0.2866
     88  N        -76.9440  -16.0870   15.3780 N.3    69  THR69      -0.1218
     89  CA       -75.6360  -15.5000   15.1150 C.3    69  THR69       0.1862
     90  C        -74.6500  -16.5250   14.5690 C.2    69  THR69       0.2287
     91  O        -73.6410  -16.1440   13.9680 O.2    69  THR69      -0.2866
     92  CB       -75.0500  -14.8650   16.3880 C.3    69  THR69       0.1770
     93  OG1      -75.1600  -15.7730   17.4960 O.3    69  THR69      -0.2211
     94  CG2      -75.7520  -13.5670   16.7320 C.3    69  THR69       0.0375
     95  N        -76.1490  -16.9970   10.5840 N.3    72  ASP72      -0.1239
     96  CA       -76.5070  -15.8130    9.8130 C.3    72  ASP72       0.1674
     97  C        -75.3890  -15.4350    8.8450 C.2    72  ASP72       0.2266
     98  O        -74.3210  -14.9870    9.2670 O.2    72  ASP72      -0.2867
     99  CB       -76.8240  -14.6610   10.7590 C.3    72  ASP72       0.1410
    100  CG       -77.2120  -13.4020   10.0370 C.2    72  ASP72       0.3668
    101  OD1      -77.1440  -13.3400    8.8010 O.co2  72  ASP72      -0.2456
    102  OD2      -77.5750  -12.4470   10.7220 O.co2  72  ASP72      -0.2456
    103  N        -74.9260  -12.9750    6.9820 N.3    74  ILE74      -0.1231
    104  CA       -74.5590  -11.5660    7.0500 C.3    74  ILE74       0.1692
    105  C        -73.5100  -11.3440    8.1400 C.2    74  ILE74       0.2591
    106  O        -72.4700  -10.7140    7.9080 O.2    74  ILE74      -0.2718
    107  CB       -75.8280  -10.7210    7.2630 C.3    74  ILE74       0.0266
    108  CG1      -76.9190  -11.1820    6.2810 C.3    74  ILE74       0.0019
    109  CG2      -75.5470   -9.2400    7.0690 C.3    74  ILE74       0.0020
    110  CD1      -76.4850  -11.1560    4.8250 C.3    74  ILE74       0.0001
    111  N        -73.7540  -11.9010    9.3310 N.am   75  VAL75      -0.1980
    112  CA       -72.7290  -12.0020   10.3730 C.3    75  VAL75       0.1595
    113  C        -71.4850  -12.7210    9.8520 C.2    75  VAL75       0.2287
    114  O        -70.3600  -12.2320    9.9940 O.2    75  VAL75      -0.2864
    115  CB       -73.3030  -12.7180   11.6120 C.3    75  VAL75       0.0276
    116  CG1      -72.2190  -13.0340   12.5940 C.3    75  VAL75       0.0022
    117  CG2      -74.3650  -11.8780   12.2670 C.3    75  VAL75       0.0022
    118  N        -69.3440  -10.6170    7.7140 N.3    78  GLY78      -0.1210
    119  CA       -68.5740   -9.6080    8.4310 C.3    78  GLY78       0.1956
    120  C        -67.3440  -10.1550    9.1430 C.2    78  GLY78       0.2611
    121  O        -66.2950   -9.5070    9.1720 O.2    78  GLY78      -0.2717
    122  N        -67.4500  -11.3470    9.7290 N.am   79  LEU79      -0.1979
    123  CA       -66.3000  -11.9100   10.4300 C.3    79  LEU79       0.1596
    124  C        -65.1710  -12.2640    9.4680 C.2    79  LEU79       0.2287
    125  O        -63.9910  -12.0550    9.7830 O.2    79  LEU79      -0.2864
    126  CB       -66.7150  -13.1500   11.2150 C.3    79  LEU79       0.0297
    127  CG       -67.5870  -12.9000   12.4290 C.3    79  LEU79       0.0022
    128  CD1      -67.9340  -14.2290   13.0920 C.3    79  LEU79       0.0001
    129  CD2      -66.8790  -11.9410   13.3910 C.3    79  LEU79       0.0001
    130  N        -77.3140   -7.0390    0.2820 N.3    87  TRP87      -0.1241
    131  CA       -77.9130   -8.3570    0.2030 C.3    87  TRP87       0.1605
    132  C        -79.4170   -8.2900    0.0290 C.2    87  TRP87       0.2264
    133  O        -80.0710   -7.2800    0.3090 O.2    87  TRP87      -0.2867
    134  CB       -77.5850   -9.2010    1.4270 C.3    87  TRP87       0.0550
    135  CG       -77.7760   -8.5250    2.7380 C.ar   87  TRP87       0.0003
    136  CD1      -76.8730   -7.7230    3.3900 C.ar   87  TRP87       0.0946
    137  CD2      -78.9160   -8.6230    3.5880 C.ar   87  TRP87       0.0152
    138  NE1      -77.3900   -7.3180    4.5900 N.ar   87  TRP87      -0.2442
    139  CE2      -78.6450   -7.8530    4.7380 C.ar   87  TRP87       0.0810
    140  CE3      -80.1380   -9.2920    3.4950 C.ar   87  TRP87       0.0012
    141  CZ2      -79.5610   -7.7270    5.7910 C.ar   87  TRP87       0.0191
    142  CZ3      -81.0420   -9.1730    4.5400 C.ar   87  TRP87       0.0001
    143  CH2      -80.7490   -8.3900    5.6700 C.ar   87  TRP87       0.0015
    144  N        -83.9300  -20.3230    8.0260 N.3    98  PHE98      -0.1227
    145  CA       -83.5640  -19.0150    8.5630 C.3    98  PHE98       0.1736
    146  C        -84.1440  -17.8850    7.7190 C.2    98  PHE98       0.2595
    147  O        -84.8250  -16.9920    8.2370 O.2    98  PHE98      -0.2718
    148  CB       -82.0390  -18.9210    8.6360 C.3    98  PHE98       0.0547
    149  CG       -81.5230  -17.5500    8.9680 C.ar   98  PHE98      -0.0202
    150  CD1      -81.5750  -17.0690   10.2690 C.ar   98  PHE98      -0.0042
    151  CD2      -80.9630  -16.7440    7.9820 C.ar   98  PHE98      -0.0042
    152  CE1      -81.0890  -15.8010   10.5820 C.ar   98  PHE98      -0.0003
    153  CE2      -80.4820  -15.4820    8.2930 C.ar   98  PHE98      -0.0003
    154  CZ       -80.5470  -15.0120    9.5950 C.ar   98  PHE98      -0.0000
    155  N        -83.9130  -17.9320    6.4030 N.am   99  TRP99      -0.1976
    156  CA       -84.3570  -16.8480    5.5320 C.3    99  TRP99       0.1640
    157  C        -85.8720  -16.8260    5.3390 C.2    99  TRP99       0.2290
    158  O        -86.4570  -15.7460    5.2090 O.2    99  TRP99      -0.2864
    159  CB       -83.6380  -16.9280    4.1890 C.3    99  TRP99       0.0576
    160  CG       -82.2610  -16.3910    4.3020 C.ar   99  TRP99       0.0006
    161  CD1      -81.0940  -17.0970    4.2280 C.ar   99  TRP99       0.0946
    162  CD2      -81.8950  -15.0330    4.5800 C.ar   99  TRP99       0.0152
    163  NE1      -80.0250  -16.2560    4.4130 N.ar   99  TRP99      -0.2442
    164  CE2      -80.4900  -14.9850    4.6340 C.ar   99  TRP99       0.0810
    165  CE3      -82.6200  -13.8530    4.7740 C.ar   99  TRP99       0.0012
    166  CZ2      -79.7930  -13.8020    4.8720 C.ar   99  TRP99       0.0191
    167  CZ3      -81.9270  -12.6800    5.0060 C.ar   99  TRP99       0.0001
    168  CH2      -80.5270  -12.6630    5.0500 C.ar   99  TRP99       0.0015
    169  N        -86.9650  -14.9720    8.3860 N.3   102  ALA102     -0.1245
    170  CA       -86.5850  -13.5640    8.3840 C.3   102  ALA102      0.1562
    171  C        -87.3100  -12.8140    7.2810 C.2   102  ALA102      0.2260
    172  O        -87.7560  -11.6800    7.4850 O.2   102  ALA102     -0.2867
    173  CB       -85.0700  -13.4100    8.2430 C.3   102  ALA102      0.0290
    174  N        -87.3470   -8.6770    6.6120 N.3   107  ILE107     -0.1245
    175  CA       -85.9000   -8.4070    6.6800 C.3   107  ILE107      0.1561
    176  C        -85.3210   -8.9430    5.3730 C.2   107  ILE107      0.2260
    177  O        -84.8100  -10.0630    5.2800 O.2   107  ILE107     -0.2867
    178  CB       -85.2650   -9.0240    7.9350 C.3   107  ILE107      0.0252
    179  CG1      -86.0250   -8.5580    9.1860 C.3   107  ILE107      0.0019
    180  CG2      -83.7910   -8.6610    8.0420 C.3   107  ILE107      0.0019
    181  CD1      -86.1150   -9.5820   10.2640 C.3   107  ILE107      0.0001
    182  N        -69.1470   -4.0210    7.9750 N.3   114  PRO114     -0.2116
    183  CA       -68.3410   -4.4740    9.1170 C.3   114  PRO114      0.1372
    184  C        -67.1130   -3.6030    9.3510 C.2   114  PRO114      0.2244
    185  O        -66.4630   -3.1590    8.4020 O.2   114  PRO114     -0.2868
    186  CB       -67.9460   -5.8960    8.7120 C.3   114  PRO114      0.0268
    187  CG       -67.7970   -5.7890    7.2000 C.3   114  PRO114      0.0207
    188  CD       -68.7450   -4.7020    6.7250 C.3   114  PRO114      0.0892
    189  N        -65.2310   -6.5930   16.7520 N.3   122  ILE122     -0.1231
    190  CA       -65.6640   -6.5490   15.3610 C.3   122  ILE122      0.1692
    191  C        -67.1250   -6.1530   15.4080 C.2   122  ILE122      0.2593
    192  O        -67.9030   -6.7620   16.1490 O.2   122  ILE122     -0.2718
    193  CB       -65.4790   -7.8960   14.6220 C.3   122  ILE122      0.0266
    194  CG1      -64.0580   -8.4470   14.8330 C.3   122  ILE122      0.0019
    195  CG2      -65.7190   -7.7400   13.1340 C.3   122  ILE122      0.0020
    196  CD1      -63.8920   -9.9190   14.4580 C.3   122  ILE122      0.0001
    197  N        -67.4830   -5.1090   14.6620 N.am  123  SER123     -0.1938
    198  CA       -68.8050   -4.5020   14.7290 C.3   123  SER123      0.2055
    199  C        -69.4530   -4.5320   13.3480 C.2   123  SER123      0.2642
    200  O        -68.7900   -4.7610   12.3340 O.2   123  SER123     -0.2714
    201  CB       -68.7170   -3.0620   15.2730 C.3   123  SER123      0.2130
    202  OG       -68.0430   -3.0090   16.5300 O.3   123  SER123     -0.2179
    203  N        -70.7660   -4.3100   13.3090 N.am  124  MET124     -0.1976
    204  CA       -71.4760   -4.2910   12.0320 C.3   124  MET124      0.1605
    205  C        -72.7670   -3.5020   12.1580 C.2   124  MET124      0.2287
    206  O        -73.6010   -3.8100   13.0200 O.2   124  MET124     -0.2864
    207  CB       -71.7780   -5.7150   11.5390 C.3   124  MET124      0.0413
    208  CG       -72.4540   -5.7740   10.1760 C.3   124  MET124      0.0598
    209  SD       -72.4550   -7.4300    9.4600 S.3   124  MET124     -0.1393
    210  CE       -73.6750   -8.2660   10.4830 C.3   124  MET124      0.0692
    211  N        -76.1770   -2.8810   10.0350 N.3   126  SER126     -0.1217
    212  CA       -77.0370   -3.3700    8.9740 C.3   126  SER126      0.1889
    213  C        -78.2880   -2.5120    8.9450 C.2   126  SER126      0.2288
    214  O        -78.8590   -2.2150    9.9960 O.2   126  SER126     -0.2866
    215  CB       -77.4180   -4.8410    9.1810 C.3   126  SER126      0.2089
    216  OG       -76.2610   -5.6360    9.3020 O.3   126  SER126     -0.2183
@<TRIPOS>BOND
     1   132   131    1
     2   132   133    2
     3   131   130    1
     4   131   134    1
     5   134   135    1
     6   135   136   ar
     7   135   137   ar
     8   136   138   ar
     9   140   137   ar
    10   140   142   ar
    11   137   139   ar
    12   159   160    1
    13   159   156    1
    14   161   160   ar
    15   161   163   ar
    16   160   162   ar
    17   163   164   ar
    18   142   143   ar
    19   162   164   ar
    20   162   165   ar
    21   138   139   ar
    22   164   166   ar
    23   139   141   ar
    24   165   167   ar
    25   110   108    1
    26   166   168   ar
    27   167   168   ar
    28   158   157    2
    29   177   176    2
    30   157   156    1
    31   176   175    1
    32   156   155    1
    33   143   141   ar
    34   108   107    1
    35   155   146   am
    36   174   175    1
    37   175   178    1
    38   188   187    1
    39   188   182    1
    40   103   104    1
    41   104   107    1
    42   104   105    1
    43   109   107    1
    44   187   186    1
    45   171   172    2
    46   171   170    1
    47   118   119    1
    48   146   147    2
    49   146   145    1
    50   106   105    2
    51   178   180    1
    52   178   179    1
    53   182   183    1
    54   151   153   ar
    55   151   149   ar
    56   144   145    1
    57   105   111   am
    58   173   170    1
    59   153   154   ar
    60   170   169    1
    61   185   184    2
    62   119   120    1
    63   145   148    1
    64   148   149    1
    65   186   183    1
    66   101   100   ar
    67    97    98    2
    68    97    96    1
    69   213   212    1
    70   213   214    2
    71   149   150   ar
    72   212   215    1
    73   212   211    1
    74   183   184    1
    75   120   121    2
    76   120   122   am
    77   215   216    1
    78   179   181    1
    79   111   112    1
    80   209   208    1
    81   209   210    1
    82   124   125    2
    83   124   123    1
    84   154   152   ar
    85   122   123    1
    86    96    95    1
    87    96    99    1
    88   113   114    2
    89   113   112    1
    90   100   102   ar
    91   100    99    1
    92   208   207    1
    93   150   152   ar
    94    61    60    1
    95   112   115    1
    96   123   126    1
    97    58    60   ar
    98    58    56   ar
    99   126   127    1
   100    60    59   ar
   101   207   204    1
   102   115   117    1
   103   115   116    1
   104    75    73   ar
   105    75    74   ar
   106    73    71   ar
   107   204   205    1
   108   204   203    1
   109    56    55   ar
   110   205   206    2
   111    74    72   ar
   112   200   199    2
   113    59    57   ar
   114    71    70   ar
   115    71    69   ar
   116   127   128    1
   117   127   129    1
   118     6     5    1
   119    70    68   ar
   120     1     2    1
   121     4     3    2
   122    72    69   ar
   123    69    67   ar
   124   195   193    1
   125    55    57   ar
   126    55    54    1
   127    68    67   ar
   128    87    86    1
   129   203   199   am
   130   199   198    1
   131    85    86   ar
   132    85    83   ar
   133    67    66    1
   134     5     2    1
   135     2     3    1
   136    91    90    2
   137    86    84   ar
   138    83    81   ar
   139    54    51    1
   140    66    63    1
   141    51    50    1
   142    51    52    1
   143   196   194    1
   144    90    89    1
   145   193   194    1
   146   193   190    1
   147   197   198    1
   148   197   191   am
   149   198   201    1
   150    89    88    1
   151    89    92    1
   152    52    53    2
   153   201   202    1
   154   190   191    1
   155   190   189    1
   156    84    82   ar
   157   191   192    2
   158    63    62    1
   159    63    64    1
   160    81    82   ar
   161    81    80    1
   162    38    37    1
   163    65    64    2
   164     7     8    1
   165    36    37   ar
   166    36    34   ar
   167    10     9    2
   168    80    77    1
   169    92    94    1
   170    92    93    1
   171    37    35   ar
   172    77    76    1
   173    77    78    1
   174    25    24    1
   175    22    23    1
   176    22    21    1
   177    24    23    2
   178    24    26    1
   179    34    32   ar
   180     9     8    1
   181     9    11   am
   182    20    21    1
   183    20    17    1
   184    79    78    2
   185    46    48   ar
   186    46    44   ar
   187    35    33   ar
   188    48    49   ar
   189    43    44    1
   190    43    40    1
   191    11    12    1
   192    12    13    1
   193    12    15    1
   194    16    13   am
   195    16    17    1
   196    44    45   ar
   197    32    33   ar
   198    32    31    1
   199    49    47   ar
   200    13    14    2
   201    17    18    1
   202    45    47   ar
   203    19    18    2
   204    31    28    1
   205    40    41    1
   206    40    39    1
   207    41    42    2
   208    28    27    1
   209    28    29    1
   210    29    30    2
