@<TRIPOS>MOLECULE
tmp/6cc2A00.pdb
 67 63 0 0 0
SMALL
GASTEIGER

@<TRIPOS>ATOM
      1  N         23.7280   20.4890  158.9490 N.3   361  ILE361     -0.1231
      2  CA        22.9560   21.1920  159.9770 C.3   361  ILE361      0.1692
      3  C         23.4520   20.8070  161.3640 C.2   361  ILE361      0.2591
      4  O         23.6870   21.6670  162.2230 O.2   361  ILE361     -0.2718
      5  CB        21.4500   20.9060  159.8120 C.3   361  ILE361      0.0266
      6  CG1       20.9410   21.4960  158.4970 C.3   361  ILE361      0.0019
      7  CG2       20.6560   21.4520  160.9860 C.3   361  ILE361      0.0020
      8  CD1       19.5420   21.0350  158.1200 C.3   361  ILE361      0.0001
      9  N         23.6120   19.5060  161.6110 N.am  362  LEU362     -0.1980
     10  CA        23.9460   19.0590  162.9550 C.3   362  LEU362      0.1596
     11  C         25.3420   19.5070  163.3770 C.2   362  LEU362      0.2287
     12  O         25.5490   19.8900  164.5300 O.2   362  LEU362     -0.2864
     13  CB        23.8160   17.5410  163.0570 C.3   362  LEU362      0.0297
     14  CG        22.3860   17.0140  162.9440 C.3   362  LEU362      0.0022
     15  CD1       22.3890   15.4950  162.9130 C.3   362  LEU362      0.0001
     16  CD2       21.5190   17.5230  164.0640 C.3   362  LEU362      0.0001
     17  N         24.6540   23.1940  164.2180 N.3   365  SER365     -0.1202
     18  CA        23.6690   23.5130  165.2400 C.3   365  SER365      0.2020
     19  C         23.5970   22.4890  166.3550 C.2   365  SER365      0.2619
     20  O         23.3170   22.8630  167.4990 O.2   365  SER365     -0.2717
     21  CB        22.2720   23.6380  164.6100 C.3   365  SER365      0.2103
     22  OG        22.2800   24.5250  163.5050 O.3   365  SER365     -0.2182
     23  N         23.8540   21.2220  166.0510 N.am  366  GLY366     -0.1942
     24  CA        23.6300   20.1490  167.0010 C.3   366  GLY366      0.2014
     25  C         24.4840   20.2700  168.2500 C.2   366  GLY366      0.2639
     26  O         25.4320   21.0510  168.3490 O.2   366  GLY366     -0.2714
     27  N         24.1140   19.4610  169.2400 N.am  367  SER367     -0.1949
     28  CA        24.8600   19.3750  170.4940 C.3   367  SER367      0.1924
     29  C         25.8800   18.2450  170.3520 C.2   367  SER367      0.2314
     30  O         25.6910   17.1290  170.8330 O.2   367  SER367     -0.2863
     31  CB        23.9130   19.1330  171.6610 C.3   367  SER367      0.2116
     32  OG        22.7510   19.9350  171.5490 O.3   367  SER367     -0.2180
     33  N         23.6010   14.6740  170.2360 N.3   379  SER379     -0.1202
     34  CA        22.2060   14.3550  170.5070 C.3   379  SER379      0.2020
     35  C         21.3120   15.2950  169.7150 C.2   379  SER379      0.2619
     36  O         21.6110   16.4790  169.5760 O.2   379  SER379     -0.2717
     37  CB        21.8700   14.4250  172.0120 C.3   379  SER379      0.2103
     38  OG        21.9660   15.7060  172.5330 O.3   379  SER379     -0.2182
     39  N         20.2390   14.7380  169.1790 N.am  380  VAL380     -0.1965
     40  CA        19.3080   15.4270  168.3010 C.3   380  VAL380      0.1727
     41  C         17.9360   15.2770  168.9130 C.2   380  VAL380      0.2617
     42  O         17.4580   14.1450  169.0950 O.2   380  VAL380     -0.2715
     43  CB        19.3260   14.8300  166.8770 C.3   380  VAL380      0.0290
     44  CG1       18.3290   15.5580  165.9960 C.3   380  VAL380      0.0023
     45  CG2       20.7210   14.8950  166.2940 C.3   380  VAL380      0.0023
     46  N         17.2980   16.4130  169.2450 N.am  381  SER381     -0.1936
     47  CA        15.9270   16.3720  169.7240 C.3   381  SER381      0.2055
     48  C         15.0760   17.4290  169.0410 C.2   381  SER381      0.2643
     49  O         14.0840   17.8920  169.5890 O.2   381  SER381     -0.2714
     50  CB        15.8580   16.5050  171.2410 C.3   381  SER381      0.2130
     51  OG        16.5060   17.6740  171.6650 O.3   381  SER381     -0.2179
     52  N         15.4840   17.8470  167.8500 N.am  382  ASP382     -0.1971
     53  CA        14.6650   18.7500  167.0310 C.3   382  ASP382      0.1709
     54  C         13.5760   17.9370  166.3420 C.2   382  ASP382      0.2293
     55  O         13.8450   16.8360  165.8470 O.2   382  ASP382     -0.2864
     56  CB        15.5450   19.4790  166.0130 C.3   382  ASP382      0.1436
     57  CG        14.9420   19.5170  164.6210 C.2   382  ASP382      0.3671
     58  OD1       14.8380   18.4500  163.9830 O.co2 382  ASP382     -0.2456
     59  OD2       14.5840   20.6210  164.1580 O.co2 382  ASP382     -0.2456
     60  N         14.1890   16.7410  162.3500 N.3   385  LEU385     -0.1245
     61  CA        15.3130   15.8420  162.1280 C.3   385  LEU385      0.1561
     62  C         15.1280   14.5360  162.8890 C.2   385  LEU385      0.2260
     63  O         15.4760   13.4630  162.3870 O.2   385  LEU385     -0.2867
     64  CB        16.6210   16.5060  162.5460 C.3   385  LEU385      0.0270
     65  CG        17.0480   17.7670  161.8060 C.3   385  LEU385      0.0019
     66  CD1       18.4380   18.1800  162.2800 C.3   385  LEU385      0.0001
     67  CD2       17.0240   17.5720  160.3060 C.3   385  LEU385      0.0001
@<TRIPOS>BOND
     1     8     6    1
     2     6     5    1
     3     1     2    1
     4     5     2    1
     5     5     7    1
     6     2     3    1
     7    67    65    1
     8     3     9   am
     9     3     4    2
    10     9    10    1
    11    65    66    1
    12    65    64    1
    13    61    60    1
    14    61    64    1
    15    61    62    1
    16    63    62    2
    17    15    14    1
    18    14    13    1
    19    14    16    1
    20    10    13    1
    21    10    11    1
    22    11    12    2
    23    22    21    1
    24    58    57   ar
    25    59    57   ar
    26    17    18    1
    27    21    18    1
    28    57    56    1
    29    18    19    1
    30    55    54    2
    31    44    43    1
    32    56    53    1
    33    23    19   am
    34    23    24    1
    35    45    43    1
    36    54    53    1
    37    19    20    2
    38    43    40    1
    39    24    25    1
    40    53    52    1
    41    52    48   am
    42    25    26    2
    43    25    27   am
    44    40    41    1
    45    40    39    1
    46    41    42    2
    47    41    46   am
    48    48    49    2
    49    48    47    1
    50    39    35   am
    51    27    28    1
    52    46    47    1
    53    36    35    2
    54    35    34    1
    55    47    50    1
    56    33    34    1
    57    29    28    1
    58    29    30    2
    59    28    31    1
    60    34    37    1
    61    50    51    1
    62    32    31    1
    63    37    38    1
