@<TRIPOS>MOLECULE
tmp/6cc9B05.pdb
 126 120 0 0 0
SMALL
GASTEIGER

@<TRIPOS>ATOM
      1  N         24.0250    2.7940  -15.2180 N.3     5  LYS5       -0.1231
      2  CA        24.9900    1.7250  -15.3830 C.3     5  LYS5        0.1693
      3  C         25.1300    1.3430  -16.8530 C.2     5  LYS5        0.2592
      4  O         24.2100    0.7730  -17.4530 O.2     5  LYS5       -0.2718
      5  CB        24.5590    0.5070  -14.5650 C.3     5  LYS5        0.0285
      6  CG        25.6070    0.0010  -13.5910 C.3     5  LYS5        0.0035
      7  CD        25.9110    1.0190  -12.5050 C.3     5  LYS5        0.0206
      8  CE        26.7190    0.3910  -11.3830 C.3     5  LYS5        0.1093
      9  NZ        27.0850    1.3770  -10.3330 N.3     5  LYS5       -0.1314
     10  N         26.2820    1.6570  -17.4290 N.am    6  LEU6       -0.1966
     11  CA        26.5490    1.3530  -18.8260 C.3     6  LEU6        0.1728
     12  C         27.4980    0.1640  -18.9240 C.2     6  LEU6        0.2616
     13  O         28.6510    0.2460  -18.5070 O.2     6  LEU6       -0.2715
     14  CB        27.1490    2.5700  -19.5410 C.3     6  LEU6        0.0311
     15  CG        26.4270    3.9130  -19.3540 C.3     6  LEU6        0.0022
     16  CD1       27.0480    4.9800  -20.2420 C.3     6  LEU6        0.0001
     17  CD2       24.9330    3.7860  -19.6160 C.3     6  LEU6        0.0001
     18  N         27.0080   -0.9420  -19.4680 N.am    7  VAL7       -0.1963
     19  CA        27.8070   -2.1510  -19.6030 C.3     7  VAL7        0.1727
     20  C         28.4630   -2.2240  -20.9780 C.2     7  VAL7        0.2616
     21  O         27.7810   -2.3020  -22.0040 O.2     7  VAL7       -0.2715
     22  CB        26.9600   -3.4220  -19.3630 C.3     7  VAL7        0.0290
     23  CG1       27.7920   -4.6840  -19.5530 C.3     7  VAL7        0.0023
     24  CG2       26.3390   -3.4000  -17.9760 C.3     7  VAL7        0.0023
     25  N         29.7840   -2.1590  -20.9980 N.am    8  VAL8       -0.1963
     26  CA        30.5360   -2.2410  -22.2430 C.3     8  VAL8        0.1727
     27  C         31.1960   -3.6080  -22.3300 C.2     8  VAL8        0.2616
     28  O         32.0900   -3.9180  -21.5420 O.2     8  VAL8       -0.2715
     29  CB        31.6410   -1.1610  -22.3210 C.3     8  VAL8        0.0290
     30  CG1       32.1770   -1.0460  -23.7420 C.3     8  VAL8        0.0023
     31  CG2       31.1370    0.1840  -21.8250 C.3     8  VAL8        0.0023
     32  N         30.7440   -4.4310  -23.2640 N.am    9  VAL9       -0.1977
     33  CA        31.3040   -5.7640  -23.4280 C.3     9  VAL9        0.1596
     34  C         32.1080   -5.8560  -24.7140 C.2     9  VAL9        0.2287
     35  O         32.0270   -4.9700  -25.5690 O.2     9  VAL9       -0.2864
     36  CB        30.2220   -6.8640  -23.4170 C.3     9  VAL9        0.0276
     37  CG1       29.5460   -6.9410  -22.0560 C.3     9  VAL9        0.0022
     38  CG2       29.1960   -6.6340  -24.5180 C.3     9  VAL9        0.0022
     39  N         38.9640   -6.5240  -13.2600 N.3    37  GLU37      -0.1245
     40  CA        38.2370   -5.6390  -12.3630 C.3    37  GLU37       0.1567
     41  C         38.8260   -4.2320  -12.3930 C.2    37  GLU37       0.2260
     42  O         39.9950   -4.0300  -12.0610 O.2    37  GLU37      -0.2867
     43  CB        38.2410   -6.1910  -10.9350 C.3    37  GLU37       0.0388
     44  CG        37.5800   -5.2790   -9.9100 C.3    37  GLU37       0.1160
     45  CD        37.4090   -5.9440   -8.5600 C.2    37  GLU37       0.3649
     46  OE1       36.2530   -6.1730   -8.1520 O.co2  37  GLU37      -0.2457
     47  OE2       38.4260   -6.2490   -7.9030 O.co2  37  GLU37      -0.2457
     48  N         29.0360    4.9470  -13.9310 N.3    54  ASP54      -0.1225
     49  CA        29.9210    4.0100  -13.2480 C.3    54  ASP54       0.1805
     50  C         30.0160    2.7360  -14.0720 C.2    54  ASP54       0.2598
     51  O         29.0750    1.9430  -14.1240 O.2    54  ASP54      -0.2718
     52  CB        29.4030    3.6970  -11.8450 C.3    54  ASP54       0.1424
     53  CG        30.2410    2.6660  -11.1050 C.2    54  ASP54       0.3668
     54  OD1       31.4630    2.5870  -11.3450 O.co2  54  ASP54      -0.2456
     55  OD2       29.6750    1.9330  -10.2610 O.co2  54  ASP54      -0.2456
     56  N         31.1470    2.5570  -14.7300 N.am   55  ILE55      -0.1966
     57  CA        31.3590    1.4010  -15.5880 C.3    55  ILE55       0.1727
     58  C         32.4020    0.4590  -15.0000 C.2    55  ILE55       0.2616
     59  O         33.4110    0.8940  -14.4450 O.2    55  ILE55      -0.2715
     60  CB        31.7890    1.8300  -17.0130 C.3    55  ILE55       0.0290
     61  CG1       30.7270    2.7450  -17.6440 C.3    55  ILE55       0.0022
     62  CG2       32.0500    0.6160  -17.9000 C.3    55  ILE55       0.0023
     63  CD1       31.0990    3.2800  -19.0130 C.3    55  ILE55       0.0001
     64  N         32.1360   -0.8360  -15.1090 N.am   56  LEU56      -0.1977
     65  CA        33.0420   -1.8550  -14.6110 C.3    56  LEU56       0.1596
     66  C         33.8000   -2.4770  -15.7780 C.2    56  LEU56       0.2287
     67  O         33.2000   -3.0900  -16.6590 O.2    56  LEU56      -0.2864
     68  CB        32.2680   -2.9380  -13.8490 C.3    56  LEU56       0.0297
     69  CG        33.1130   -4.0200  -13.1650 C.3    56  LEU56       0.0022
     70  CD1       33.8880   -3.4370  -11.9920 C.3    56  LEU56       0.0001
     71  CD2       32.2410   -5.1860  -12.7180 C.3    56  LEU56       0.0001
     72  N         35.4000   -5.1610  -17.2740 N.3    58  THR58      -0.1218
     73  CA        35.5220   -6.6090  -17.1650 C.3    58  THR58       0.1862
     74  C         36.5250   -7.1720  -18.1730 C.2    58  THR58       0.2287
     75  O         37.0480   -6.4410  -19.0140 O.2    58  THR58      -0.2866
     76  CB        34.1540   -7.2610  -17.4120 C.3    58  THR58       0.1770
     77  OG1       33.4280   -6.4660  -18.3630 O.3    58  THR58      -0.2211
     78  CG2       33.3710   -7.3350  -16.1120 C.3    58  THR58       0.0375
     79  N         29.9430  -15.0330  -10.3290 N.3    67  MET67      -0.1245
     80  CA        30.0120  -13.5780  -10.2400 C.3    67  MET67       0.1570
     81  C         29.9930  -12.9230  -11.6170 C.2    67  MET67       0.2261
     82  O         29.5340  -11.7900  -11.7700 O.2    67  MET67      -0.2867
     83  CB        31.2520  -13.1490   -9.4590 C.3    67  MET67       0.0387
     84  CG        31.2360  -11.6940   -9.0240 C.3    67  MET67       0.0595
     85  SD        32.5250  -11.3140   -7.8230 S.3    67  MET67      -0.1393
     86  CE        33.9990  -11.5890   -8.8020 C.3    67  MET67       0.0692
     87  N         26.6160  -12.2220  -12.4030 N.3    70  GLN70      -0.1231
     88  CA        25.9760  -11.5320  -11.2910 C.3    70  GLN70       0.1698
     89  C         26.1010  -10.0200  -11.4130 C.2    70  GLN70       0.2592
     90  O         25.1380   -9.2920  -11.1770 O.2    70  GLN70      -0.2718
     91  CB        26.5580  -11.9920   -9.9550 C.3    70  GLN70       0.0381
     92  CG        25.9820  -13.2980   -9.4330 C.3    70  GLN70       0.0905
     93  CD        26.6200  -13.7470   -8.1280 C.2    70  GLN70       0.2608
     94  OE1       26.7400  -14.9440   -7.8580 O.2    70  GLN70      -0.2717
     95  NE2       27.0300  -12.7930   -7.3010 N.am   70  GLN70      -0.0878
     96  N         27.2780   -9.5410  -11.7930 N.am   71  TYR71      -0.1962
     97  CA        27.4940   -8.1020  -11.9110 C.3    71  TYR71       0.1771
     98  C         27.0000   -7.5210  -13.2370 C.2    71  TYR71       0.2619
     99  O         27.0810   -6.3190  -13.4630 O.2    71  TYR71      -0.2715
    100  CB        28.9490   -7.7030  -11.6170 C.3    71  TYR71       0.0574
    101  CG        30.0150   -8.5010  -12.3440 C.ar   71  TYR71      -0.0198
    102  CD1       29.9420   -8.7260  -13.7130 C.ar   71  TYR71      -0.0009
    103  CD2       31.1040   -9.0210  -11.6550 C.ar   71  TYR71      -0.0009
    104  CE1       30.9190   -9.4480  -14.3720 C.ar   71  TYR71       0.0417
    105  CE2       32.0850   -9.7450  -12.3070 C.ar   71  TYR71       0.0417
    106  CZ        31.9870   -9.9570  -13.6660 C.ar   71  TYR71       0.1957
    107  OH        32.9600  -10.6800  -14.3230 O.3    71  TYR71      -0.2866
    108  N         26.4720   -8.3680  -14.1080 N.am   72  MET72      -0.1977
    109  CA        25.9900   -7.9040  -15.4030 C.3    72  MET72       0.1605
    110  C         24.5200   -7.5000  -15.3440 C.2    72  MET72       0.2287
    111  O         24.0680   -6.6440  -16.1030 O.2    72  MET72      -0.2864
    112  CB        26.2060   -8.9750  -16.4800 C.3    72  MET72       0.0413
    113  CG        25.8430   -8.5220  -17.8870 C.3    72  MET72       0.0598
    114  SD        26.2910   -9.7190  -19.1630 S.3    72  MET72      -0.1393
    115  CE        25.3430  -11.1470  -18.6380 C.3    72  MET72       0.0692
    116  N         22.9880   -5.8500  -13.0210 N.3    74  THR74      -0.1203
    117  CA        22.8340   -4.5010  -12.4950 C.3    74  THR74       0.1994
    118  C         22.9750   -3.4270  -13.5800 C.2    74  THR74       0.2618
    119  O         22.7430   -2.2430  -13.3270 O.2    74  THR74      -0.2717
    120  CB        23.8580   -4.2470  -11.3720 C.3    74  THR74       0.1784
    121  OG1       24.2510   -5.5100  -10.8080 O.3    74  THR74      -0.2211
    122  CG2       23.2550   -3.3760  -10.2810 C.3    74  THR74       0.0376
    123  N         23.3410   -3.8360  -14.7890 N.am   75  GLY75      -0.1956
    124  CA        23.5020   -2.8840  -15.8720 C.3    75  GLY75       0.1869
    125  C         22.1830   -2.5120  -16.5280 C.2    75  GLY75       0.2309
    126  O         21.2910   -3.3540  -16.6590 O.2    75  GLY75      -0.2863
@<TRIPOS>BOND
     1    35    34    2
     2    34    33    1
     3    38    36    1
     4    30    29    1
     5    33    36    1
     6    33    32    1
     7    36    37    1
     8    32    27   am
     9    27    26    1
    10    27    28    2
    11    29    26    1
    12    29    31    1
    13    26    25    1
    14    21    20    2
    15    25    20   am
    16    20    19    1
    17    16    15    1
    18    17    15    1
    19    19    18    1
    20    19    22    1
    21    23    22    1
    22    14    15    1
    23    14    11    1
    24    18    12   am
    25    22    24    1
    26   114   115    1
    27   114   113    1
    28    75    74    2
    29    63    61    1
    30    12    11    1
    31    12    13    2
    32    11    10    1
    33    77    76    1
    34    74    73    1
    35    62    60    1
    36   113   112    1
    37    61    60    1
    38     4     3    2
    39    10     3   am
    40    76    73    1
    41    76    78    1
    42    72    73    1
    43    60    57    1
    44     3     2    1
    45    67    66    2
    46   126   125    2
    47   125   124    1
    48   112   109    1
    49   111   110    2
    50   124   123    1
    51    66    65    1
    52    57    58    1
    53    57    56    1
    54   109   110    1
    55   109   108    1
    56     2     1    1
    57     2     5    1
    58    64    58   am
    59    64    65    1
    60    58    59    2
    61   123   118   am
    62    56    50   am
    63    65    68    1
    64     5     6    1
    65   104   102   ar
    66   104   106   ar
    67   107   106    1
    68    51    50    2
    69   108    98   am
    70    50    49    1
    71    48    49    1
    72    68    69    1
    73   102   101   ar
    74   106   105   ar
    75     6     7    1
    76   118   119    2
    77   118   117    1
    78    99    98    2
    79    39    40    1
    80    49    52    1
    81    98    97    1
    82    69    71    1
    83    69    70    1
    84   116   117    1
    85     7     8    1
    86   117   120    1
    87    87    88    1
    88    41    40    1
    89    41    42    2
    90    40    43    1
    91   101   103   ar
    92   101   100    1
    93   105   103   ar
    94    97    96    1
    95    97   100    1
    96    52    53    1
    97    96    89   am
    98    82    81    2
    99    81    80    1
   100    89    88    1
   101    89    90    2
   102     8     9    1
   103   120   121    1
   104   120   122    1
   105    54    53   ar
   106    88    91    1
   107    53    55   ar
   108    43    44    1
   109    79    80    1
   110    80    83    1
   111    91    92    1
   112    44    45    1
   113    83    84    1
   114    92    93    1
   115    84    85    1
   116    86    85    1
   117    45    46   ar
   118    45    47   ar
   119    93    94    2
   120    93    95   am
