@<TRIPOS>MOLECULE
tmp/6ccfB00.pdb
 171 163 0 0 0
SMALL
GASTEIGER

@<TRIPOS>ATOM
      1  N         44.7880   37.5860   62.7300 N.3    12  ILE12      -0.1231
      2  CA        43.5150   38.3230   62.9150 C.3    12  ILE12       0.1692
      3  C         42.5700   37.7210   63.9500 C.2    12  ILE12       0.2593
      4  O         41.5250   38.2980   64.2230 O.2    12  ILE12      -0.2718
      5  CB        42.7560   38.5750   61.5790 C.3    12  ILE12       0.0266
      6  CG1       42.3170   37.2680   60.8980 C.3    12  ILE12       0.0019
      7  CG2       43.6170   39.3870   60.6280 C.3    12  ILE12       0.0020
      8  CD1       41.5550   37.4850   59.6040 C.3    12  ILE12       0.0001
      9  N         42.9370   36.5920   64.5440 N.am   13  GLY13      -0.1942
     10  CA        42.1570   35.9910   65.6250 C.3    13  GLY13       0.2014
     11  C         42.9020   34.8440   66.2850 C.2    13  GLY13       0.2638
     12  O         43.9120   34.3700   65.7570 O.2    13  GLY13      -0.2714
     13  N         42.4080   34.4030   67.4400 N.am   14  LYS14      -0.1977
     14  CA        43.0550   33.3380   68.2320 C.3    14  LYS14       0.1596
     15  C         42.0220   32.5550   69.0320 C.2    14  LYS14       0.2287
     16  O         40.8560   32.9360   69.0910 O.2    14  LYS14      -0.2864
     17  CB        44.1120   33.9310   69.1770 C.3    14  LYS14       0.0298
     18  CG        43.5970   34.9810   70.1350 C.3    14  LYS14       0.0038
     19  CD        44.6530   35.5200   71.0800 C.3    14  LYS14       0.0206
     20  CE        43.8950   36.2390   72.1760 C.3    14  LYS14       0.1093
     21  NZ        44.7000   37.1550   72.9440 N.3    14  LYS14      -0.1314
     22  N         41.7590   26.2310   69.5840 N.3    17  TYR17      -0.1241
     23  CA        42.1730   25.6160   68.3050 C.3    17  TYR17       0.1605
     24  C         43.6360   25.8810   67.8540 C.2    17  TYR17       0.2264
     25  O         44.3990   24.9520   67.5510 O.2    17  TYR17      -0.2867
     26  CB        41.1810   26.0500   67.1910 C.3    17  TYR17       0.0534
     27  CG        40.9970   27.5610   66.9720 C.ar   17  TYR17      -0.0201
     28  CD1       41.7880   28.2590   66.0540 C.ar   17  TYR17      -0.0009
     29  CD2       40.0070   28.2810   67.6570 C.ar   17  TYR17      -0.0009
     30  CE1       41.6220   29.6250   65.8480 C.ar   17  TYR17       0.0417
     31  CE2       39.8370   29.6470   67.4580 C.ar   17  TYR17       0.0417
     32  CZ        40.6490   30.3170   66.5530 C.ar   17  TYR17       0.1957
     33  OH        40.4800   31.6730   66.3480 O.3    17  TYR17      -0.2866
     34  N         43.8190   32.2810   63.5070 N.3    20  VAL20      -0.1245
     35  CA        43.4190   32.6500   62.1430 C.3    20  VAL20       0.1561
     36  C         44.3730   33.7170   61.6360 C.2    20  VAL20       0.2260
     37  O         44.6050   34.7240   62.3150 O.2    20  VAL20      -0.2867
     38  CB        41.9690   33.1810   62.0640 C.3    20  VAL20       0.0252
     39  CG1       41.5970   33.5420   60.6240 C.3    20  VAL20       0.0019
     40  CG2       41.0050   32.1560   62.6250 C.3    20  VAL20       0.0019
     41  N         41.2220   34.1740   54.7970 N.3    33  ALA33      -0.1245
     42  CA        41.3830   33.9250   56.2250 C.3    33  ALA33       0.1562
     43  C         41.7800   32.4770   56.3670 C.2    33  ALA33       0.2260
     44  O         41.0530   31.5850   55.9010 O.2    33  ALA33      -0.2867
     45  CB        40.0880   34.1870   56.9700 C.3    33  ALA33       0.0290
     46  N         42.6500   29.5080   58.9890 N.3    35  LYS35      -0.1245
     47  CA        42.5850   28.9920   60.3340 C.3    35  LYS35       0.1561
     48  C         43.6720   27.9300   60.4190 C.2    35  LYS35       0.2260
     49  O         43.6440   26.9610   59.6520 O.2    35  LYS35      -0.2867
     50  CB        41.1930   28.4020   60.5820 C.3    35  LYS35       0.0271
     51  CG        40.7620   28.3390   62.0370 C.3    35  LYS35       0.0035
     52  CD        39.2650   28.0600   62.1250 C.3    35  LYS35       0.0206
     53  CE        38.7810   28.0700   63.5610 C.3    35  LYS35       0.1093
     54  NZ        37.4530   27.4190   63.6490 N.3    35  LYS35      -0.1314
     55  N         29.9450   30.3330   56.2480 N.3    63  VAL63      -0.1245
     56  CA        31.2920   30.6120   55.7380 C.3    63  VAL63       0.1561
     57  C         31.7740   29.3790   54.9970 C.2    63  VAL63       0.2260
     58  O         31.5670   28.2700   55.4740 O.2    63  VAL63      -0.2867
     59  CB        32.3170   31.0100   56.8360 C.3    63  VAL63       0.0252
     60  CG1       31.8630   32.2600   57.5600 C.3    63  VAL63       0.0019
     61  CG2       32.5710   29.8750   57.8310 C.3    63  VAL63       0.0019
     62  N         39.6140   29.8600   54.3160 N.3    81  PHE81      -0.1227
     63  CA        38.2730   30.4230   54.1930 C.3    81  PHE81       0.1736
     64  C         38.3110   31.7340   53.4460 C.2    81  PHE81       0.2595
     65  O         39.3660   32.3640   53.3490 O.2    81  PHE81      -0.2718
     66  CB        37.7090   30.7380   55.5610 C.3    81  PHE81       0.0547
     67  CG        37.4630   29.5390   56.4160 C.ar   81  PHE81      -0.0202
     68  CD1       36.2570   28.8690   56.3530 C.ar   81  PHE81      -0.0042
     69  CD2       38.4270   29.1020   57.3140 C.ar   81  PHE81      -0.0042
     70  CE1       36.0220   27.7830   57.1550 C.ar   81  PHE81      -0.0003
     71  CE2       38.2000   28.0070   58.1080 C.ar   81  PHE81      -0.0003
     72  CZ        36.9920   27.3460   58.0330 C.ar   81  PHE81      -0.0000
     73  N         37.1490   32.1620   52.9460 N.am   82  ASP82      -0.1960
     74  CA        37.0040   33.5120   52.4030 C.3    82  ASP82       0.1840
     75  C         37.2570   34.5230   53.5290 C.2    82  ASP82       0.2622
     76  O         36.8840   34.2700   54.6760 O.2    82  ASP82      -0.2715
     77  CB        35.5950   33.7450   51.8300 C.3    82  ASP82       0.1450
     78  CG        35.3870   33.0860   50.4800 C.2    82  ASP82       0.3671
     79  OD1       36.1490   33.4010   49.5350 O.co2  82  ASP82      -0.2456
     80  OD2       34.4500   32.2690   50.3610 O.co2  82  ASP82      -0.2456
     81  N         37.9120   35.6390   53.1930 N.am   83  LEU83      -0.1963
     82  CA        38.0880   36.7580   54.1200 C.3    83  LEU83       0.1728
     83  C         36.8250   37.6260   54.1100 C.2    83  LEU83       0.2616
     84  O         36.3870   38.0780   53.0510 O.2    83  LEU83      -0.2715
     85  CB        39.2980   37.6150   53.7460 C.3    83  LEU83       0.0311
     86  CG        39.7000   38.6870   54.7700 C.3    83  LEU83       0.0022
     87  CD1       40.2570   38.0670   56.0430 C.3    83  LEU83       0.0001
     88  CD2       40.7260   39.6310   54.1700 C.3    83  LEU83       0.0001
     89  N         36.2400   37.8070   55.2920 N.am   84  LEU84      -0.1963
     90  CA        35.1510   38.7470   55.5210 C.3    84  LEU84       0.1728
     91  C         35.7250   39.8470   56.4110 C.2    84  LEU84       0.2616
     92  O         35.7680   39.6890   57.6340 O.2    84  LEU84      -0.2715
     93  CB        33.9380   38.0570   56.1590 C.3    84  LEU84       0.0311
     94  CG        33.0590   37.3030   55.1390 C.3    84  LEU84       0.0022
     95  CD1       33.7980   36.1470   54.4880 C.3    84  LEU84       0.0001
     96  CD2       31.7630   36.8080   55.7700 C.3    84  LEU84       0.0001
     97  N         36.1730   40.9280   55.7540 N.am   85  ARG85      -0.1963
     98  CA        36.8580   42.0700   56.3870 C.3    85  ARG85       0.1729
     99  C         36.0650   42.7640   57.4640 C.2    85  ARG85       0.2616
    100  O         36.6480   43.2800   58.3970 O.2    85  ARG85      -0.2715
    101  CB        37.2490   43.1370   55.3440 C.3    85  ARG85       0.0348
    102  CG        38.3860   42.7180   54.4390 C.3    85  ARG85       0.0492
    103  CD        38.5850   43.6730   53.2680 C.3    85  ARG85       0.2205
    104  NE        39.7330   43.2360   52.4690 N.pl3  85  ARG85      -0.0865
    105  CZ        39.7190   42.2440   51.5710 C.cat  85  ARG85       0.5346
    106  NH1       38.6040   41.5610   51.3040 N.pl3  85  ARG85       0.1354
    107  NH2       40.8400   41.9310   50.9220 N.pl3  85  ARG85       0.1354
    108  N         34.7440   42.7730   57.3480 N.am   86  LYS86      -0.1963
    109  CA        33.8960   43.4280   58.3470 C.3    86  LYS86       0.1728
    110  C         33.8890   42.6970   59.7010 C.2    86  LYS86       0.2617
    111  O         33.5180   43.2910   60.7030 O.2    86  LYS86      -0.2715
    112  CB        32.4590   43.5480   57.8620 C.3    86  LYS86       0.0311
    113  CG        32.2440   44.2710   56.5340 C.3    86  LYS86       0.0038
    114  CD        32.6100   45.7340   56.5790 C.3    86  LYS86       0.0206
    115  CE        31.6630   46.5930   55.7330 C.3    86  LYS86       0.1093
    116  NZ        31.3600   46.0660   54.3720 N.3    86  LYS86      -0.1314
    117  N         34.2620   41.4140   59.7190 N.am   87  GLY87      -0.1941
    118  CA        34.4170   40.6620   60.9660 C.3    87  GLY87       0.1998
    119  C         33.0860   40.1950   61.5350 C.2    87  GLY87       0.2480
    120  O         32.0730   40.1660   60.8030 O.2    87  GLY87      -0.2729
    121  N         33.0690   39.8400   62.8450 N.am   88  PRO88      -0.2726
    122  CA        31.8390   39.4770   63.5140 C.3    88  PRO88       0.1402
    123  C         30.8460   40.6160   63.4720 C.2    88  PRO88       0.2269
    124  O         31.2310   41.7770   63.6610 O.2    88  PRO88      -0.2865
    125  CB        32.2650   39.2020   64.9620 C.3    88  PRO88       0.0296
    126  CG        33.7460   39.0320   64.9360 C.3    88  PRO88       0.0237
    127  CD        34.2140   39.8620   63.7830 C.3    88  PRO88       0.0939
    128  N         29.6410   42.4410   68.8020 N.3    91  GLU91      -0.1245
    129  CA        30.2930   41.9180   70.0130 C.3    91  GLU91       0.1567
    130  C         29.4010   42.3360   71.1710 C.2    91  GLU91       0.2260
    131  O         29.0260   43.4980   71.2240 O.2    91  GLU91      -0.2867
    132  CB        31.6960   42.5350   70.1940 C.3    91  GLU91       0.0388
    133  CG        32.6170   42.2030   69.0200 C.3    91  GLU91       0.1160
    134  CD        33.3460   40.9120   69.3360 C.2    91  GLU91       0.3649
    135  OE1       33.1620   40.2920   70.4110 O.co2  91  GLU91      -0.2457
    136  OE2       34.1010   40.4560   68.4710 O.co2  91  GLU91      -0.2457
    137  N         29.0840   36.7770   67.7640 N.3   130  SER130     -0.1202
    138  CA        30.5170   36.8040   67.4350 C.3   130  SER130      0.2020
    139  C         30.9230   35.6700   66.4950 C.2   130  SER130      0.2618
    140  O         32.0050   35.7190   65.9160 O.2   130  SER130     -0.2717
    141  CB        31.3910   36.8130   68.6990 C.3   130  SER130      0.2103
    142  OG        31.3170   35.5840   69.3970 O.3   130  SER130     -0.2182
    143  N         30.0610   34.6650   66.3400 N.am  131  ASN131     -0.1974
    144  CA        30.2290   33.6190   65.3180 C.3   131  ASN131      0.1688
    145  C         29.4340   33.8760   64.0230 C.2   131  ASN131      0.2292
    146  O         29.2610   32.9740   63.2070 O.2   131  ASN131     -0.2864
    147  CB        29.8650   32.2450   65.9100 C.3   131  ASN131      0.1181
    148  CG        30.9320   31.7250   66.8610 C.2   131  ASN131      0.2629
    149  OD1       32.0690   32.1780   66.8070 O.2   131  ASN131     -0.2716
    150  ND2       30.5750   30.7630   67.7210 N.am  131  ASN131     -0.0877
    151  N         29.7610   36.1850   60.8030 N.3   133  LEU133     -0.1245
    152  CA        30.6560   37.1380   60.1420 C.3   133  LEU133      0.1561
    153  C         29.8400   37.9260   59.1330 C.2   133  LEU133      0.2260
    154  O         29.0330   37.3310   58.4100 O.2   133  LEU133     -0.2867
    155  CB        31.8070   36.4200   59.4540 C.3   133  LEU133      0.0270
    156  CG        32.5200   35.4220   60.3690 C.3   133  LEU133      0.0019
    157  CD1       33.7120   34.8200   59.6380 C.3   133  LEU133      0.0001
    158  CD2       32.9560   36.0760   61.6820 C.3   133  LEU133      0.0001
    159  N         29.7460   30.9620   61.2840 N.3   143  ALA143     -0.1231
    160  CA        31.1350   30.4920   61.3430 C.3   143  ALA143      0.1694
    161  C         31.3950   29.6980   62.6210 C.2   143  ALA143      0.2592
    162  O         30.5490   29.6310   63.5180 O.2   143  ALA143     -0.2718
    163  CB        32.0890   31.6750   61.2470 C.3   143  ALA143      0.0304
    164  N         32.5830   29.0980   62.6750 N.am  144  ASP144     -0.1974
    165  CA        33.0720   28.3140   63.8210 C.3   144  ASP144      0.1709
    166  C         32.2990   27.0360   64.0930 C.2   144  ASP144      0.2293
    167  O         31.4250   26.9960   64.9600 O.2   144  ASP144     -0.2864
    168  CB        33.1570   29.1530   65.1000 C.3   144  ASP144      0.1436
    169  CG        33.9940   28.4750   66.1830 C.2   144  ASP144      0.3671
    170  OD1       34.3060   27.2740   66.0540 O.co2 144  ASP144     -0.2456
    171  OD2       34.3470   29.1490   67.1620 O.co2 144  ASP144     -0.2456
@<TRIPOS>BOND
     1    79    78   ar
     2    80    78   ar
     3    78    77    1
     4   107   105    1
     5   106   105    1
     6   105   104    2
     7    77    74    1
     8    74    73    1
     9    74    75    1
    10   104   103    1
    11    73    64   am
    12    84    83    2
    13    81    75   am
    14    81    82    1
    15   103   102    1
    16    65    64    2
    17    64    63    1
    18    75    76    2
    19    85    82    1
    20    85    86    1
    21    83    82    1
    22    83    89   am
    23    88    86    1
    24    63    62    1
    25    63    66    1
    26   116   115    1
    27   102   101    1
    28    95    94    1
    29    86    87    1
    30    41    42    1
    31    57    58    2
    32    57    56    1
    33    94    96    1
    34    94    93    1
    35    89    90    1
    36   101    98    1
    37    90    93    1
    38    90    91    1
    39    66    67    1
    40   115   114    1
    41    56    55    1
    42    56    59    1
    43    97    98    1
    44    97    91   am
    45    44    43    2
    46    42    43    1
    47    42    45    1
    48    68    67   ar
    49    68    70   ar
    50    98    99    1
    51    91    92    2
    52    67    69   ar
    53   113   114    1
    54   113   112    1
    55    59    60    1
    56    59    61    1
    57    70    72   ar
    58    69    71   ar
    59   108    99   am
    60   108   109    1
    61    99   100    2
    62   112   109    1
    63    72    71   ar
    64   109   110    1
    65   154   153    2
    66    46    47    1
    67   153   152    1
    68   155   152    1
    69   155   156    1
    70     8     6    1
    71   157   156    1
    72    49    48    2
    73   110   117   am
    74   110   111    2
    75   117   118    1
    76   152   151    1
    77    47    48    1
    78    47    50    1
    79   156   158    1
    80    50    51    1
    81    39    38    1
    82     7     5    1
    83   120   119    2
    84     6     5    1
    85   118   119    1
    86   163   160    1
    87   159   160    1
    88   160   161    1
    89   119   121   am
    90     5     2    1
    91    36    35    1
    92    36    37    2
    93    51    52    1
    94    38    35    1
    95    38    40    1
    96    52    53    1
    97    35    34    1
    98   161   164   am
    99   161   162    2
   100   164   165    1
   101     1     2    1
   102   121   122    1
   103   121   127    1
   104     2     3    1
   105   146   145    2
   106   123   122    1
   107   123   124    2
   108   122   125    1
   109    53    54    1
   110   127   126    1
   111   165   166    1
   112   165   168    1
   113     3     4    2
   114     3     9   am
   115   145   144    1
   116   166   167    2
   117     9    10    1
   118   126   125    1
   119   168   169    1
   120   144   147    1
   121   144   143    1
   122    10    11    1
   123    12    11    2
   124    30    28   ar
   125    30    32   ar
   126   147   148    1
   127   140   139    2
   128   170   169   ar
   129    28    27   ar
   130   169   171   ar
   131    11    13   am
   132   143   139   am
   133    33    32    1
   134   139   138    1
   135    32    31   ar
   136   149   148    2
   137   148   150   am
   138    27    26    1
   139    27    29   ar
   140    26    23    1
   141   138   137    1
   142   138   141    1
   143    13    14    1
   144    31    29   ar
   145    25    24    2
   146    24    23    1
   147    14    15    1
   148    14    17    1
   149    23    22    1
   150   136   134   ar
   151   141   142    1
   152   128   129    1
   153   133   134    1
   154   133   132    1
   155    15    16    2
   156    17    18    1
   157   134   135   ar
   158   129   132    1
   159   129   130    1
   160    18    19    1
   161    19    20    1
   162   130   131    2
   163    20    21    1
