@<TRIPOS>MOLECULE
tmp/6cchB06.pdb
 169 165 0 0 0
SMALL
GASTEIGER

@<TRIPOS>ATOM
      1  N        -31.0240   -7.2750  -23.6420 N.3    12  VAL12      -0.1231
      2  CA       -32.1490   -7.0210  -24.5310 C.3    12  VAL12       0.1692
      3  C        -32.9930   -5.8520  -24.0250 C.2    12  VAL12       0.2593
      4  O        -33.1420   -5.6520  -22.8190 O.2    12  VAL12      -0.2718
      5  CB       -33.0190   -8.2820  -24.7500 C.3    12  VAL12       0.0266
      6  CG1      -33.9680   -8.5310  -23.5870 C.3    12  VAL12       0.0020
      7  CG2      -33.7690   -8.2100  -26.0700 C.3    12  VAL12       0.0020
      8  N        -33.5180   -5.0670  -24.9500 N.am   13  GLY13      -0.1942
      9  CA       -34.3270   -3.9270  -24.5830 C.3    13  GLY13       0.2014
     10  C        -33.7170   -2.6260  -25.0580 C.2    13  GLY13       0.2639
     11  O        -34.4290   -1.6610  -25.3340 O.2    13  GLY13      -0.2714
     12  N        -32.3960   -2.5980  -25.1450 N.am   14  VAL14      -0.1963
     13  CA       -31.6830   -1.4090  -25.6010 C.3    14  VAL14       0.1727
     14  C        -31.7960   -1.2710  -27.1170 C.2    14  VAL14       0.2617
     15  O        -32.2990   -2.1680  -27.7940 O.2    14  VAL14      -0.2715
     16  CB       -30.1980   -1.4290  -25.1830 C.3    14  VAL14       0.0290
     17  CG1      -30.0680   -1.4370  -23.6670 C.3    14  VAL14       0.0023
     18  CG2      -29.4740   -2.6200  -25.7920 C.3    14  VAL14       0.0023
     19  N        -31.3240   -0.1580  -27.6530 N.am   15  GLY15      -0.1940
     20  CA       -31.4080    0.0660  -29.0830 C.3    15  GLY15       0.2014
     21  C        -30.2030   -0.4500  -29.8450 C.2    15  GLY15       0.2639
     22  O        -29.7920    0.1490  -30.8350 O.2    15  GLY15      -0.2714
     23  N        -29.6510   -1.5720  -29.4010 N.am   16  LYS16      -0.1963
     24  CA       -28.4860   -2.1610  -30.0590 C.3    16  LYS16       0.1728
     25  C        -28.8340   -2.6230  -31.4740 C.2    16  LYS16       0.2617
     26  O        -28.0150   -2.5400  -32.3860 O.2    16  LYS16      -0.2715
     27  CB       -27.9120   -3.3190  -29.2290 C.3    16  LYS16       0.0311
     28  CG       -28.8800   -4.4670  -28.9800 C.3    16  LYS16       0.0038
     29  CD       -28.1730   -5.6720  -28.3790 C.3    16  LYS16       0.0206
     30  CE       -27.0990   -6.2090  -29.3100 C.3    16  LYS16       0.1093
     31  NZ       -26.6210   -7.5510  -28.8890 N.3    16  LYS16      -0.1314
     32  N        -30.0590   -3.0990  -31.6470 N.am   17  SER17      -0.1936
     33  CA       -30.5250   -3.5660  -32.9430 C.3    17  SER17       0.2055
     34  C        -31.2770   -2.4620  -33.6810 C.2    17  SER17       0.2642
     35  O        -31.7860   -2.6620  -34.7850 O.2    17  SER17      -0.2714
     36  CB       -31.4070   -4.7970  -32.7650 C.3    17  SER17       0.2130
     37  OG       -30.8210   -5.6990  -31.8340 O.3    17  SER17      -0.2179
     38  N        -31.3300   -1.2910  -33.0650 N.am   18  ALA18      -0.1977
     39  CA       -32.0040   -0.1480  -33.6590 C.3    18  ALA18       0.1597
     40  C        -30.9720    0.7880  -34.2670 C.2    18  ALA18       0.2287
     41  O        -31.1300    1.2540  -35.3940 O.2    18  ALA18      -0.2864
     42  CB       -32.8480    0.5780  -32.6230 C.3    18  ALA18       0.0319
     43  N        -35.0560    4.2330  -37.8590 N.3    28  PHE28      -0.1227
     44  CA       -35.2530    3.7630  -36.4980 C.3    28  PHE28       0.1736
     45  C        -36.4950    2.8850  -36.4200 C.2    28  PHE28       0.2595
     46  O        -37.5780    3.2820  -36.8550 O.2    28  PHE28      -0.2718
     47  CB       -35.3820    4.9520  -35.5390 C.3    28  PHE28       0.0547
     48  CG       -35.7000    4.5740  -34.1170 C.ar   28  PHE28      -0.0202
     49  CD1      -34.7970    3.8510  -33.3550 C.ar   28  PHE28      -0.0042
     50  CD2      -36.9060    4.9440  -33.5430 C.ar   28  PHE28      -0.0042
     51  CE1      -35.0890    3.5050  -32.0490 C.ar   28  PHE28      -0.0003
     52  CE2      -37.2040    4.6010  -32.2380 C.ar   28  PHE28      -0.0003
     53  CZ       -36.2940    3.8820  -31.4910 C.ar   28  PHE28      -0.0000
     54  N        -36.3340    1.6850  -35.8850 N.am   29  VAL29      -0.1966
     55  CA       -37.4470    0.7590  -35.7430 C.3    29  VAL29       0.1727
     56  C        -38.1450    0.9460  -34.4000 C.2    29  VAL29       0.2616
     57  O        -37.4960    1.1130  -33.3630 O.2    29  VAL29      -0.2715
     58  CB       -37.0140   -0.7110  -35.9070 C.3    29  VAL29       0.0290
     59  CG1      -36.8810   -1.0660  -37.3810 C.3    29  VAL29       0.0023
     60  CG2      -35.7130   -0.9810  -35.1660 C.3    29  VAL29       0.0023
     61  N        -39.4640    0.9120  -34.4280 N.am   30  ASP30      -0.1957
     62  CA       -40.2620    1.0910  -33.2230 C.3    30  ASP30       0.1840
     63  C        -40.7400   -0.2570  -32.6970 C.2    30  ASP30       0.2622
     64  O        -41.0160   -0.4150  -31.5070 O.2    30  ASP30      -0.2715
     65  CB       -41.4570    2.0110  -33.5070 C.3    30  ASP30       0.1450
     66  CG       -42.3650    2.1960  -32.3090 C.2    30  ASP30       0.3671
     67  OD1      -41.9830    2.9210  -31.3670 O.co2  30  ASP30      -0.2456
     68  OD2      -43.4820    1.6360  -32.3170 O.co2  30  ASP30      -0.2456
     69  N        -40.8340   -1.2240  -33.5970 N.am   31  GLU31      -0.1963
     70  CA       -41.2710   -2.5660  -33.2380 C.3    31  GLU31       0.1733
     71  C        -40.1710   -3.3350  -32.5070 C.2    31  GLU31       0.2616
     72  O        -38.9870   -3.2190  -32.8360 O.2    31  GLU31      -0.2715
     73  CB       -41.7610   -3.3490  -34.4680 C.3    31  GLU31       0.0429
     74  CG       -40.9580   -3.1220  -35.7420 C.3    31  GLU31       0.1163
     75  CD       -41.3460   -1.8480  -36.4680 C.2    31  GLU31       0.3649
     76  OE1      -40.6200   -0.8420  -36.3360 O.co2  31  GLU31      -0.2457
     77  OE2      -42.3810   -1.8470  -37.1740 O.co2  31  GLU31      -0.2457
     78  N        -40.5680   -4.1100  -31.5100 N.am   32  TYR32      -0.1960
     79  CA       -39.6300   -4.8940  -30.7250 C.3    32  TYR32       0.1771
     80  C        -39.5050   -6.3030  -31.2970 C.2    32  TYR32       0.2620
     81  O        -40.3280   -7.1740  -31.0180 O.2    32  TYR32      -0.2715
     82  CB       -40.0830   -4.9360  -29.2580 C.3    32  TYR32       0.0574
     83  CG       -39.2650   -5.8400  -28.3600 C.ar   32  TYR32      -0.0198
     84  CD1      -37.9010   -5.6420  -28.1940 C.ar   32  TYR32      -0.0009
     85  CD2      -39.8660   -6.8870  -27.6770 C.ar   32  TYR32      -0.0009
     86  CE1      -37.1580   -6.4680  -27.3700 C.ar   32  TYR32       0.0417
     87  CE2      -39.1320   -7.7160  -26.8510 C.ar   32  TYR32       0.0417
     88  CZ       -37.7790   -7.5030  -26.7010 C.ar   32  TYR32       0.1957
     89  OH       -37.0440   -8.3250  -25.8790 O.3    32  TYR32      -0.2866
     90  N        -38.4890   -6.5130  -32.1240 N.am   33  ASP33      -0.1958
     91  CA       -38.2550   -7.8160  -32.7270 C.3    33  ASP33       0.1825
     92  C        -36.9230   -8.3750  -32.2440 C.2    33  ASP33       0.2464
     93  O        -35.8700   -7.7870  -32.4990 O.2    33  ASP33      -0.2730
     94  CB       -38.2590   -7.7080  -34.2530 C.3    33  ASP33       0.1450
     95  CG       -38.7420   -8.9750  -34.9300 C.2    33  ASP33       0.3671
     96  OD1      -39.9180   -9.0140  -35.3670 O.co2  33  ASP33      -0.2456
     97  OD2      -37.9610   -9.9390  -35.0330 O.co2  33  ASP33      -0.2456
     98  N        -36.9570   -9.4980  -31.5090 N.am   34  PRO34      -0.2715
     99  CA       -35.7490  -10.1480  -30.9760 C.3    34  PRO34       0.1536
    100  C        -34.7550  -10.5370  -32.0730 C.2    34  PRO34       0.2599
    101  O        -35.1160  -10.6710  -33.2410 O.2    34  PRO34      -0.2715
    102  CB       -36.2960  -11.4040  -30.2820 C.3    34  PRO34       0.0310
    103  CG       -37.7130  -11.0700  -29.9800 C.3    34  PRO34       0.0237
    104  CD       -38.1780  -10.2240  -31.1260 C.3    34  PRO34       0.0939
    105  N        -33.5000  -10.7300  -31.6870 N.am   35  THR35      -0.1951
    106  CA       -32.4580  -11.0930  -32.6300 C.3    35  THR35       0.1897
    107  C        -31.7130  -12.3440  -32.1790 C.2    35  THR35       0.2313
    108  O        -31.4580  -12.5310  -30.9900 O.2    35  THR35      -0.2863
    109  CB       -31.4500   -9.9300  -32.8290 C.3    35  THR35       0.1794
    110  OG1      -31.9350   -9.0250  -33.8350 O.3    35  THR35      -0.2208
    111  CG2      -30.0700  -10.4330  -33.2290 C.3    35  THR35       0.0378
    112  N        -25.9260   -9.1750  -32.1100 N.3    58  THR58      -0.1218
    113  CA       -26.1010  -10.3850  -31.3190 C.3    58  THR58       0.1862
    114  C        -27.3920  -10.3600  -30.5050 C.2    58  THR58       0.2287
    115  O        -28.0560   -9.3240  -30.3970 O.2    58  THR58      -0.2866
    116  CB       -24.9070  -10.5760  -30.3630 C.3    58  THR58       0.1770
    117  OG1      -24.5880   -9.3230  -29.7320 O.3    58  THR58      -0.2211
    118  CG2      -23.6940  -11.0840  -31.1250 C.3    58  THR58       0.0375
    119  N        -29.8690  -10.3740  -27.2570 N.3    60  GLY60      -0.1225
    120  CA       -29.8330   -9.6600  -25.9980 C.3    60  GLY60       0.1811
    121  C        -30.2170  -10.5470  -24.8320 C.2    60  GLY60       0.2280
    122  O        -29.9030  -10.2510  -23.6790 O.2    60  GLY60      -0.2866
    123  N        -27.5830    4.4700  -23.1310 N.3   116  ASN116     -0.1225
    124  CA       -28.6600    4.8400  -24.0320 C.3   116  ASN116      0.1785
    125  C        -29.9540    5.1450  -23.2830 C.2   116  ASN116      0.2597
    126  O        -30.0530    4.9210  -22.0720 O.2   116  ASN116     -0.2718
    127  CB       -28.8900    3.7290  -25.0570 C.3   116  ASN116      0.1169
    128  CG       -29.2230    4.2640  -26.4350 C.2   116  ASN116      0.2627
    129  OD1      -30.3830    4.5240  -26.7520 O.2   116  ASN116     -0.2716
    130  ND2      -28.2080    4.4400  -27.2620 N.am  116  ASN116     -0.0877
    131  N        -30.9390    5.6550  -24.0260 N.am  117  LYS117     -0.1980
    132  CA       -32.2550    6.0080  -23.4880 C.3   117  LYS117      0.1596
    133  C        -32.2000    7.2180  -22.5650 C.2   117  LYS117      0.2287
    134  O        -33.0050    7.3410  -21.6380 O.2   117  LYS117     -0.2864
    135  CB       -32.9490    4.8160  -22.8170 C.3   117  LYS117      0.0298
    136  CG       -33.2700    3.6820  -23.7750 C.3   117  LYS117      0.0038
    137  CD       -34.0210    2.5560  -23.0890 C.3   117  LYS117      0.0206
    138  CE       -34.2030    1.3750  -24.0240 C.3   117  LYS117      0.1093
    139  NZ       -35.0300    0.3090  -23.4140 N.3   117  LYS117     -0.1314
    140  N        -32.9880   10.0630  -23.3840 N.3   119  ASP119     -0.1225
    141  CA       -34.1160   10.8940  -23.7690 C.3   119  ASP119      0.1805
    142  C        -35.3720   10.5120  -22.9890 C.2   119  ASP119      0.2597
    143  O        -36.4230   11.1390  -23.1380 O.2   119  ASP119     -0.2718
    144  CB       -34.3690   10.7860  -25.2770 C.3   119  ASP119      0.1424
    145  CG       -34.4200    9.3520  -25.7700 C.2   119  ASP119      0.3668
    146  OD1      -33.3420    8.7150  -25.8650 O.co2 119  ASP119     -0.2456
    147  OD2      -35.5280    8.8640  -26.0690 O.co2 119  ASP119     -0.2456
    148  N        -35.2590    9.4780  -22.1620 N.am  120  LEU120     -0.1979
    149  CA       -36.3750    9.0230  -21.3430 C.3   120  LEU120      0.1596
    150  C        -36.3110    9.6770  -19.9670 C.2   120  LEU120      0.2287
    151  O        -35.2300    9.8130  -19.3880 O.2   120  LEU120     -0.2864
    152  CB       -36.3640    7.4970  -21.2070 C.3   120  LEU120      0.0297
    153  CG       -36.6640    6.6990  -22.4790 C.3   120  LEU120      0.0022
    154  CD1      -36.6650    5.2080  -22.1830 C.3   120  LEU120      0.0001
    155  CD2      -37.9980    7.1220  -23.0780 C.3   120  LEU120      0.0001
    156  N        -31.0050    6.5140  -29.1690 N.3   146  ALA146     -0.1231
    157  CA       -31.4210    5.9960  -30.4640 C.3   146  ALA146      0.1694
    158  C        -32.5800    6.8130  -31.0200 C.2   146  ALA146      0.2591
    159  O        -32.9800    6.6500  -32.1740 O.2   146  ALA146     -0.2718
    160  CB       -31.8070    4.5300  -30.3480 C.3   146  ALA146      0.0304
    161  N        -33.1100    7.7030  -30.2020 N.am  147  LYS147     -0.1980
    162  CA       -34.2230    8.5360  -30.6100 C.3   147  LYS147      0.1596
    163  C        -33.7460    9.9370  -30.9880 C.2   147  LYS147      0.2287
    164  O        -34.1220   10.4650  -32.0360 O.2   147  LYS147     -0.2864
    165  CB       -35.2680    8.5840  -29.4950 C.3   147  LYS147      0.0298
    166  CG       -36.5460    9.3240  -29.8480 C.3   147  LYS147      0.0038
    167  CD       -37.6390    9.0240  -28.8390 C.3   147  LYS147      0.0206
    168  CE       -38.7300   10.0790  -28.8680 C.3   147  LYS147      0.1093
    169  NZ       -38.2530   11.3870  -28.3440 N.3   147  LYS147     -0.1314
@<TRIPOS>BOND
     1    43    44    1
     2    59    58    1
     3    77    75   ar
     4    46    45    2
     5    44    45    1
     6    44    47    1
     7    75    76   ar
     8    75    74    1
     9    45    54   am
    10    58    55    1
    11    58    60    1
    12    54    55    1
    13    55    56    1
    14    74    73    1
    15    47    48    1
    16    41    40    2
    17    96    95   ar
    18    97    95   ar
    19    95    94    1
    20    35    34    2
    21    73    70    1
    22    61    56   am
    23    61    62    1
    24    56    57    2
    25    40    39    1
    26    94    91    1
    27    48    50   ar
    28    48    49   ar
    29   110   109    1
    30    34    38   am
    31    34    33    1
    32    39    38    1
    33    39    42    1
    34    69    70    1
    35    69    63   am
    36    50    52   ar
    37    65    62    1
    38    65    66    1
    39    49    51   ar
    40   101   100    2
    41    70    71    1
    42   111   109    1
    43    62    63    1
    44    33    36    1
    45    33    32    1
    46    72    71    2
    47   109   106    1
    48    36    37    1
    49    91    92    1
    50    91    90    1
    51    63    64    2
    52   106   107    1
    53   106   105    1
    54    71    78   am
    55    93    92    2
    56    26    25    2
    57    68    66   ar
    58    66    67   ar
    59    92    98   am
    60    52    53   ar
    61   107   108    2
    62   159   158    2
    63    90    80   am
    64   112   113    1
    65   100   105   am
    66   100    99    1
    67    51    53   ar
    68   164   163    2
    69    32    25   am
    70    78    79    1
    71    98   104    1
    72    98    99    1
    73    25    24    1
    74   113   114    1
    75   113   116    1
    76    80    81    2
    77    80    79    1
    78   104   103    1
    79   118   116    1
    80   158   157    1
    81   158   161   am
    82   163   162    1
    83    99   102    1
    84    22    21    2
    85    79    82    1
    86   162   161    1
    87   162   165    1
    88   114   115    2
    89   157   160    1
    90   157   156    1
    91   116   117    1
    92   102   103    1
    93    24    23    1
    94    24    27    1
    95   166   165    1
    96   166   167    1
    97    21    23   am
    98    21    20    1
    99    30    31    1
   100    30    29    1
   101    82    83    1
   102    27    28    1
   103    20    19    1
   104    28    29    1
   105   168   167    1
   106   168   169    1
   107    83    84   ar
   108    83    85   ar
   109    84    86   ar
   110    15    14    2
   111    85    87   ar
   112    19    14   am
   113    86    88   ar
   114   130   128   am
   115   119   120    1
   116    14    13    1
   117    87    88   ar
   118   129   128    2
   119    88    89    1
   120   128   127    1
   121     7     5    1
   122   147   145   ar
   123   120   121    1
   124   146   145   ar
   125    18    16    1
   126   145   144    1
   127    13    16    1
   128    13    12    1
   129    11    10    2
   130   144   141    1
   131    16    17    1
   132    12    10   am
   133    10     9    1
   134   127   124    1
   135     8     9    1
   136     8     3   am
   137   121   122    2
   138     5     2    1
   139     5     6    1
   140     2     3    1
   141     2     1    1
   142   124   125    1
   143   124   123    1
   144   131   132    1
   145   131   125   am
   146     3     4    2
   147   138   139    1
   148   138   137    1
   149   136   137    1
   150   136   135    1
   151   141   140    1
   152   141   142    1
   153   132   135    1
   154   132   133    1
   155   125   126    2
   156   143   142    2
   157   155   153    1
   158   142   148   am
   159   133   134    2
   160   153   154    1
   161   153   152    1
   162   148   149    1
   163   149   152    1
   164   149   150    1
   165   150   151    2
