@<TRIPOS>MOLECULE
tmp/6cciA02.pdb
 122 119 0 0 0
SMALL
GASTEIGER

@<TRIPOS>ATOM
      1  N         23.3050  -17.8930   23.0140 N.3     9  ASP9       -0.1239
      2  CA        22.9980  -16.5950   22.4160 C.3     9  ASP9        0.1674
      3  C         23.7240  -15.4800   23.2200 C.2     9  ASP9        0.2266
      4  O         23.2910  -15.1440   24.3230 O.2     9  ASP9       -0.2867
      5  CB        21.5170  -16.3690   22.4670 C.3     9  ASP9        0.1410
      6  CG        21.0860  -15.0460   21.8180 C.2     9  ASP9        0.3668
      7  OD1       21.9160  -14.2060   21.3910 O.co2   9  ASP9       -0.2456
      8  OD2       19.8820  -14.8420   21.7680 O.co2   9  ASP9       -0.2456
      9  N         23.7430  -12.3450   22.8530 N.3    11  PHE11      -0.1227
     10  CA        23.0700  -11.0190   22.8270 C.3    11  PHE11       0.1736
     11  C         21.7990  -10.9110   23.6050 C.2    11  PHE11       0.2596
     12  O         21.2010   -9.8790   23.5720 O.2    11  PHE11      -0.2718
     13  CB        22.8710  -10.6330   21.3880 C.3    11  PHE11       0.0547
     14  CG        24.0860  -10.8180   20.5810 C.ar   11  PHE11      -0.0202
     15  CD1       25.1080   -9.8770   20.6740 C.ar   11  PHE11      -0.0042
     16  CD2       24.2230  -11.8790   19.6870 C.ar   11  PHE11      -0.0042
     17  CE1       26.2430  -10.0100   19.9840 C.ar   11  PHE11      -0.0003
     18  CE2       25.3960  -12.0260   18.9200 C.ar   11  PHE11      -0.0003
     19  CZ        26.3940  -11.0420   19.0530 C.ar   11  PHE11      -0.0000
     20  N         21.3950  -11.9990   24.2480 N.am   12  THR12      -0.1939
     21  CA        20.3340  -12.0270   25.2270 C.3    12  THR12       0.2028
     22  C         21.0560  -12.1440   26.6000 C.2    12  THR12       0.2642
     23  O         21.9460  -12.9910   26.7670 O.2    12  THR12      -0.2714
     24  CB        19.4300  -13.2540   24.9820 C.3    12  THR12       0.1808
     25  OG1       18.7030  -13.0350   23.7480 O.3    12  THR12      -0.2208
     26  CG2       18.3320  -13.4050   26.0900 C.3    12  THR12       0.0379
     27  N         20.6790  -11.3010   27.5310 N.am   13  GLY13      -0.1954
     28  CA        21.2730  -11.2710   28.8620 C.3    13  GLY13       0.1869
     29  C         20.9130   -9.9990   29.5900 C.2    13  GLY13       0.2309
     30  O         19.8430   -9.5040   29.3730 O.2    13  GLY13      -0.2863
     31  N         28.4100   -6.9420   29.9830 N.3    54  TRP54      -0.1241
     32  CA        27.2170   -7.5640   29.4780 C.3    54  TRP54       0.1605
     33  C         27.2790   -9.0590   29.7550 C.2    54  TRP54       0.2264
     34  O         28.2390   -9.6900   29.3400 O.2    54  TRP54      -0.2867
     35  CB        27.0940   -7.2980   27.9700 C.3    54  TRP54       0.0550
     36  CG        25.9220   -8.0820   27.3580 C.ar   54  TRP54       0.0003
     37  CD1       26.0090   -9.2570   26.6480 C.ar   54  TRP54       0.0946
     38  CD2       24.5280   -7.8020   27.4730 C.ar   54  TRP54       0.0152
     39  NE1       24.7620   -9.6510   26.2520 N.ar   54  TRP54      -0.2442
     40  CE2       23.8370   -8.7980   26.7730 C.ar   54  TRP54       0.0810
     41  CE3       23.7820   -6.7950   28.1050 C.ar   54  TRP54       0.0012
     42  CZ2       22.4180   -8.7840   26.6480 C.ar   54  TRP54       0.0191
     43  CZ3       22.4040   -6.7940   27.9790 C.ar   54  TRP54       0.0001
     44  CH2       21.7380   -7.7920   27.2620 C.ar   54  TRP54       0.0015
     45  N         16.7570   -3.2400   10.9850 N.3   275  PHE275     -0.1241
     46  CA        17.2450   -4.3790   11.7260 C.3   275  PHE275      0.1605
     47  C         16.7540   -5.7140   11.0930 C.2   275  PHE275      0.2264
     48  O         17.5630   -6.5920   10.8630 O.2   275  PHE275     -0.2867
     49  CB        16.8330   -4.2110   13.1990 C.3   275  PHE275      0.0534
     50  CG        17.3170   -5.3220   14.0870 C.ar  275  PHE275     -0.0203
     51  CD1       16.5910   -6.5010   14.2370 C.ar  275  PHE275     -0.0042
     52  CD2       18.4870   -5.1800   14.8160 C.ar  275  PHE275     -0.0042
     53  CE1       17.0930   -7.5310   14.9860 C.ar  275  PHE275     -0.0003
     54  CE2       18.9350   -6.1960   15.6620 C.ar  275  PHE275     -0.0003
     55  CZ        18.2240   -7.3630   15.7590 C.ar  275  PHE275     -0.0000
     56  N         19.1290   -8.5390    9.5120 N.3   279  GLU279     -0.1245
     57  CA        19.0640   -9.8810   10.0890 C.3   279  GLU279      0.1567
     58  C         18.7290  -10.9110    9.0090 C.2   279  GLU279      0.2260
     59  O         19.3780  -11.9720    8.8800 O.2   279  GLU279     -0.2867
     60  CB        17.9820   -9.9570   11.1820 C.3   279  GLU279      0.0388
     61  CG        17.4510  -11.3590   11.5100 C.3   279  GLU279      0.1160
     62  CD        16.1850  -11.3710   12.3930 C.2   279  GLU279      0.3649
     63  OE1       15.5340  -10.3150   12.6570 O.co2 279  GLU279     -0.2457
     64  OE2       15.8080  -12.4750   12.8520 O.co2 279  GLU279     -0.2457
     65  N         21.5050  -13.6570    7.3600 N.3   283  HIS283     -0.1241
     66  CA        21.3430  -15.0930    7.5760 C.3   283  HIS283      0.1621
     67  C         21.1240  -15.8350    6.2410 C.2   283  HIS283      0.2264
     68  O         21.4760  -16.9930    6.1240 O.2   283  HIS283     -0.2867
     69  CB        20.2600  -15.3790    8.6090 C.3   283  HIS283      0.0745
     70  CG        20.5950  -14.8980    9.9950 C.ar  283  HIS283      0.0817
     71  ND1       21.1350  -13.6530   10.2470 N.ar  283  HIS283     -0.2268
     72  CD2       20.4360  -15.4870   11.2060 C.ar  283  HIS283      0.1154
     73  CE1       21.2990  -13.5000   11.5470 C.ar  283  HIS283      0.1986
     74  NE2       20.8800  -14.5950   12.1540 N.ar  283  HIS283     -0.2212
     75  N         25.9370  -12.1930   12.8230 N.3   291  PHE291     -0.1241
     76  CA        25.1830  -10.9860   13.0460 C.3   291  PHE291      0.1605
     77  C         25.4440  -10.5450   14.4710 C.2   291  PHE291      0.2264
     78  O         25.0170  -11.2040   15.4170 O.2   291  PHE291     -0.2867
     79  CB        23.7360  -11.2770   12.7710 C.3   291  PHE291      0.0534
     80  CG        22.8040  -10.0560   12.8640 C.ar  291  PHE291     -0.0203
     81  CD1       22.8410   -9.0500   11.9000 C.ar  291  PHE291     -0.0042
     82  CD2       21.9050   -9.9570   13.8840 C.ar  291  PHE291     -0.0042
     83  CE1       21.9830   -7.9730   11.9650 C.ar  291  PHE291     -0.0003
     84  CE2       21.0100   -8.8970   13.9520 C.ar  291  PHE291     -0.0003
     85  CZ        21.0500   -7.9090   12.9750 C.ar  291  PHE291     -0.0000
     86  N         24.2490   -8.7740   17.1840 N.3   293  ASN293     -0.1240
     87  CA        22.9760   -8.2620   17.5360 C.3   293  ASN293      0.1653
     88  C         23.0980   -7.3420   18.7700 C.2   293  ASN293      0.2266
     89  O         22.7670   -7.7490   19.9020 O.2   293  ASN293     -0.2867
     90  CB        22.0150   -9.4080   17.7350 C.3   293  ASN293      0.1155
     91  CG        20.7120   -8.9690   18.2470 C.2   293  ASN293      0.2627
     92  OD1       20.3540   -7.7690   18.1280 O.2   293  ASN293     -0.2716
     93  ND2       19.9490   -9.9320   18.8380 N.am  293  ASN293     -0.0877
     94  N         19.3510   -3.9180   21.0690 N.3   296  LYS296     -0.1231
     95  CA        18.6020   -3.7940   22.3060 C.3   296  LYS296      0.1693
     96  C         19.5420   -3.6540   23.4800 C.2   296  LYS296      0.2591
     97  O         19.3130   -2.7980   24.3530 O.2   296  LYS296     -0.2718
     98  CB        17.5690   -4.9350   22.5130 C.3   296  LYS296      0.0285
     99  CG        16.6310   -4.7410   23.7230 C.3   296  LYS296      0.0035
    100  CD        16.2460   -3.2940   24.1600 C.3   296  LYS296      0.0206
    101  CE        14.7480   -3.0270   24.2350 C.3   296  LYS296      0.1093
    102  NZ        13.9700   -3.7240   25.3100 N.3   296  LYS296     -0.1314
    103  N         20.6320   -4.4280   23.5150 N.am  297  LEU297     -0.1980
    104  CA        21.5310   -4.3130   24.6280 C.3   297  LEU297      0.1596
    105  C         22.1400   -2.9390   24.7110 C.2   297  LEU297      0.2287
    106  O         22.3870   -2.4210   25.8520 O.2   297  LEU297     -0.2864
    107  CB        22.5990   -5.4190   24.6600 C.3   297  LEU297      0.0297
    108  CG        23.6640   -5.5770   23.5680 C.3   297  LEU297      0.0022
    109  CD1       24.8780   -4.6910   23.8300 C.3   297  LEU297      0.0001
    110  CD2       24.0500   -7.0490   23.3820 C.3   297  LEU297      0.0001
    111  N         19.8770   -0.0640   26.3930 N.3   300  TYR300     -0.1241
    112  CA        19.8750    0.1330   27.8320 C.3   300  TYR300      0.1605
    113  C         20.9250    1.1860   28.2540 C.2   300  TYR300      0.2264
    114  O         20.8180    1.7540   29.3280 O.2   300  TYR300     -0.2867
    115  CB        20.2150   -1.1510   28.5910 C.3   300  TYR300      0.0534
    116  CG        19.2000   -2.2330   28.3390 C.ar  300  TYR300     -0.0201
    117  CD1       17.8280   -2.0470   28.5940 C.ar  300  TYR300     -0.0009
    118  CD2       19.5900   -3.3840   27.7720 C.ar  300  TYR300     -0.0009
    119  CE1       16.8840   -3.0480   28.3350 C.ar  300  TYR300      0.0417
    120  CE2       18.6760   -4.4040   27.4740 C.ar  300  TYR300      0.0417
    121  CZ        17.3400   -4.2290   27.7170 C.ar  300  TYR300      0.1957
    122  OH        16.4720   -5.2650   27.4980 O.3   300  TYR300     -0.2866
@<TRIPOS>BOND
     1    68    67    2
     2    67    66    1
     3    65    66    1
     4    66    69    1
     5    69    70    1
     6    59    58    2
     7    58    57    1
     8    56    57    1
     9    70    71   ar
    10    70    72   ar
    11    57    60    1
    12    71    73   ar
    13    48    47    2
    14    45    46    1
    15    47    46    1
    16    60    61    1
    17    72    74   ar
    18    61    62    1
    19    73    74   ar
    20    46    49    1
    21    81    83   ar
    22    81    80   ar
    23    83    85   ar
    24    62    63   ar
    25    62    64   ar
    26    79    80    1
    27    79    76    1
    28    75    76    1
    29    80    82   ar
    30    85    84   ar
    31    76    77    1
    32    49    50    1
    33    82    84   ar
    34    50    51   ar
    35    50    52   ar
    36    51    53   ar
    37    77    78    2
    38    52    54   ar
    39    53    55   ar
    40    54    55   ar
    41    86    87    1
    42    87    90    1
    43    87    88    1
    44    90    91    1
    45    92    91    2
    46    91    93   am
    47    88    89    2
    48    18    19   ar
    49    18    16   ar
    50    19    17   ar
    51    16    14   ar
    52    17    15   ar
    53    14    15   ar
    54    14    13    1
    55    94    95    1
    56    13    10    1
    57     7     6   ar
    58     8     6   ar
    59     6     5    1
    60    95    98    1
    61    95    96    1
    62     2     5    1
    63     2     1    1
    64     2     3    1
    65    98    99    1
    66    10     9    1
    67    10    11    1
    68     3     4    2
    69   110   108    1
    70    96   103   am
    71    96    97    2
    72   103   104    1
    73   108   109    1
    74   108   107    1
    75    12    11    2
    76    11    20   am
    77    99   100    1
    78    25    24    1
    79   100   101    1
    80   101   102    1
    81    20    21    1
    82   104   107    1
    83   104   105    1
    84   105   106    2
    85    24    21    1
    86    24    26    1
    87    21    22    1
    88    39    37   ar
    89    39    40   ar
    90   111   112    1
    91    22    23    2
    92    22    27   am
    93    37    36   ar
    94    42    40   ar
    95    42    44   ar
    96    40    38   ar
    97    44    43   ar
    98    36    38   ar
    99    36    35    1
   100    38    41   ar
   101   120   121   ar
   102   120   118   ar
   103   122   121    1
   104    27    28    1
   105   121   119   ar
   106   118   116   ar
   107   112   113    1
   108   112   115    1
   109    35    32    1
   110    43    41   ar
   111   113   114    2
   112   119   117   ar
   113   116   115    1
   114   116   117   ar
   115    28    29    1
   116    34    33    2
   117    30    29    2
   118    32    33    1
   119    32    31    1
