@<TRIPOS>MOLECULE
tmp/6cckB00.pdb
 143 139 0 0 0
SMALL
GASTEIGER

@<TRIPOS>ATOM
      1  N         39.8700  -25.6640   55.5850 N.3     8  PRO8       -0.2102
      2  CA        40.5360  -26.9320   55.9160 C.3     8  PRO8        0.1504
      3  C         41.2840  -27.5880   54.7860 C.2     8  PRO8        0.2576
      4  O         40.9570  -27.3980   53.6210 O.2     8  PRO8       -0.2718
      5  CB        39.3670  -27.8020   56.3940 C.3     8  PRO8        0.0282
      6  CG        38.2110  -27.3550   55.5010 C.3     8  PRO8        0.0208
      7  CD        38.4180  -25.8590   55.3340 C.3     8  PRO8        0.0893
      8  N         42.2630  -28.4090   55.1300 N.am    9  GLY9       -0.1943
      9  CA        42.9910  -29.1520   54.1100 C.3     9  GLY9        0.2014
     10  C         44.1780  -29.8670   54.6970 C.2     9  GLY9        0.2639
     11  O         44.3950  -29.8250   55.9130 O.2     9  GLY9       -0.2714
     12  N         44.9560  -30.5350   53.8470 N.am   10  THR10      -0.1950
     13  CA        46.1790  -31.2060   54.3070 C.3    10  THR10       0.1897
     14  C         47.3630  -30.2510   54.2680 C.2    10  THR10       0.2313
     15  O         48.2520  -30.3690   55.1120 O.2    10  THR10      -0.2863
     16  CB        46.4670  -32.5110   53.5550 C.3    10  THR10       0.1794
     17  OG1       46.5460  -32.2680   52.1450 O.3    10  THR10      -0.2208
     18  CG2       45.4560  -33.5920   53.8670 C.3    10  THR10       0.0378
     19  N         44.8820  -30.8090   58.5820 N.3    37  ALA37      -0.1231
     20  CA        44.5530  -32.1920   58.9450 C.3    37  ALA37       0.1694
     21  C         45.7440  -32.9150   59.5550 C.2    37  ALA37       0.2592
     22  O         46.8050  -33.0260   58.9270 O.2    37  ALA37      -0.2718
     23  CB        44.0740  -32.9580   57.7220 C.3    37  ALA37       0.0304
     24  N         45.5640  -33.4170   60.7840 N.am   38  ALA38      -0.1966
     25  CA        46.6440  -34.1010   61.4990 C.3    38  ALA38       0.1728
     26  C         46.9880  -35.4570   60.9260 C.2    38  ALA38       0.2617
     27  O         48.1680  -35.7950   60.7940 O.2    38  ALA38      -0.2715
     28  CB        46.2560  -34.2610   62.9710 C.3    38  ALA38       0.0334
     29  N         45.9660  -36.2630   60.6440 N.am   39  SER39      -0.1936
     30  CA        46.1340  -37.6470   60.2080 C.3    39  SER39       0.2040
     31  C         45.3660  -37.9540   58.9260 C.2    39  SER39       0.2485
     32  O         44.3530  -38.6630   58.9820 O.2    39  SER39      -0.2729
     33  CB        45.7070  -38.5990   61.3220 C.3    39  SER39       0.2129
     34  OG        46.3840  -38.3400   62.5400 O.3    39  SER39      -0.2179
     35  N         45.8420  -37.4750   57.7590 N.am   40  PRO40      -0.2715
     36  CA        45.1420  -37.8090   56.5030 C.3    40  PRO40       0.1536
     37  C         45.2490  -39.3000   56.1640 C.2    40  PRO40       0.2599
     38  O         46.1370  -39.9750   56.6940 O.2    40  PRO40      -0.2715
     39  CB        45.8420  -36.9400   55.4610 C.3    40  PRO40       0.0310
     40  CG        47.1810  -36.6200   56.0490 C.3    40  PRO40       0.0237
     41  CD        47.0400  -36.6330   57.5190 C.3    40  PRO40       0.0939
     42  N         44.3410  -39.8200   55.3040 N.am   41  SER41      -0.1950
     43  CA        44.3540  -41.2380   54.8780 C.3    41  SER41       0.1924
     44  C         45.7010  -41.6300   54.2620 C.2    41  SER41       0.2314
     45  O         46.2280  -42.7020   54.5660 O.2    41  SER41      -0.2863
     46  CB        43.2190  -41.5240   53.8970 C.3    41  SER41       0.2116
     47  OG        41.9610  -41.5110   54.5520 O.3    41  SER41      -0.2180
     48  N         43.9830  -30.1830   63.3170 N.3    70  PHE70      -0.1227
     49  CA        42.7640  -30.8710   63.7430 C.3    70  PHE70       0.1736
     50  C         42.7480  -32.3080   63.2470 C.2    70  PHE70       0.2596
     51  O         43.2560  -32.6020   62.1590 O.2    70  PHE70      -0.2718
     52  CB        41.4920  -30.1420   63.2600 C.3    70  PHE70       0.0547
     53  CG        41.1340  -30.3230   61.8010 C.ar   70  PHE70      -0.0202
     54  CD1       41.8450  -29.6580   60.8060 C.ar   70  PHE70      -0.0042
     55  CD2       40.0350  -31.1000   61.4250 C.ar   70  PHE70      -0.0042
     56  CE1       41.5000  -29.8050   59.4460 C.ar   70  PHE70      -0.0003
     57  CE2       39.6920  -31.2480   60.0700 C.ar   70  PHE70      -0.0003
     58  CZ        40.4110  -30.5710   59.0950 C.ar   70  PHE70      -0.0000
     59  N         42.0940  -33.1880   64.0000 N.am   71  SER71      -0.1938
     60  CA        42.0090  -34.6020   63.6360 C.3    71  SER71       0.2055
     61  C         40.5650  -35.1080   63.4920 C.2    71  SER71       0.2643
     62  O         40.3590  -36.2600   63.0890 O.2    71  SER71      -0.2714
     63  CB        42.7280  -35.4530   64.6850 C.3    71  SER71       0.2130
     64  OG        42.1850  -35.2040   65.9750 O.3    71  SER71      -0.2179
     65  N         39.5910  -34.2560   63.7770 N.am   72  ASP72      -0.1957
     66  CA        38.1920  -34.6360   63.7210 C.3    72  ASP72       0.1840
     67  C         37.5390  -34.3340   62.3950 C.2    72  ASP72       0.2622
     68  O         38.1920  -33.8640   61.4630 O.2    72  ASP72      -0.2715
     69  CB        37.4260  -33.9800   64.8750 C.3    72  ASP72       0.1450
     70  CG        37.4550  -32.4640   64.9420 C.2    72  ASP72       0.3671
     71  OD1       38.4010  -31.8570   64.3880 O.co2  72  ASP72      -0.2456
     72  OD2       36.5880  -31.8910   65.6220 O.co2  72  ASP72      -0.2456
     73  N         36.2260  -34.6170   62.3040 N.am   73  LEU73      -0.1963
     74  CA        35.4500  -34.3110   61.1210 C.3    73  LEU73       0.1728
     75  C         35.5470  -32.7730   60.9330 C.2    73  LEU73       0.2616
     76  O         35.5040  -32.0390   61.9230 O.2    73  LEU73      -0.2715
     77  CB        34.0280  -34.7040   61.5200 C.3    73  LEU73       0.0311
     78  CG        33.0180  -35.0710   60.5070 C.3    73  LEU73       0.0022
     79  CD1       33.4510  -36.2690   59.6500 C.3    73  LEU73       0.0001
     80  CD2       31.7140  -35.3320   61.2120 C.3    73  LEU73       0.0001
     81  N         35.7440  -32.2930   59.7020 N.am   74  MET74      -0.1977
     82  CA        35.8860  -30.8480   59.4680 C.3    74  MET74       0.1605
     83  C         34.6260  -30.0810   59.9330 C.2    74  MET74       0.2287
     84  O         34.7490  -28.9540   60.4250 O.2    74  MET74      -0.2864
     85  CB        36.3040  -30.5190   58.0120 C.3    74  MET74       0.0413
     86  CG        35.2920  -30.8770   56.9590 C.3    74  MET74       0.0598
     87  SD        35.9030  -30.5080   55.2790 S.3    74  MET74      -0.1393
     88  CE        36.9280  -31.9520   54.9670 C.3    74  MET74       0.0692
     89  N         36.3550  -23.5090   50.4960 N.3    88  ARG88      -0.1245
     90  CA        36.9520  -24.5120   49.6080 C.3    88  ARG88       0.1563
     91  C         37.5300  -23.7330   48.4290 C.2    88  ARG88       0.2260
     92  O         36.9090  -22.7810   47.9520 O.2    88  ARG88      -0.2867
     93  CB        35.9070  -25.5070   49.0510 C.3    88  ARG88       0.0307
     94  CG        35.2150  -26.3510   50.1160 C.3    88  ARG88       0.0489
     95  CD        36.1710  -27.3380   50.7540 C.3    88  ARG88       0.2205
     96  NE        36.7060  -28.3100   49.7940 N.pl3  88  ARG88      -0.0865
     97  CZ        37.7040  -29.1530   50.0540 C.cat  88  ARG88       0.5346
     98  NH1       38.3090  -29.1310   51.2310 N.pl3  88  ARG88       0.1354
     99  NH2       38.1110  -30.0170   49.1280 N.pl3  88  ARG88       0.1354
    100  N         33.3930  -34.3130   43.4390 N.3    98  TYR98      -0.1241
    101  CA        33.7850  -34.5180   44.8430 C.3    98  TYR98       0.1605
    102  C         33.3990  -33.3080   45.7110 C.2    98  TYR98       0.2264
    103  O         32.9270  -33.5030   46.8300 O.2    98  TYR98      -0.2867
    104  CB        35.2930  -34.8670   44.9930 C.3    98  TYR98       0.0534
    105  CG        35.7080  -35.0410   46.4400 C.ar   98  TYR98      -0.0201
    106  CD1       35.2630  -36.1290   47.1860 C.ar   98  TYR98      -0.0009
    107  CD2       36.4760  -34.0750   47.0880 C.ar   98  TYR98      -0.0009
    108  CE1       35.5980  -36.2690   48.5320 C.ar   98  TYR98       0.0417
    109  CE2       36.8230  -34.2090   48.4330 C.ar   98  TYR98       0.0417
    110  CZ        36.3860  -35.3110   49.1500 C.ar   98  TYR98       0.1957
    111  OH        36.7160  -35.4510   50.4790 O.3    98  TYR98      -0.2866
    112  N         31.1480  -33.5300   49.0570 N.3   102  LEU102     -0.1245
    113  CA        31.6250  -33.0000   50.3210 C.3   102  LEU102      0.1561
    114  C         30.7150  -31.9260   50.8970 C.2   102  LEU102      0.2260
    115  O         30.3970  -31.9980   52.0860 O.2   102  LEU102     -0.2867
    116  CB        33.0710  -32.4860   50.1490 C.3   102  LEU102      0.0270
    117  CG        33.7880  -32.0470   51.4230 C.3   102  LEU102      0.0019
    118  CD1       34.0180  -33.2410   52.3680 C.3   102  LEU102      0.0001
    119  CD2       35.1370  -31.4330   51.0760 C.3   102  LEU102      0.0001
    120  N         27.4130  -33.4380   52.1840 N.3   105  MET105     -0.1230
    121  CA        27.6420  -34.2160   53.4160 C.3   105  MET105      0.1702
    122  C         27.9120  -33.2450   54.5820 C.2   105  MET105      0.2592
    123  O         27.3880  -33.4400   55.6840 O.2   105  MET105     -0.2718
    124  CB        28.8150  -35.1870   53.2230 C.3   105  MET105      0.0401
    125  CG        29.0950  -36.0510   54.4690 C.3   105  MET105      0.0596
    126  SD        27.6630  -37.0520   54.9930 S.3   105  MET105     -0.1393
    127  CE        27.6990  -38.3640   53.6920 C.3   105  MET105      0.0692
    128  N         28.7510  -32.2280   54.3600 N.am  106  ASN106     -0.1974
    129  CA        28.9980  -31.2220   55.4050 C.3   106  ASN106      0.1688
    130  C         27.6910  -30.5360   55.8670 C.2   106  ASN106      0.2292
    131  O         27.5170  -30.2880   57.0600 O.2   106  ASN106     -0.2864
    132  CB        30.0210  -30.1970   54.8910 C.3   106  ASN106      0.1181
    133  CG        31.4240  -30.6870   55.1210 C.2   106  ASN106      0.2629
    134  OD1       31.6950  -31.4240   56.0900 O.2   106  ASN106     -0.2716
    135  ND2       32.3360  -30.3020   54.2610 N.am  106  ASN106     -0.0877
    136  N         25.8170  -32.8890   58.1370 N.3   109  LEU109     -0.1245
    137  CA        26.4420  -32.9640   59.4660 C.3   109  LEU109      0.1561
    138  C         26.2540  -31.6810   60.2860 C.2   109  LEU109      0.2260
    139  O         26.0890  -31.7630   61.5060 O.2   109  LEU109     -0.2867
    140  CB        27.9380  -33.2840   59.3230 C.3   109  LEU109      0.0270
    141  CG        28.2640  -34.6640   58.6870 C.3   109  LEU109      0.0019
    142  CD1       29.6940  -34.6890   58.1480 C.3   109  LEU109      0.0001
    143  CD2       28.0390  -35.8090   59.6740 C.3   109  LEU109      0.0001
@<TRIPOS>BOND
     1   100   101    1
     2   101   104    1
     3   101   102    1
     4   104   105    1
     5   102   103    2
     6   105   107   ar
     7   105   106   ar
     8   107   109   ar
     9   106   108   ar
    10    92    91    2
    11    91    90    1
    12   109   110   ar
    13   108   110   ar
    14    93    90    1
    15    93    94    1
    16   112   113    1
    17    99    97    1
    18   110   111    1
    19    90    89    1
    20    96    97    2
    21    96    95    1
    22    97    98    1
    23    94    95    1
    24   116   113    1
    25   116   117    1
    26   113   114    1
    27   114   115    2
    28   119   117    1
    29   117   118    1
    30    17    16    1
    31   120   121    1
    32   124   121    1
    33   124   125    1
    34   121   122    1
    35    16    18    1
    36    16    13    1
    37     4     3    2
    38   127   126    1
    39    12    13    1
    40    12    10   am
    41    46    47    1
    42    46    43    1
    43     9    10    1
    44     9     8    1
    45   135   133   am
    46    44    45    2
    47    44    43    1
    48    14    13    1
    49    14    15    2
    50   128   122   am
    51   128   129    1
    52   125   126    1
    53   122   123    2
    54    10    11    2
    55     3     8   am
    56     3     2    1
    57    43    42    1
    58   132   133    1
    59   132   129    1
    60    88    87    1
    61   133   134    2
    62    87    86    1
    63    42    37   am
    64     7     6    1
    65     7     1    1
    66   129   130    1
    67    39    40    1
    68    39    36    1
    69     6     5    1
    70     1     2    1
    71   130   131    2
    72     2     5    1
    73    40    41    1
    74    37    36    1
    75    37    38    2
    76    36    35    1
    77    86    85    1
    78    41    35    1
    79    23    20    1
    80    35    31   am
    81    85    82    1
    82   136   137    1
    83   142   141    1
    84    19    20    1
    85   141   140    1
    86   141   143    1
    87    31    32    2
    88    31    30    1
    89    22    21    2
    90    20    21    1
    91    58    56   ar
    92    58    57   ar
    93   140   137    1
    94    56    54   ar
    95   137   138    1
    96    82    81    1
    97    82    83    1
    98    21    24   am
    99    79    78    1
   100    81    75   am
   101    83    84    2
   102    57    55   ar
   103    30    29    1
   104    30    33    1
   105   138   139    2
   106    78    80    1
   107    78    77    1
   108    29    26   am
   109    24    25    1
   110    27    26    2
   111    54    53   ar
   112    26    25    1
   113    75    74    1
   114    75    76    2
   115    74    77    1
   116    74    73    1
   117    33    34    1
   118    55    53   ar
   119    68    67    2
   120    25    28    1
   121    53    52    1
   122    51    50    2
   123    73    67   am
   124    67    66    1
   125    62    61    2
   126    50    49    1
   127    50    59   am
   128    52    49    1
   129    48    49    1
   130    61    60    1
   131    61    65   am
   132    60    59    1
   133    60    63    1
   134    66    65    1
   135    66    69    1
   136    71    70   ar
   137    63    64    1
   138    69    70    1
   139    70    72   ar
