@<TRIPOS>MOLECULE
tmp/6cckB01.pdb
 186 181 0 0 0
SMALL
GASTEIGER

@<TRIPOS>ATOM
      1  N         39.2230  -22.8310   56.7960 N.3     7  TYR7       -0.1228
      2  CA        39.7630  -23.1960   55.4870 C.3     7  TYR7        0.1721
      3  C         40.5530  -24.4950   55.6920 C.2     7  TYR7        0.2437
      4  O         41.7470  -24.4610   56.0280 O.2     7  TYR7       -0.2733
      5  CB        40.6430  -22.0530   54.9350 C.3     7  TYR7        0.0547
      6  CG        41.3320  -22.3470   53.6170 C.ar    7  TYR7       -0.0200
      7  CD1       40.7280  -23.1590   52.6480 C.ar    7  TYR7       -0.0009
      8  CD2       42.6140  -21.8640   53.3580 C.ar    7  TYR7       -0.0009
      9  CE1       41.3590  -23.4270   51.4360 C.ar    7  TYR7        0.0417
     10  CE2       43.2530  -22.1260   52.1430 C.ar    7  TYR7        0.0417
     11  CZ        42.6420  -22.9410   51.2070 C.ar    7  TYR7        0.1957
     12  OH        43.2750  -23.1960   50.0080 O.3     7  TYR7       -0.2866
     13  N         39.8700  -25.6640   55.5850 N.am    8  PRO8       -0.2718
     14  CA        40.5360  -26.9320   55.9160 C.3     8  PRO8        0.1535
     15  C         41.2840  -27.5880   54.7860 C.2     8  PRO8        0.2599
     16  O         40.9570  -27.3980   53.6210 O.2     8  PRO8       -0.2715
     17  CB        39.3670  -27.8020   56.3940 C.3     8  PRO8        0.0310
     18  CG        38.2110  -27.3550   55.5010 C.3     8  PRO8        0.0237
     19  CD        38.4180  -25.8590   55.3340 C.3     8  PRO8        0.0939
     20  N         42.2630  -28.4090   55.1300 N.am    9  GLY9       -0.1941
     21  CA        42.9910  -29.1520   54.1100 C.3     9  GLY9        0.2014
     22  C         44.1780  -29.8670   54.6970 C.2     9  GLY9        0.2640
     23  O         44.3950  -29.8250   55.9130 O.2     9  GLY9       -0.2714
     24  N         44.9560  -30.5350   53.8470 N.am   10  THR10      -0.1936
     25  CA        46.1790  -31.2060   54.3070 C.3    10  THR10       0.2028
     26  C         47.3630  -30.2510   54.2680 C.2    10  THR10       0.2642
     27  O         48.2520  -30.3690   55.1120 O.2    10  THR10      -0.2714
     28  CB        46.4670  -32.5110   53.5550 C.3    10  THR10       0.1808
     29  OG1       46.5460  -32.2680   52.1450 O.3    10  THR10      -0.2208
     30  CG2       45.4560  -33.5920   53.8670 C.3    10  THR10       0.0379
     31  N         47.3950  -29.3100   53.2830 N.am   11  PHE11      -0.1959
     32  CA        48.4860  -28.3160   53.1300 C.3    11  PHE11       0.1771
     33  C         49.8890  -28.9990   53.2130 C.2    11  PHE11       0.2619
     34  O         50.7010  -28.7120   54.1120 O.2    11  PHE11      -0.2715
     35  CB        48.3420  -27.1640   54.1450 C.3    11  PHE11       0.0574
     36  CG        47.0030  -26.4690   54.1040 C.ar   11  PHE11      -0.0200
     37  CD1       46.7530  -25.4590   53.1820 C.ar   11  PHE11      -0.0042
     38  CD2       45.9750  -26.8510   54.9640 C.ar   11  PHE11      -0.0042
     39  CE1       45.5030  -24.8340   53.1270 C.ar   11  PHE11      -0.0003
     40  CE2       44.7440  -26.1970   54.9390 C.ar   11  PHE11      -0.0003
     41  CZ        44.5150  -25.1890   54.0260 C.ar   11  PHE11      -0.0000
     42  N         50.1040  -29.9700   52.3310 N.am   12  ASP12      -0.1971
     43  CA        51.2840  -30.8230   52.3510 C.3    12  ASP12       0.1709
     44  C         52.1320  -30.6830   51.0700 C.2    12  ASP12       0.2293
     45  O         52.1630  -31.6100   50.2630 O.2    12  ASP12      -0.2864
     46  CB        50.8550  -32.2920   52.5510 C.3    12  ASP12       0.1436
     47  CG        52.0190  -33.2620   52.6440 C.2    12  ASP12       0.3671
     48  OD1       53.0530  -32.8930   53.2390 O.co2  12  ASP12      -0.2456
     49  OD2       51.9230  -34.3590   52.0560 O.co2  12  ASP12      -0.2456
     50  N         50.9790  -24.1060   49.2670 N.3    15  THR15      -0.1218
     51  CA        51.4860  -23.5270   48.0160 C.3    15  THR15       0.1862
     52  C         50.9570  -22.0910   47.8360 C.2    15  THR15       0.2287
     53  O         50.0630  -21.6480   48.5680 O.2    15  THR15      -0.2866
     54  CB        51.0270  -24.3580   46.7780 C.3    15  THR15       0.1770
     55  OG1       49.6240  -24.1270   46.5500 O.3    15  THR15      -0.2211
     56  CG2       51.3100  -25.8680   46.9240 C.3    15  THR15       0.0375
     57  N         48.8850  -21.2660   45.6630 N.3    17  GLY17      -0.1210
     58  CA        47.4420  -21.4010   45.4070 C.3    17  GLY17       0.1956
     59  C         46.6600  -21.3070   46.7130 C.2    17  GLY17       0.2611
     60  O         45.6690  -20.5710   46.8130 O.2    17  GLY17      -0.2717
     61  N         47.1050  -22.0470   47.7390 N.am   18  HIS18      -0.1975
     62  CA        46.4710  -21.9810   49.0730 C.3    18  HIS18       0.1656
     63  C         46.5830  -20.5520   49.6440 C.2    18  HIS18       0.2291
     64  O         45.6180  -20.0760   50.2330 O.2    18  HIS18      -0.2864
     65  CB        47.1440  -22.9220   50.0780 C.3    18  HIS18       0.0771
     66  CG        47.1310  -24.3800   49.7310 C.ar   18  HIS18       0.0820
     67  ND1       48.2900  -25.0430   49.4130 N.ar   18  HIS18      -0.2267
     68  CD2       46.1190  -25.2730   49.7550 C.ar   18  HIS18       0.1154
     69  CE1       47.9520  -26.3040   49.2010 C.ar   18  HIS18       0.1986
     70  NE2       46.6600  -26.4950   49.4010 N.ar   18  HIS18      -0.2212
     71  N         43.9690  -18.3260   48.0900 N.3    21  ILE21      -0.1245
     72  CA        42.6120  -18.5580   48.6380 C.3    21  ILE21       0.1561
     73  C         42.4690  -17.9970   50.0480 C.2    21  ILE21       0.2260
     74  O         41.4680  -17.3450   50.3310 O.2    21  ILE21      -0.2867
     75  CB        42.2500  -20.0670   48.5810 C.3    21  ILE21       0.0252
     76  CG1       42.2480  -20.6270   47.1320 C.3    21  ILE21       0.0019
     77  CG2       40.9070  -20.3790   49.2870 C.3    21  ILE21       0.0019
     78  CD1       41.1790  -19.9490   46.1470 C.3    21  ILE21       0.0001
     79  N         46.2650  -40.7470   53.4190 N.3    42  LYS42      -0.1245
     80  CA        47.5710  -40.9580   52.7980 C.3    42  LYS42       0.1561
     81  C         48.6260  -40.2580   53.6550 C.2    42  LYS42       0.2260
     82  O         48.4210  -39.1010   54.0510 O.2    42  LYS42      -0.2867
     83  CB        47.5860  -40.4060   51.3620 C.3    42  LYS42       0.0271
     84  CG        47.5800  -38.8990   51.2430 C.3    42  LYS42       0.0035
     85  CD        47.6530  -38.5210   49.7790 C.3    42  LYS42       0.0206
     86  CE        48.0990  -37.0770   49.5980 C.3    42  LYS42       0.1093
     87  NZ        49.3850  -36.8150   50.3410 N.3    42  LYS42      -0.1314
     88  N         35.5050  -22.6560   53.8150 N.3    87  ILE87      -0.1231
     89  CA        36.1050  -22.2170   52.5490 C.3    87  ILE87       0.1692
     90  C         36.6680  -23.4140   51.8020 C.2    87  ILE87       0.2592
     91  O         37.4730  -24.1660   52.3650 O.2    87  ILE87      -0.2718
     92  CB        37.2760  -21.2170   52.8360 C.3    87  ILE87       0.0266
     93  CG1       36.8020  -19.9500   53.6150 C.3    87  ILE87       0.0019
     94  CG2       38.0570  -20.8440   51.5540 C.3    87  ILE87       0.0020
     95  CD1       35.8820  -19.0160   52.8630 C.3    87  ILE87       0.0001
     96  N         36.3550  -23.5090   50.4960 N.am   88  ARG88      -0.1966
     97  CA        36.9520  -24.5120   49.6080 C.3    88  ARG88       0.1729
     98  C         37.5300  -23.7330   48.4290 C.2    88  ARG88       0.2616
     99  O         36.9090  -22.7810   47.9520 O.2    88  ARG88      -0.2715
    100  CB        35.9070  -25.5070   49.0510 C.3    88  ARG88       0.0348
    101  CG        35.2150  -26.3510   50.1160 C.3    88  ARG88       0.0492
    102  CD        36.1710  -27.3380   50.7540 C.3    88  ARG88       0.2205
    103  NE        36.7060  -28.3100   49.7940 N.pl3  88  ARG88      -0.0865
    104  CZ        37.7040  -29.1530   50.0540 C.cat  88  ARG88       0.5346
    105  NH1       38.3090  -29.1310   51.2310 N.pl3  88  ARG88       0.1354
    106  NH2       38.1110  -30.0170   49.1280 N.pl3  88  ARG88       0.1354
    107  N         38.7160  -24.1220   47.9700 N.am   89  GLY89      -0.1955
    108  CA        39.3130  -23.5080   46.7810 C.3    89  GLY89       0.1869
    109  C         38.8820  -24.3200   45.5810 C.2    89  GLY89       0.2309
    110  O         38.9660  -25.5530   45.6180 O.2    89  GLY89      -0.2863
    111  N         39.7110  -24.9060   41.7940 N.3    91  ARG91      -0.1245
    112  CA        40.6540  -24.7690   40.6840 C.3    91  ARG91       0.1563
    113  C         39.9940  -25.0670   39.3480 C.2    91  ARG91       0.2260
    114  O         38.9320  -25.6930   39.2960 O.2    91  ARG91      -0.2867
    115  CB        41.8140  -25.7450   40.8680 C.3    91  ARG91       0.0307
    116  CG        42.7960  -25.3290   41.9280 C.3    91  ARG91       0.0489
    117  CD        43.5910  -26.5480   42.3220 C.3    91  ARG91       0.2205
    118  NE        42.8930  -27.3660   43.3170 N.pl3  91  ARG91      -0.0865
    119  CZ        43.4900  -28.2930   44.0510 C.cat  91  ARG91       0.5346
    120  NH1       42.7990  -28.9860   44.9480 N.pl3  91  ARG91       0.1354
    121  NH2       44.7900  -28.5140   43.9190 N.pl3  91  ARG91       0.1354
    122  N         33.5780  -32.0600   45.1970 N.3    99  GLU99      -0.1245
    123  CA        33.2020  -30.8610   45.9440 C.3    99  GLU99       0.1567
    124  C         31.6960  -30.8490   46.2720 C.2    99  GLU99       0.2260
    125  O         31.3180  -30.5120   47.3950 O.2    99  GLU99      -0.2867
    126  CB        33.6110  -29.5950   45.1700 C.3    99  GLU99       0.0388
    127  CG        35.1280  -29.4760   45.0030 C.3    99  GLU99       0.1160
    128  CD        35.8880  -29.3460   46.3100 C.2    99  GLU99       0.3649
    129  OE1       35.2830  -28.9090   47.3140 O.co2  99  GLU99      -0.2457
    130  OE2       37.0910  -29.6920   46.3380 O.co2  99  GLU99      -0.2457
    131  N         41.0040  -19.3100   42.6450 N.3   120  PRO120     -0.2116
    132  CA        42.3330  -18.6820   42.7070 C.3   120  PRO120      0.1372
    133  C         42.6340  -17.9060   41.4330 C.2   120  PRO120      0.2244
    134  O         41.9340  -18.0400   40.4410 O.2   120  PRO120     -0.2868
    135  CB        43.2910  -19.8790   42.8150 C.3   120  PRO120      0.0268
    136  CG        42.5790  -20.9490   42.0030 C.3   120  PRO120      0.0207
    137  CD        41.1000  -20.7550   42.3320 C.3   120  PRO120      0.0892
    138  N         47.5710  -19.9520   39.5480 N.3   124  TRP124     -0.1241
    139  CA        47.6180  -21.1680   40.3700 C.3   124  TRP124      0.1605
    140  C         46.4460  -22.1180   40.1000 C.2   124  TRP124      0.2264
    141  O         46.2700  -23.0880   40.8450 O.2   124  TRP124     -0.2867
    142  CB        47.5740  -20.7570   41.8750 C.3   124  TRP124      0.0550
    143  CG        48.3260  -19.4960   42.1940 C.ar  124  TRP124      0.0003
    144  CD1       47.8030  -18.3260   42.6740 C.ar  124  TRP124      0.0946
    145  CD2       49.7250  -19.2630   42.0030 C.ar  124  TRP124      0.0152
    146  NE1       48.7940  -17.3800   42.8010 N.ar  124  TRP124     -0.2442
    147  CE2       49.9790  -17.9160   42.3640 C.ar  124  TRP124      0.0810
    148  CE3       50.7920  -20.0510   41.5220 C.ar  124  TRP124      0.0012
    149  CZ2       51.2520  -17.3450   42.2710 C.ar  124  TRP124      0.0191
    150  CZ3       52.0530  -19.4810   41.4240 C.ar  124  TRP124      0.0001
    151  CH2       52.2800  -18.1480   41.8200 C.ar  124  TRP124      0.0015
    152  N         47.5700  -26.1150   39.4120 N.3   127  ILE127     -0.1231
    153  CA        48.5390  -26.8290   40.2600 C.3   127  ILE127      0.1692
    154  C         47.8560  -27.4860   41.4410 C.2   127  ILE127      0.2593
    155  O         46.7150  -27.1570   41.7750 O.2   127  ILE127     -0.2718
    156  CB        49.6940  -25.9200   40.7550 C.3   127  ILE127      0.0266
    157  CG1       49.1810  -24.8260   41.7370 C.3   127  ILE127      0.0019
    158  CG2       50.5260  -25.3440   39.5900 C.3   127  ILE127      0.0020
    159  CD1       50.2800  -24.0680   42.5280 C.3   127  ILE127      0.0001
    160  N         48.5850  -28.3810   42.1040 N.am  128  SER128     -0.1938
    161  CA        48.1470  -29.0490   43.3260 C.3   128  SER128      0.2055
    162  C         49.4010  -29.3300   44.1290 C.2   128  SER128      0.2644
    163  O         50.4920  -29.3430   43.5460 O.2   128  SER128     -0.2714
    164  CB        47.4320  -30.3650   42.9950 C.3   128  SER128      0.2130
    165  OG        48.2660  -31.2460   42.2540 O.3   128  SER128     -0.2179
    166  N         49.2700  -29.5980   45.4430 N.am  129  SER129     -0.1935
    167  CA        50.4450  -29.9780   46.2310 C.3   129  SER129      0.2055
    168  C         51.0140  -31.3010   45.6780 C.2   129  SER129      0.2643
    169  O         52.2370  -31.4330   45.5950 O.2   129  SER129     -0.2714
    170  CB        50.0860  -30.1450   47.7040 C.3   129  SER129      0.2130
    171  OG        49.7050  -28.9080   48.2770 O.3   129  SER129     -0.2179
    172  N         50.1390  -32.2460   45.2690 N.am  130  SER130     -0.1949
    173  CA        50.5900  -33.5300   44.7000 C.3   130  SER130      0.1924
    174  C         51.4600  -33.3290   43.4700 C.2   130  SER130      0.2314
    175  O         52.5680  -33.8820   43.4030 O.2   130  SER130     -0.2863
    176  CB        49.4020  -34.4190   44.3420 C.3   130  SER130      0.2116
    177  OG        48.6830  -34.7810   45.5080 O.3   130  SER130     -0.2180
    178  N         54.8510  -31.7350   44.3760 N.3   133  LYS133     -0.1245
    179  CA        55.7330  -32.7350   44.9780 C.3   133  LYS133      0.1561
    180  C         56.2910  -33.7110   43.9430 C.2   133  LYS133      0.2260
    181  O         57.4880  -34.0250   44.0040 O.2   133  LYS133     -0.2867
    182  CB        55.0180  -33.5180   46.0850 C.3   133  LYS133      0.0271
    183  CG        54.8260  -32.7060   47.3610 C.3   133  LYS133      0.0035
    184  CD        54.1170  -33.5390   48.4240 C.3   133  LYS133      0.0206
    185  CE        52.6440  -33.7650   48.1020 C.3   133  LYS133      0.1093
    186  NZ        51.9720  -34.4160   49.2650 N.3   133  LYS133     -0.1314
@<TRIPOS>BOND
     1   114   113    2
     2   113   112    1
     3   152   153    1
     4   138   139    1
     5   158   156    1
     6   140   139    1
     7   140   141    2
     8   153   156    1
     9   153   154    1
    10   139   142    1
    11   134   133    2
    12   112   115    1
    13   112   111    1
    14   156   157    1
    15   115   116    1
    16   150   148   ar
    17   150   151   ar
    18   133   132    1
    19   154   155    2
    20   154   160   am
    21   148   145   ar
    22   157   159    1
    23   151   149   ar
    24   142   143    1
    25   116   117    1
    26   145   143   ar
    27   145   147   ar
    28   136   137    1
    29   136   135    1
    30   160   161    1
    31   143   144   ar
    32   165   164    1
    33   149   147   ar
    34   117   118    1
    35   137   131    1
    36   147   146   ar
    37   131   132    1
    38   144   146   ar
    39   132   135    1
    40   164   161    1
    41   118   119    2
    42   161   162    1
    43   175   174    2
    44   174   173    1
    45   163   162    2
    46   121   119    1
    47   180   181    2
    48   180   179    1
    49   119   120    1
    50   162   166   am
    51   176   173    1
    52   176   177    1
    53   178   179    1
    54   173   172    1
    55   179   182    1
    56   127   126    1
    57   127   128    1
    58   126   123    1
    59   122   123    1
    60   172   168   am
    61    58    57    1
    62    58    59    1
    63   166   167    1
    64   109   110    2
    65   109   108    1
    66   169   168    2
    67   168   167    1
    68   123   124    1
    69   182   183    1
    70    78    76    1
    71   167   170    1
    72   124   125    2
    73   128   130   ar
    74   128   129   ar
    75    55    54    1
    76    59    60    2
    77    59    61   am
    78    54    56    1
    79    54    51    1
    80   108   107    1
    81    76    75    1
    82   183   184    1
    83   170   171    1
    84    61    62    1
    85    52    51    1
    86    52    53    2
    87    99    98    2
    88   107    98   am
    89    51    50    1
    90    71    72    1
    91   185   184    1
    92   185   186    1
    93    98    97    1
    94    75    72    1
    95    75    77    1
    96    72    73    1
    97   100    97    1
    98   100   101    1
    99    62    63    1
   100    62    65    1
   101   106   104    1
   102    69    70   ar
   103    69    67   ar
   104    70    68   ar
   105    67    66   ar
   106    86    85    1
   107    86    87    1
   108    97    96    1
   109    63    64    2
   110    66    68   ar
   111    66    65    1
   112    85    84    1
   113   103   104    2
   114   103   102    1
   115    12    11    1
   116    73    74    2
   117   104   105    1
   118   101   102    1
   119    45    44    2
   120    96    90   am
   121    44    43    1
   122    11     9   ar
   123    11    10   ar
   124    84    83    1
   125    83    80    1
   126     9     7   ar
   127    94    92    1
   128    90    91    2
   129    90    89    1
   130    49    47   ar
   131    10     8   ar
   132    29    28    1
   133    42    43    1
   134    42    33   am
   135    43    46    1
   136    89    92    1
   137    89    88    1
   138    46    47    1
   139    47    48   ar
   140     7     6   ar
   141    80    79    1
   142    80    81    1
   143    92    93    1
   144    95    93    1
   145    39    37   ar
   146    39    41   ar
   147    32    33    1
   148    32    31    1
   149    32    35    1
   150    37    36   ar
   151    33    34    2
   152    31    26   am
   153     8     6   ar
   154    28    30    1
   155    28    25    1
   156     6     5    1
   157    16    15    2
   158    81    82    2
   159    24    25    1
   160    24    22   am
   161    41    40   ar
   162    36    35    1
   163    36    38   ar
   164    21    22    1
   165    21    20    1
   166    26    25    1
   167    26    27    2
   168    22    23    2
   169    15    20   am
   170    15    14    1
   171     5     2    1
   172    40    38   ar
   173    19    18    1
   174    19    13    1
   175     2     3    1
   176     2     1    1
   177    18    17    1
   178    13     3   am
   179    13    14    1
   180     3     4    2
   181    14    17    1
