@<TRIPOS>MOLECULE
tmp/6cclA00.pdb
 121 112 0 0 0
SMALL
GASTEIGER

@<TRIPOS>ATOM
      1  N         21.8380  -11.7750   38.0110 N.3     8  GLY8       -0.1210
      2  CA        21.2990  -12.8070   37.1370 C.3     8  GLY8        0.1956
      3  C         20.1280  -12.3420   36.3090 C.2     8  GLY8        0.2612
      4  O         19.6610  -11.2180   36.4680 O.2     8  GLY8       -0.2717
      5  N         19.6400  -13.2110   35.4310 N.am    9  THR9       -0.1952
      6  CA        18.5040  -12.8950   34.5550 C.3     9  THR9        0.1897
      7  C         17.1770  -13.0830   35.3080 C.2     9  THR9        0.2313
      8  O         16.2410  -12.2920   35.1150 O.2     9  THR9       -0.2863
      9  CB        18.6320  -13.6580   33.2250 C.3     9  THR9        0.1794
     10  OG1       19.8410  -13.2220   32.5770 O.3     9  THR9       -0.2208
     11  CG2       17.4530  -13.4030   32.2920 C.3     9  THR9        0.0378
     12  N         19.4540   -8.5010   35.6950 N.3    36  ALA36      -0.1245
     13  CA        19.9530   -8.0030   34.4190 C.3    36  ALA36       0.1562
     14  C         18.8350   -7.9450   33.3780 C.2    36  ALA36       0.2260
     15  O         18.0660   -8.8970   33.2540 O.2    36  ALA36      -0.2867
     16  CB        21.0530   -8.9160   33.9180 C.3    36  ALA36       0.0290
     17  N         19.0920   -8.3590   30.2090 N.3    38  SER38      -0.1217
     18  CA        19.3650   -9.5320   29.3590 C.3    38  SER38       0.1889
     19  C         18.5010   -9.5940   28.0490 C.2    38  SER38       0.2288
     20  O         17.9520  -10.6620   27.7540 O.2    38  SER38      -0.2866
     21  CB        19.2400  -10.8250   30.1690 C.3    38  SER38       0.2089
     22  OG        20.2230  -10.8910   31.1940 O.3    38  SER38      -0.2183
     23  N         18.8190  -12.6610   25.6410 N.3    41  LYS41      -0.1245
     24  CA        18.2290  -13.9250   26.0730 C.3    41  LYS41       0.1561
     25  C         16.7430  -13.9820   25.7360 C.2    41  LYS41       0.2260
     26  O         16.1220  -15.0170   25.9710 O.2    41  LYS41      -0.2867
     27  CB        18.4520  -14.1320   27.5800 C.3    41  LYS41       0.0271
     28  CG        19.8760  -14.5710   27.9200 C.3    41  LYS41       0.0035
     29  CD        20.0640  -14.7220   29.4100 C.3    41  LYS41       0.0206
     30  CE        20.6800  -16.0520   29.7660 C.3    41  LYS41       0.1093
     31  NZ        20.1450  -16.5880   31.0530 N.3    41  LYS41      -0.1314
     32  N         19.2080   -3.8250   36.2730 N.3    69  PHE69      -0.1241
     33  CA        20.3550   -3.1420   35.6540 C.3    69  PHE69       0.1605
     34  C         20.5710   -3.5770   34.2050 C.2    69  PHE69       0.2264
     35  O         20.2890   -4.7220   33.8510 O.2    69  PHE69      -0.2867
     36  CB        21.6480   -3.3570   36.4680 C.3    69  PHE69       0.0534
     37  CG        22.3000   -4.7220   36.3610 C.ar   69  PHE69      -0.0203
     38  CD1       21.7670   -5.8230   37.0300 C.ar   69  PHE69      -0.0042
     39  CD2       23.4790   -4.8920   35.6380 C.ar   69  PHE69      -0.0042
     40  CE1       22.3860   -7.0780   36.9530 C.ar   69  PHE69      -0.0003
     41  CE2       24.1000   -6.1410   35.5620 C.ar   69  PHE69      -0.0003
     42  CZ        23.5520   -7.2280   36.2230 C.ar   69  PHE69      -0.0000
     43  N         23.6300   -2.3040   32.8620 N.3    71  ASP71      -0.1225
     44  CA        25.0580   -1.9890   32.8280 C.3    71  ASP71       0.1805
     45  C         25.9140   -3.2470   32.7960 C.2    71  ASP71       0.2598
     46  O         25.4070   -4.3650   32.9670 O.2    71  ASP71      -0.2718
     47  CB        25.4370   -1.1780   34.0890 C.3    71  ASP71       0.1424
     48  CG        24.8290    0.2030   34.1890 C.2    71  ASP71       0.3668
     49  OD1       24.1980    0.6470   33.2120 O.co2  71  ASP71      -0.2456
     50  OD2       25.0370    0.8600   35.2130 O.co2  71  ASP71      -0.2456
     51  N         27.2260   -3.0450   32.6090 N.am   72  LEU72      -0.1966
     52  CA        28.2360   -4.1000   32.7360 C.3    72  LEU72       0.1728
     53  C         28.1410   -4.5290   34.2250 C.2    72  LEU72       0.2616
     54  O         28.1120   -3.6450   35.0950 O.2    72  LEU72      -0.2715
     55  CB        29.6180   -3.4710   32.4570 C.3    72  LEU72       0.0311
     56  CG        30.8150   -4.4320   32.5660 C.3    72  LEU72       0.0022
     57  CD1       30.8850   -5.4110   31.3570 C.3    72  LEU72       0.0001
     58  CD2       32.1250   -3.6430   32.7050 C.3    72  LEU72       0.0001
     59  N         28.0430   -5.8440   34.5290 N.am   73  MET73      -0.1977
     60  CA        27.8220   -6.2280   35.9390 C.3    73  MET73       0.1605
     61  C         28.9630   -5.7900   36.8900 C.2    73  MET73       0.2287
     62  O         28.6540   -5.4430   38.0280 O.2    73  MET73      -0.2864
     63  CB        27.4420   -7.7190   36.1190 C.3    73  MET73       0.0413
     64  CG        28.5700   -8.6810   36.1650 C.3    73  MET73       0.0598
     65  SD        27.9600  -10.3850   36.4810 S.3    73  MET73      -0.1393
     66  CE        27.0790  -10.7260   34.9300 C.3    73  MET73       0.0692
     67  N         27.1820  -16.1770   42.9850 N.3    87  ARG87      -0.1245
     68  CA        26.5940  -16.9590   41.8930 C.3    87  ARG87       0.1563
     69  C         26.2890  -18.3470   42.4400 C.2    87  ARG87       0.2260
     70  O         27.0310  -18.8610   43.2690 O.2    87  ARG87      -0.2867
     71  CB        27.5050  -17.0420   40.6510 C.3    87  ARG87       0.0307
     72  CG        27.6980  -15.7090   39.8940 C.3    87  ARG87       0.0489
     73  CD        26.5090  -15.2970   39.0690 C.3    87  ARG87       0.2205
     74  NE        26.4210  -16.1010   37.8480 N.pl3  87  ARG87      -0.0865
     75  CZ        25.4880  -15.9600   36.9140 C.cat  87  ARG87       0.5346
     76  NH1       24.5460  -15.0300   37.0380 N.pl3  87  ARG87       0.1354
     77  NH2       25.4990  -16.7340   35.8370 N.pl3  87  ARG87       0.1354
     78  N         31.1330  -21.8040   32.4200 N.3    97  TYR97      -0.1241
     79  CA        30.7380  -20.4240   32.1280 C.3    97  TYR97       0.1605
     80  C         31.0250  -19.5470   33.3460 C.2    97  TYR97       0.2264
     81  O         31.5350  -18.4350   33.1800 O.2    97  TYR97      -0.2867
     82  CB        29.2520  -20.3160   31.7040 C.3    97  TYR97       0.0534
     83  CG        28.8190  -18.8790   31.4970 C.ar   97  TYR97      -0.0201
     84  CD1       29.3390  -18.1160   30.4510 C.ar   97  TYR97      -0.0009
     85  CD2       27.9730  -18.2470   32.4080 C.ar   97  TYR97      -0.0009
     86  CE1       29.0010  -16.7690   30.2990 C.ar   97  TYR97       0.0417
     87  CE2       27.6190  -16.9060   32.2580 C.ar   97  TYR97       0.0417
     88  CZ        28.1410  -16.1700   31.2040 C.ar   97  TYR97       0.1957
     89  OH        27.8080  -14.8430   31.0540 O.3    97  TYR97      -0.2866
     90  N         33.1710  -16.0570   33.4230 N.3   101  LEU101     -0.1245
     91  CA        32.5570  -14.8280   33.9020 C.3   101  LEU101      0.1561
     92  C         33.3350  -14.2730   35.0970 C.2   101  LEU101      0.2260
     93  O         33.6190  -13.0710   35.1270 O.2   101  LEU101     -0.2867
     94  CB        31.0640  -15.0930   34.2510 C.3   101  LEU101      0.0270
     95  CG        30.2850  -13.9170   34.8400 C.3   101  LEU101      0.0019
     96  CD1       30.1970  -12.7570   33.8300 C.3   101  LEU101      0.0001
     97  CD2       28.8660  -14.3420   35.2700 C.3   101  LEU101      0.0001
     98  N         36.6720  -12.8720   34.0760 N.3   104  MET104     -0.1230
     99  CA        36.4570  -11.5970   33.3740 C.3   104  MET104      0.1702
    100  C         36.1090  -10.4990   34.4040 C.2   104  MET104      0.2592
    101  O         36.6880   -9.4200   34.3590 O.2   104  MET104     -0.2718
    102  CB        35.3420  -11.7210   32.3150 C.3   104  MET104      0.0401
    103  CG        35.0650  -10.4280   31.5730 C.3   104  MET104      0.0596
    104  SD        36.4870   -9.8000   30.6360 S.3   104  MET104     -0.1393
    105  CE        36.5780  -11.0040   29.3230 C.3   104  MET104      0.0692
    106  N         35.1710  -10.7700   35.3330 N.am  105  ASN105     -0.1974
    107  CA        34.8220   -9.8090   36.3960 C.3   105  ASN105      0.1688
    108  C         36.0440   -9.4130   37.2480 C.2   105  ASN105      0.2292
    109  O         36.1480   -8.2570   37.6730 O.2   105  ASN105     -0.2864
    110  CB        33.6880  -10.3370   37.2700 C.3   105  ASN105      0.1181
    111  CG        32.3460  -10.1870   36.5870 C.2   105  ASN105      0.2629
    112  OD1       32.1390   -9.2630   35.7980 O.2   105  ASN105     -0.2716
    113  ND2       31.3790  -11.0520   36.9230 N.am  105  ASN105     -0.0877
    114  N         38.0620   -6.8930   35.3590 N.3   108  LEU108     -0.1245
    115  CA        37.3650   -5.5890   35.3710 C.3   108  LEU108      0.1561
    116  C         37.3100   -4.9100   36.7580 C.2   108  LEU108      0.2260
    117  O         37.2590   -3.6870   36.8380 O.2   108  LEU108     -0.2867
    118  CB        35.9380   -5.7740   34.8070 C.3   108  LEU108      0.0270
    119  CG        35.8400   -6.2500   33.3340 C.3   108  LEU108      0.0019
    120  CD1       34.4780   -6.8980   33.0440 C.3   108  LEU108      0.0001
    121  CD2       36.1000   -5.0840   32.3620 C.3   108  LEU108      0.0001
@<TRIPOS>BOND
     1    23    24    1
     2    25    26    2
     3    25    24    1
     4    24    27    1
     5    27    28    1
     6    20    19    2
     7    28    29    1
     8    19    18    1
     9   105   104    1
    10    18    21    1
    11    18    17    1
    12    29    30    1
    13    30    31    1
    14    21    22    1
    15    86    84   ar
    16    86    88   ar
    17    84    83   ar
    18   104   103    1
    19    89    88    1
    20    88    87   ar
    21    57    56    1
    22    83    82    1
    23    83    85   ar
    24   103   102    1
    25    82    79    1
    26    79    78    1
    27    79    80    1
    28    87    85   ar
    29    11     9    1
    30   102    99    1
    31   121   119    1
    32    55    56    1
    33    55    52    1
    34    56    58    1
    35    10     9    1
    36    51    52    1
    37    51    45   am
    38    52    53    1
    39    45    44    1
    40    45    46    2
    41    44    43    1
    42    44    47    1
    43   120   119    1
    44    81    80    2
    45    49    48   ar
    46     9     6    1
    47    15    14    2
    48   119   118    1
    49    99    98    1
    50    99   100    1
    51    14    13    1
    52    90    91    1
    53    96    95    1
    54    35    34    2
    55    91    94    1
    56    91    92    1
    57    16    13    1
    58    47    48    1
    59    48    50   ar
    60    34    33    1
    61    53    59   am
    62    53    54    2
    63    94    95    1
    64   101   100    2
    65   100   106   am
    66    13    12    1
    67    59    60    1
    68     6     7    1
    69     6     5    1
    70   118   115    1
    71    95    97    1
    72    66    65    1
    73    92    93    2
    74     8     7    2
    75   106   107    1
    76   114   115    1
    77   115   116    1
    78     5     3   am
    79    41    39   ar
    80    41    42   ar
    81    39    37   ar
    82    33    32    1
    83    33    36    1
    84   112   111    2
    85    77    75    1
    86    60    63    1
    87    60    61    1
    88    63    64    1
    89    64    65    1
    90    42    40   ar
    91     3     4    2
    92     3     2    1
    93    37    36    1
    94    37    38   ar
    95   107   108    1
    96   107   110    1
    97   111   113   am
    98   111   110    1
    99   116   117    2
   100    61    62    2
   101    75    76    1
   102    75    74    2
   103    40    38   ar
   104     2     1    1
   105   108   109    2
   106    74    73    1
   107    73    72    1
   108    72    71    1
   109    71    68    1
   110    68    69    1
   111    68    67    1
   112    69    70    2
