@<TRIPOS>MOLECULE
tmp/6ccmA00.pdb
 127 123 0 0 0
SMALL
GASTEIGER

@<TRIPOS>ATOM
      1  N        161.2360  175.6900   55.7270 N.3     8  PRO8       -0.2102
      2  CA       162.4760  176.3890   56.0750 C.3     8  PRO8        0.1504
      3  C        163.1400  177.1250   54.9230 C.2     8  PRO8        0.2576
      4  O        162.9270  176.8050   53.7470 O.2     8  PRO8       -0.2718
      5  CB       163.3550  175.2680   56.6180 C.3     8  PRO8        0.0282
      6  CG       162.9650  174.0680   55.7520 C.3     8  PRO8        0.0208
      7  CD       161.4810  174.2540   55.4330 C.3     8  PRO8        0.0893
      8  N        163.9780  178.0880   55.2720 N.am    9  GLY9       -0.1943
      9  CA       164.7030  178.8550   54.2720 C.3     9  GLY9        0.2014
     10  C        165.3870  180.0560   54.8740 C.2     9  GLY9        0.2639
     11  O        165.2640  180.3220   56.0800 O.2     9  GLY9       -0.2714
     12  N        166.1200  180.7940   54.0420 N.am   10  THR10      -0.1950
     13  CA       166.7860  182.0200   54.4970 C.3    10  THR10       0.1897
     14  C        165.8210  183.1990   54.4610 C.2    10  THR10       0.2313
     15  O        165.9420  184.0910   55.2950 O.2    10  THR10      -0.2863
     16  CB       168.0760  182.2890   53.7260 C.3    10  THR10       0.1794
     17  OG1      167.8120  182.2420   52.3230 O.3    10  THR10      -0.2208
     18  CG2      169.1800  181.3230   54.1010 C.3    10  THR10       0.0378
     19  N        166.3010  180.5490   58.7650 N.3    37  ALA37      -0.1245
     20  CA       167.6700  180.1820   59.1510 C.3    37  ALA37       0.1562
     21  C        168.4420  181.4190   59.6460 C.2    37  ALA37       0.2260
     22  O        168.5250  182.4270   58.9360 O.2    37  ALA37      -0.2867
     23  CB       168.3870  179.5210   57.9850 C.3    37  ALA37       0.0290
     24  N        171.8440  181.8610   60.8530 N.3    39  SER39      -0.1203
     25  CA       173.1990  182.1310   60.3800 C.3    39  SER39       0.2005
     26  C        173.5440  181.4280   59.0630 C.2    39  SER39       0.2461
     27  O        174.3340  180.4730   59.0760 O.2    39  SER39      -0.2732
     28  CB       174.2170  181.7990   61.4680 C.3    39  SER39       0.2103
     29  OG       173.9560  182.5280   62.6560 O.3    39  SER39      -0.2182
     30  N        173.0070  181.8950   57.9060 N.am   40  PRO40      -0.2717
     31  CA       173.4000  181.2730   56.6250 C.3    40  PRO40       0.1535
     32  C        174.8970  181.4780   56.3400 C.2    40  PRO40       0.2599
     33  O        175.4890  182.4430   56.8450 O.2    40  PRO40      -0.2715
     34  CB       172.5210  181.9880   55.5940 C.3    40  PRO40       0.0310
     35  CG       172.1720  183.2920   56.2230 C.3    40  PRO40       0.0237
     36  CD       172.0800  183.0280   57.6950 C.3    40  PRO40       0.0939
     37  N        175.5160  180.5530   55.5670 N.am   41  SER41      -0.1950
     38  CA       176.9460  180.6090   55.2090 C.3    41  SER41       0.1924
     39  C        177.3220  181.9430   54.5540 C.2    41  SER41       0.2314
     40  O        178.4100  182.4590   54.7990 O.2    41  SER41      -0.2863
     41  CB       177.3360  179.4380   54.3090 C.3    41  SER41       0.2116
     42  OG       176.4790  179.3070   53.1850 O.3    41  SER41      -0.2180
     43  N        165.6510  179.8930   63.4680 N.3    70  PHE70      -0.1227
     44  CA       166.3400  178.6740   63.9460 C.3    70  PHE70       0.1736
     45  C        167.7960  178.7110   63.5160 C.2    70  PHE70       0.2596
     46  O        168.0970  179.2600   62.4590 O.2    70  PHE70      -0.2718
     47  CB       165.6380  177.3820   63.4750 C.3    70  PHE70       0.0547
     48  CG       165.8610  177.0210   62.0210 C.ar   70  PHE70      -0.0202
     49  CD1      165.1730  177.6800   61.0080 C.ar   70  PHE70      -0.0042
     50  CD2      166.7440  176.0060   61.6680 C.ar   70  PHE70      -0.0042
     51  CE1      165.3860  177.3530   59.6640 C.ar   70  PHE70      -0.0003
     52  CE2      166.9320  175.6590   60.3280 C.ar   70  PHE70      -0.0003
     53  CZ       166.2570  176.3410   59.3330 C.ar   70  PHE70      -0.0000
     54  N        168.6910  178.1160   64.3170 N.am   71  SER71      -0.1938
     55  CA       170.1360  178.1570   64.0420 C.3    71  SER71       0.2055
     56  C        170.7990  176.7820   63.8780 C.2    71  SER71       0.2643
     57  O        171.9780  176.7090   63.5200 O.2    71  SER71      -0.2714
     58  CB       170.8440  178.9490   65.1400 C.3    71  SER71       0.2130
     59  OG       170.6830  178.2800   66.3810 O.3    71  SER71      -0.2179
     60  N        170.0530  175.7190   64.1170 N.am   72  ASP72      -0.1957
     61  CA       170.5700  174.3620   63.9950 C.3    72  ASP72       0.1840
     62  C        170.3240  173.7860   62.6080 C.2    72  ASP72       0.2622
     63  O        169.8260  174.4690   61.7060 O.2    72  ASP72      -0.2715
     64  CB       169.9540  173.4490   65.0800 C.3    72  ASP72       0.1450
     65  CG       168.4360  173.3630   65.0990 C.2    72  ASP72       0.3671
     66  OD1      167.7790  174.2460   64.5030 O.co2  72  ASP72      -0.2456
     67  OD2      167.9040  172.4690   65.7880 O.co2  72  ASP72      -0.2456
     68  N        170.6620  172.5050   62.4520 N.am   73  LEU73      -0.1963
     69  CA       170.4340  171.7480   61.2400 C.3    73  LEU73       0.1728
     70  C        168.8970  171.7170   61.1300 C.2    73  LEU73       0.2619
     71  O        168.2190  171.5430   62.1480 O.2    73  LEU73      -0.2715
     72  CB       170.9690  170.3490   61.5320 C.3    73  LEU73       0.0311
     73  CG       170.9830  169.3370   60.4130 C.3    73  LEU73       0.0022
     74  CD1      172.0410  169.6800   59.3820 C.3    73  LEU73       0.0001
     75  CD2      171.2640  167.9810   60.9810 C.3    73  LEU73       0.0001
     76  N        168.3300  171.9230   59.8970 N.am   74  MET74      -0.1932
     77  CA       166.8710  171.9690   59.6310 C.3    74  MET74       0.1821
     78  C        166.1220  170.7020   60.1080 C.2    74  MET74       0.2332
     79  O        164.9640  170.8030   60.5280 O.2    74  MET74      -0.2860
     80  CB       166.5290  172.3190   58.1520 C.2    74  MET74       0.0096
     81  CG       166.7220  171.1820   57.1300 C.2    74  MET74       0.0285
     82  SD       166.1800  171.5630   55.4290 S.3    74  MET74      -0.1125
     83  CE       167.6190  172.3840   54.8260 C.3    74  MET74       0.0742
     84  N        169.9020  169.1660   43.4810 N.3    98  TYR98      -0.1241
     85  CA       170.1670  169.5670   44.8650 C.3    98  TYR98       0.1605
     86  C        168.9970  169.1630   45.7590 C.2    98  TYR98       0.2264
     87  O        169.2270  168.6690   46.8580 O.2    98  TYR98      -0.2867
     88  CB       170.4820  171.0800   45.0030 C.3    98  TYR98       0.0534
     89  CG       170.6990  171.4980   46.4450 C.ar   98  TYR98      -0.0201
     90  CD1      171.8440  171.1150   47.1370 C.ar   98  TYR98      -0.0009
     91  CD2      169.7180  172.2000   47.1450 C.ar   98  TYR98      -0.0009
     92  CE1      172.0240  171.4430   48.4780 C.ar   98  TYR98       0.0417
     93  CE2      169.8940  172.5480   48.4850 C.ar   98  TYR98       0.0417
     94  CZ       171.0490  172.1640   49.1480 C.ar   98  TYR98       0.1957
     95  OH       171.2350  172.4860   50.4720 O.3    98  TYR98      -0.2866
     96  N        169.2380  166.9140   49.1120 N.3   102  LEU102     -0.1245
     97  CA       168.7250  167.4400   50.3670 C.3   102  LEU102      0.1561
     98  C        167.6790  166.5230   50.9800 C.2   102  LEU102      0.2260
     99  O        167.7710  166.2160   52.1680 O.2   102  LEU102     -0.2867
    100  CB       168.1620  168.8610   50.1850 C.3   102  LEU102      0.0270
    101  CG       167.8170  169.6090   51.4760 C.3   102  LEU102      0.0019
    102  CD1      169.0740  169.9530   52.2620 C.3   102  LEU102      0.0001
    103  CD2      167.0600  170.8840   51.1750 C.3   102  LEU102      0.0001
    104  N        169.1820  163.2230   52.2160 N.3   105  MET105     -0.1230
    105  CA       169.9740  163.4890   53.4380 C.3   105  MET105      0.1702
    106  C        169.0240  163.7470   54.6430 C.2   105  MET105      0.2592
    107  O        169.2200  163.1820   55.7220 O.2   105  MET105     -0.2718
    108  CB       170.9450  164.6620   53.2200 C.3   105  MET105      0.0401
    109  CG       171.7570  165.0440   54.4790 C.3   105  MET105      0.0596
    110  SD       172.7230  163.6540   55.1390 S.3   105  MET105     -0.1393
    111  CE       174.0320  163.5800   53.9050 C.3   105  MET105      0.0692
    112  N        167.9860  164.5730   54.4440 N.am  106  ASN106     -0.1974
    113  CA       166.9770  164.8340   55.4810 C.3   106  ASN106      0.1688
    114  C        166.2590  163.5500   55.9130 C.2   106  ASN106      0.2292
    115  O        165.9150  163.4170   57.0940 O.2   106  ASN106     -0.2864
    116  CB       165.9860  165.9150   55.0170 C.3   106  ASN106      0.1181
    117  CG       166.5410  167.3160   55.2020 C.2   106  ASN106      0.2629
    118  OD1      167.3070  167.5900   56.1300 O.2   106  ASN106     -0.2716
    119  ND2      166.1490  168.2460   54.3510 N.am  106  ASN106     -0.0877
    120  N        168.6340  161.6640   58.2100 N.3   109  LEU109     -0.1245
    121  CA       168.7230  162.3540   59.5020 C.3   109  LEU109      0.1561
    122  C        167.4660  162.1830   60.3410 C.2   109  LEU109      0.2260
    123  O        167.5550  161.9840   61.5560 O.2   109  LEU109     -0.2867
    124  CB       169.0260  163.8560   59.3050 C.3   109  LEU109      0.0270
    125  CG       170.3940  164.2200   58.6740 C.3   109  LEU109      0.0019
    126  CD1      170.3810  165.6480   58.1210 C.3   109  LEU109      0.0001
    127  CD2      171.5500  164.0310   59.6670 C.3   109  LEU109      0.0001
@<TRIPOS>BOND
     1    84    85    1
     2    85    88    1
     3    85    86    1
     4    88    89    1
     5    86    87    2
     6    89    90   ar
     7    89    91   ar
     8    90    92   ar
     9    91    93   ar
    10    92    94   ar
    11    93    94   ar
    12    96    97    1
    13    94    95    1
    14   100    97    1
    15   100   101    1
    16    97    98    1
    17    98    99    2
    18   103   101    1
    19   101   102    1
    20   104   105    1
    21    17    16    1
    22    42    41    1
    23   108   105    1
    24   108   109    1
    25   105   106    1
    26    16    18    1
    27    16    13    1
    28     4     3    2
    29   111   110    1
    30    12    13    1
    31    12    10   am
    32     9    10    1
    33     9     8    1
    34    41    38    1
    35   119   117   am
    36   112   106   am
    37   112   113    1
    38    14    13    1
    39    14    15    2
    40   109   110    1
    41    39    40    2
    42    39    38    1
    43   106   107    2
    44    83    82    1
    45    10    11    2
    46     3     8   am
    47     3     2    1
    48   116   117    1
    49   116   113    1
    50   117   118    2
    51    38    37    1
    52    82    81    1
    53     7     1    1
    54     7     6    1
    55   113   114    1
    56    37    32   am
    57    34    35    1
    58    34    31    1
    59     1     2    1
    60     6     5    1
    61   114   115    2
    62     2     5    1
    63    35    36    1
    64    32    31    1
    65    32    33    2
    66    31    30    1
    67    81    80    2
    68    36    30    1
    69    30    26   am
    70    23    20    1
    71   126   125    1
    72    80    77    1
    73   120   121    1
    74   125   124    1
    75   125   127    1
    76    19    20    1
    77    22    21    2
    78    26    27    2
    79    26    25    1
    80    20    21    1
    81   124   121    1
    82    53    51   ar
    83    53    52   ar
    84    74    73    1
    85   121   122    1
    86    77    76    1
    87    77    78    1
    88    51    49   ar
    89    76    70   am
    90    78    79    2
    91    52    50   ar
    92   122   123    2
    93    25    24    1
    94    25    28    1
    95    73    75    1
    96    73    72    1
    97    49    48   ar
    98    70    69    1
    99    70    71    2
   100    69    72    1
   101    69    68    1
   102    28    29    1
   103    50    48   ar
   104    63    62    2
   105    48    47    1
   106    68    62   am
   107    46    45    2
   108    62    61    1
   109    43    44    1
   110    47    44    1
   111    45    44    1
   112    45    54   am
   113    57    56    2
   114    56    55    1
   115    56    60   am
   116    61    60    1
   117    61    64    1
   118    55    54    1
   119    55    58    1
   120    66    65   ar
   121    64    65    1
   122    65    67   ar
   123    58    59    1
