@<TRIPOS>MOLECULE
tmp/6ccnB00.pdb
 124 117 0 0 0
SMALL
GASTEIGER

@<TRIPOS>ATOM
      1  N         39.8660  -25.4780   55.2330 N.3     7  PRO7       -0.2102
      2  CA        40.5400  -26.7410   55.5450 C.3     7  PRO7        0.1504
      3  C         41.2180  -27.4000   54.3610 C.2     7  PRO7        0.2576
      4  O         40.8790  -27.1540   53.2130 O.2     7  PRO7       -0.2718
      5  CB        39.4100  -27.6030   56.1020 C.3     7  PRO7        0.0282
      6  CG        38.2180  -27.2040   55.2780 C.3     7  PRO7        0.0208
      7  CD        38.4270  -25.7050   54.9440 C.3     7  PRO7        0.0893
      8  N         42.1780  -28.2570   54.6600 N.am    8  GLY8       -0.1943
      9  CA        42.8840  -28.9850   53.6220 C.3     8  GLY8        0.2014
     10  C         44.0370  -29.7310   54.2290 C.2     8  GLY8        0.2639
     11  O         44.2900  -29.6300   55.4340 O.2     8  GLY8       -0.2714
     12  N         44.7400  -30.4710   53.3990 N.am    9  THR9       -0.1950
     13  CA        45.9120  -31.2150   53.8640 C.3     9  THR9        0.1897
     14  C         47.1540  -30.3140   53.8230 C.2     9  THR9        0.2313
     15  O         48.0450  -30.5110   54.6280 O.2     9  THR9       -0.2863
     16  CB        46.0560  -32.5330   53.1040 C.3     9  THR9        0.1794
     17  OG1       46.3550  -32.2260   51.7500 O.3     9  THR9       -0.2208
     18  CG2       44.7860  -33.3380   53.1320 C.3     9  THR9        0.0378
     19  N         44.4960  -30.5840   58.1200 N.3    36  ALA36      -0.1245
     20  CA        44.0640  -31.9360   58.4610 C.3    36  ALA36       0.1562
     21  C         45.2250  -32.8620   58.5520 C.2    36  ALA36       0.2260
     22  O         46.0630  -32.8910   57.6360 O.2    36  ALA36      -0.2867
     23  CB        43.0720  -32.4590   57.4290 C.3    36  ALA36       0.0290
     24  N         45.2770  -35.9980   57.9850 N.3    38  SER38      -0.1217
     25  CA        45.1370  -36.8010   56.7650 C.3    38  SER38       0.1889
     26  C         46.0920  -38.0030   56.6890 C.2    38  SER38       0.2288
     27  O         46.8140  -38.1240   55.7010 O.2    38  SER38      -0.2866
     28  CB        45.2550  -35.9230   55.5240 C.3    38  SER38       0.2089
     29  OG        44.1340  -35.0600   55.4600 O.3    38  SER38      -0.2183
     30  N         44.2350  -30.1590   62.8760 N.3    69  PHE69      -0.1241
     31  CA        43.0770  -30.9090   63.3800 C.3    69  PHE69       0.1605
     32  C         43.1080  -32.3380   62.8520 C.2    69  PHE69       0.2264
     33  O         43.5710  -32.5680   61.7440 O.2    69  PHE69      -0.2867
     34  CB        41.7280  -30.1950   63.0860 C.3    69  PHE69       0.0534
     35  CG        41.2430  -30.3010   61.6570 C.ar   69  PHE69      -0.0203
     36  CD1       41.7820  -29.5020   60.6620 C.ar   69  PHE69      -0.0042
     37  CD2       40.2670  -31.2200   61.3070 C.ar   69  PHE69      -0.0042
     38  CE1       41.3530  -29.6170   59.3390 C.ar   69  PHE69      -0.0003
     39  CE2       39.8360  -31.3330   59.9860 C.ar   69  PHE69      -0.0003
     40  CZ        40.3580  -30.5070   59.0140 C.ar   69  PHE69      -0.0000
     41  N         40.2580  -34.4190   63.6440 N.3    71  ASP71      -0.1225
     42  CA        38.8780  -34.8580   63.6640 C.3    71  ASP71       0.1805
     43  C         38.1680  -34.6340   62.3460 C.2    71  ASP71       0.2598
     44  O         38.7440  -34.1070   61.3930 O.2    71  ASP71      -0.2718
     45  CB        38.1260  -34.1830   64.8130 C.3    71  ASP71       0.1424
     46  CG        38.0080  -32.6780   64.7750 C.2    71  ASP71       0.3668
     47  OD1       38.8950  -32.0300   64.1860 O.co2  71  ASP71      -0.2456
     48  OD2       37.1040  -32.1380   65.4570 O.co2  71  ASP71      -0.2456
     49  N         36.8940  -35.0240   62.3070 N.am   72  LEU72      -0.1966
     50  CA        36.0360  -34.7730   61.1760 C.3    72  LEU72       0.1728
     51  C         36.0670  -33.2520   61.0070 C.2    72  LEU72       0.2616
     52  O         35.9740  -32.5140   61.9980 O.2    72  LEU72      -0.2715
     53  CB        34.6170  -35.2500   61.5120 C.3    72  LEU72       0.0311
     54  CG        33.5750  -35.1590   60.4030 C.3    72  LEU72       0.0022
     55  CD1       33.7930  -36.2280   59.3600 C.3    72  LEU72       0.0001
     56  CD2       32.2050  -35.2990   60.9840 C.3    72  LEU72       0.0001
     57  N         36.2690  -32.7870   59.7710 N.am   73  MET73      -0.1963
     58  CA        36.3520  -31.3640   59.5160 C.3    73  MET73       0.1736
     59  C         35.1350  -30.6310   60.0690 C.2    73  MET73       0.2616
     60  O         35.3150  -29.5800   60.6890 O.2    73  MET73      -0.2715
     61  CB        36.5820  -31.0920   58.0190 C.3    73  MET73       0.0427
     62  CG        36.9280  -29.6440   57.6890 C.3    73  MET73       0.0599
     63  SD        35.4510  -28.5780   57.8050 S.3    73  MET73      -0.1393
     64  CE        34.4140  -29.3520   56.6210 C.3    73  MET73       0.0692
     65  N         33.9070  -31.1710   59.8600 N.am   74  ALA74      -0.1977
     66  CA        32.6990  -30.5090   60.3480 C.3    74  ALA74       0.1597
     67  C         32.6680  -30.4360   61.9030 C.2    74  ALA74       0.2287
     68  O         32.1590  -29.4560   62.4420 O.2    74  ALA74      -0.2864
     69  CB        31.4480  -31.1960   59.8060 C.3    74  ALA74       0.0319
     70  N         36.3050  -23.3040   50.1410 N.3    87  ARG87      -0.1245
     71  CA        36.8580  -24.3070   49.2470 C.3    87  ARG87       0.1563
     72  C         37.3880  -23.5740   48.0270 C.2    87  ARG87       0.2260
     73  O         36.7200  -22.6800   47.5160 O.2    87  ARG87      -0.2867
     74  CB        35.7650  -25.3020   48.7900 C.3    87  ARG87       0.0307
     75  CG        35.0040  -26.0380   49.9020 C.3    87  ARG87       0.0489
     76  CD        35.9160  -26.9250   50.7330 C.3    87  ARG87       0.2205
     77  NE        36.6900  -27.8540   49.9080 N.pl3  87  ARG87      -0.0865
     78  CZ        37.5890  -28.7090   50.3830 C.cat  87  ARG87       0.5346
     79  NH1       37.8590  -28.7460   51.6800 N.pl3  87  ARG87       0.1354
     80  NH2       38.2240  -29.5350   49.5640 N.pl3  87  ARG87       0.1354
     81  N         33.5570  -33.6650   43.1470 N.3    97  TYR97      -0.1241
     82  CA        33.9090  -34.1530   44.4770 C.3    97  TYR97       0.1605
     83  C         33.5460  -33.1060   45.5280 C.2    97  TYR97       0.2264
     84  O         33.1440  -33.4540   46.6510 O.2    97  TYR97      -0.2867
     85  CB        35.4120  -34.4690   44.5370 C.3    97  TYR97       0.0534
     86  CG        35.9400  -34.7130   45.9340 C.ar   97  TYR97      -0.0201
     87  CD1       35.5710  -35.8440   46.6530 C.ar   97  TYR97      -0.0009
     88  CD2       36.8310  -33.8230   46.5260 C.ar   97  TYR97      -0.0009
     89  CE1       36.0760  -36.0880   47.9280 C.ar   97  TYR97       0.0417
     90  CE2       37.3420  -34.0560   47.8020 C.ar   97  TYR97       0.0417
     91  CZ        36.9650  -35.1930   48.4970 C.ar   97  TYR97       0.1957
     92  OH        37.4600  -35.4260   49.7550 O.3    97  TYR97      -0.2866
     93  N         31.1460  -33.4350   48.9260 N.3   101  LEU101     -0.1245
     94  CA        31.7110  -32.9800   50.1950 C.3   101  LEU101      0.1561
     95  C         30.8480  -31.9090   50.8250 C.2   101  LEU101      0.2260
     96  O         30.5530  -31.9790   52.0200 O.2   101  LEU101     -0.2867
     97  CB        33.1350  -32.4480   49.9650 C.3   101  LEU101      0.0270
     98  CG        34.1490  -32.6720   51.0760 C.3   101  LEU101      0.0019
     99  CD1       34.3920  -34.1660   51.3130 C.3   101  LEU101      0.0001
    100  CD2       35.4810  -32.0060   50.7180 C.3   101  LEU101      0.0001
    101  N         27.6020  -33.4020   52.0850 N.3   104  MET104     -0.1230
    102  CA        27.8670  -34.2000   53.2860 C.3   104  MET104      0.1702
    103  C         28.0700  -33.2530   54.4790 C.2   104  MET104      0.2592
    104  O         27.4640  -33.4570   55.5340 O.2   104  MET104     -0.2718
    105  CB        29.0990  -35.1070   53.0910 C.3   104  MET104      0.0401
    106  CG        29.4780  -35.9370   54.3480 C.3   104  MET104      0.0596
    107  SD        28.1020  -36.9040   55.0610 S.3   104  MET104     -0.1393
    108  CE        28.0240  -38.2760   53.9150 C.3   104  MET104      0.0692
    109  N         28.9090  -32.2080   54.2980 N.am  105  ASN105     -0.1974
    110  CA        29.1690  -31.2040   55.3360 C.3   105  ASN105      0.1688
    111  C         27.8940  -30.4990   55.7660 C.2   105  ASN105      0.2292
    112  O         27.7300  -30.2150   56.9520 O.2   105  ASN105     -0.2864
    113  CB        30.2240  -30.2100   54.8430 C.3   105  ASN105      0.1181
    114  CG        31.6050  -30.7700   55.0110 C.2   105  ASN105      0.2629
    115  OD1       31.8900  -31.4610   55.9780 O.2   105  ASN105     -0.2716
    116  ND2       32.4890  -30.4840   54.0880 N.am  105  ASN105     -0.0877
    117  N         26.0360  -32.8070   58.0030 N.3   108  LEU108     -0.1245
    118  CA        26.6950  -32.9130   59.2980 C.3   108  LEU108      0.1561
    119  C         26.5270  -31.6590   60.1340 C.2   108  LEU108      0.2260
    120  O         26.3660  -31.7480   61.3590 O.2   108  LEU108     -0.2867
    121  CB        28.2000  -33.2200   59.0890 C.3   108  LEU108      0.0270
    122  CG        28.5390  -34.5960   58.4780 C.3   108  LEU108      0.0019
    123  CD1       29.9850  -34.6200   57.9580 C.3   108  LEU108      0.0001
    124  CD2       28.2780  -35.7160   59.4620 C.3   108  LEU108      0.0001
@<TRIPOS>BOND
     1    81    82    1
     2    82    85    1
     3    82    83    1
     4    85    86    1
     5    83    84    2
     6    86    88   ar
     7    86    87   ar
     8    88    90   ar
     9    87    89   ar
    10    73    72    2
    11    90    91   ar
    12    89    91   ar
    13    72    71    1
    14    91    92    1
    15    74    71    1
    16    74    75    1
    17    93    94    1
    18    71    70    1
    19    80    78    1
    20    75    76    1
    21    77    78    2
    22    77    76    1
    23    97    94    1
    24    97    98    1
    25    94    95    1
    26    78    79    1
    27   100    98    1
    28    95    96    2
    29    98    99    1
    30    17    16    1
    31   101   102    1
    32   105   102    1
    33   105   106    1
    34    16    18    1
    35    16    13    1
    36     4     3    2
    37   102   103    1
    38    12    13    1
    39    12    10   am
    40     9    10    1
    41     9     8    1
    42    14    13    1
    43    14    15    2
    44   108   107    1
    45   116   114   am
    46    10    11    2
    47   109   103   am
    48   109   110    1
    49   106   107    1
    50     3     8   am
    51     3     2    1
    52   103   104    2
    53   113   114    1
    54   113   110    1
    55     7     1    1
    56     7     6    1
    57   114   115    2
    58     1     2    1
    59     6     5    1
    60   110   111    1
    61    29    28    1
    62    28    25    1
    63     2     5    1
    64    27    26    2
    65   111   112    2
    66    64    63    1
    67    26    25    1
    68    25    24    1
    69    23    20    1
    70    22    21    2
    71    62    63    1
    72    62    61    1
    73   123   122    1
    74   117   118    1
    75    61    58    1
    76    19    20    1
    77    20    21    1
    78   122   121    1
    79   122   124    1
    80    40    38   ar
    81    40    39   ar
    82   121   118    1
    83   118   119    1
    84    38    36   ar
    85    55    54    1
    86    58    57    1
    87    58    59    1
    88    57    51   am
    89    69    66    1
    90    65    59   am
    91    65    66    1
    92    39    37   ar
    93    59    60    2
    94   119   120    2
    95    66    67    1
    96    54    56    1
    97    54    53    1
    98    36    35   ar
    99    51    50    1
   100    51    52    2
   101    50    53    1
   102    50    49    1
   103    37    35   ar
   104    44    43    2
   105    35    34    1
   106    33    32    2
   107    67    68    2
   108    49    43   am
   109    43    42    1
   110    32    31    1
   111    30    31    1
   112    34    31    1
   113    41    42    1
   114    42    45    1
   115    47    46   ar
   116    46    45    1
   117    46    48   ar
