@<TRIPOS>MOLECULE
tmp/6ccoA00.pdb
 130 124 0 0 0
SMALL
GASTEIGER

@<TRIPOS>ATOM
      1  N        -25.5600  -39.8200   55.3760 N.3     8  PRO8       -0.2102
      2  CA       -26.8320  -40.4960   55.6760 C.3     8  PRO8        0.1504
      3  C        -27.4570  -41.2480   54.5230 C.2     8  PRO8        0.2576
      4  O        -27.2100  -40.9300   53.3710 O.2     8  PRO8       -0.2718
      5  CB       -27.7300  -39.3550   56.1610 C.3     8  PRO8        0.0282
      6  CG       -27.2500  -38.1420   55.3350 C.3     8  PRO8        0.0208
      7  CD       -25.7530  -38.3590   55.1470 C.3     8  PRO8        0.0893
      8  N        -28.2800  -42.2350   54.8400 N.am    9  GLY9       -0.1943
      9  CA       -28.9510  -43.0130   53.8030 C.3     9  GLY9        0.2014
     10  C        -29.7050  -44.1580   54.4240 C.2     9  GLY9        0.2639
     11  O        -29.6540  -44.3430   55.6340 O.2     9  GLY9       -0.2714
     12  N        -30.4150  -44.9080   53.6120 N.am   10  THR10      -0.1950
     13  CA       -31.1290  -46.0910   54.1100 C.3    10  THR10       0.1897
     14  C        -30.1820  -47.2730   54.0130 C.2    10  THR10       0.2313
     15  O        -30.3420  -48.2130   54.7750 O.2    10  THR10      -0.2863
     16  CB       -32.4260  -46.3210   53.3310 C.3    10  THR10       0.1794
     17  OG1      -32.1220  -46.3440   51.9290 O.3    10  THR10      -0.2208
     18  CG2      -33.4650  -45.2550   53.6260 C.3    10  THR10       0.0378
     19  N        -30.7000  -44.6200   58.2790 N.3    37  ALA37      -0.1245
     20  CA       -32.0670  -44.2550   58.6690 C.3    37  ALA37       0.1562
     21  C        -32.8490  -45.4720   59.1670 C.2    37  ALA37       0.2260
     22  O        -32.8400  -46.5290   58.5300 O.2    37  ALA37      -0.2867
     23  CB       -32.7970  -43.6020   57.5060 C.3    37  ALA37       0.0290
     24  N        -36.1960  -45.5880   59.8070 N.3    39  SER39      -0.1217
     25  CA       -37.5430  -45.5320   59.2370 C.3    39  SER39       0.1889
     26  C        -37.7360  -46.0420   57.8360 C.2    39  SER39       0.2288
     27  O        -37.0120  -45.6810   56.9030 O.2    39  SER39      -0.2866
     28  CB       -38.1130  -44.1130   59.2970 C.3    39  SER39       0.2089
     29  OG       -38.6490  -43.6390   58.0700 O.3    39  SER39      -0.2183
     30  N        -30.1050  -43.8930   63.0470 N.3    70  PHE70      -0.1227
     31  CA       -30.7980  -42.6800   63.5180 C.3    70  PHE70       0.1736
     32  C        -32.2360  -42.7040   63.0390 C.2    70  PHE70       0.2596
     33  O        -32.5150  -43.2690   61.9830 O.2    70  PHE70      -0.2718
     34  CB       -30.0660  -41.3900   63.0980 C.3    70  PHE70       0.0547
     35  CG       -30.1970  -41.0000   61.6430 C.ar   70  PHE70      -0.0202
     36  CD1      -29.5270  -41.7020   60.6570 C.ar   70  PHE70      -0.0042
     37  CD2      -30.9630  -39.8960   61.2680 C.ar   70  PHE70      -0.0042
     38  CE1      -29.6320  -41.3300   59.3080 C.ar   70  PHE70      -0.0003
     39  CE2      -31.0790  -39.5340   59.9210 C.ar   70  PHE70      -0.0003
     40  CZ       -30.4040  -40.2510   58.9520 C.ar   70  PHE70      -0.0000
     41  N        -33.1470  -42.0880   63.8040 N.am   71  SER71      -0.1938
     42  CA       -34.5760  -42.1070   63.4660 C.3    71  SER71       0.2055
     43  C        -35.1510  -40.7090   63.3140 C.2    71  SER71       0.2643
     44  O        -36.3550  -40.5580   63.1350 O.2    71  SER71      -0.2714
     45  CB       -35.3510  -42.9080   64.5140 C.3    71  SER71       0.2130
     46  OG       -35.1690  -42.2700   65.7630 O.3    71  SER71      -0.2179
     47  N        -34.2940  -39.6890   63.3600 N.am   72  ASP72      -0.1957
     48  CA       -34.7260  -38.3020   63.2190 C.3    72  ASP72       0.1840
     49  C        -34.3630  -37.7270   61.8390 C.2    72  ASP72       0.2622
     50  O        -33.9360  -38.4780   60.9500 O.2    72  ASP72      -0.2715
     51  CB       -34.1710  -37.4420   64.3850 C.3    72  ASP72       0.1450
     52  CG       -32.6700  -37.4290   64.5860 C.2    72  ASP72       0.3671
     53  OD1      -31.9740  -38.2500   63.9520 O.co2  72  ASP72      -0.2456
     54  OD2      -32.2010  -36.6810   65.4700 O.co2  72  ASP72      -0.2456
     55  N        -34.5610  -36.3970   61.6330 N.am   73  LEU73      -0.1963
     56  CA       -34.1630  -35.7630   60.3660 C.3    73  LEU73       0.1728
     57  C        -32.6590  -35.8390   60.2920 C.2    73  LEU73       0.2616
     58  O        -32.0260  -35.6990   61.3330 O.2    73  LEU73      -0.2715
     59  CB       -34.5430  -34.2620   60.3210 C.3    73  LEU73       0.0311
     60  CG       -36.0160  -33.9010   60.2190 C.3    73  LEU73       0.0022
     61  CD1      -36.2030  -32.4390   60.4910 C.3    73  LEU73       0.0001
     62  CD2      -36.5790  -34.2290   58.8430 C.3    73  LEU73       0.0001
     63  N        -32.0800  -35.9750   59.0810 N.am   74  MET74      -0.1963
     64  CA       -30.6250  -35.9980   58.9410 C.3    74  MET74       0.1736
     65  C        -29.9810  -34.6760   59.4620 C.2    74  MET74       0.2616
     66  O        -28.8590  -34.7180   59.9690 O.2    74  MET74      -0.2715
     67  CB       -30.1620  -36.3840   57.5170 C.3    74  MET74       0.0427
     68  CG       -30.4830  -35.3620   56.4490 C.3    74  MET74       0.0599
     69  SD       -30.1080  -35.9750   54.7680 S.3    74  MET74      -0.1393
     70  CE       -31.6140  -36.6440   54.3710 C.3    74  MET74       0.0692
     71  N        -30.7040  -33.5270   59.3720 N.am   75  ALA75      -0.1977
     72  CA       -30.1750  -32.2590   59.8980 C.3    75  ALA75       0.1597
     73  C        -30.0860  -32.3170   61.4460 C.2    75  ALA75       0.2287
     74  O        -29.0810  -31.8860   62.0160 O.2    75  ALA75      -0.2864
     75  CB       -31.0630  -31.0860   59.4600 C.3    75  ALA75       0.0319
     76  N        -23.4020  -36.1670   50.3260 N.3    88  ARG88      -0.1245
     77  CA       -24.3980  -36.7310   49.4030 C.3    88  ARG88       0.1563
     78  C        -23.6390  -37.3170   48.2430 C.2    88  ARG88       0.2260
     79  O        -22.7050  -36.6960   47.7420 O.2    88  ARG88      -0.2867
     80  CB       -25.3770  -35.6470   48.8730 C.3    88  ARG88       0.0307
     81  CG       -26.2120  -34.9800   49.9610 C.3    88  ARG88       0.0489
     82  CD       -27.1820  -35.9490   50.6400 C.3    88  ARG88       0.2205
     83  NE       -28.2060  -36.4730   49.7320 N.pl3  88  ARG88      -0.0865
     84  CZ       -29.1020  -37.3970   50.0700 C.cat  88  ARG88       0.5346
     85  NH1      -29.0950  -37.9230   51.2900 N.pl3  88  ARG88       0.1354
     86  NH2      -30.0310  -37.7770   49.2010 N.pl3  88  ARG88       0.1354
     87  N        -34.3500  -33.3930   43.3790 N.3    98  TYR98      -0.1241
     88  CA       -34.5850  -33.7360   44.7740 C.3    98  TYR98       0.1605
     89  C        -33.3920  -33.3490   45.6350 C.2    98  TYR98       0.2264
     90  O        -33.5860  -32.9130   46.7670 O.2    98  TYR98      -0.2867
     91  CB       -34.9480  -35.2230   44.9700 C.3    98  TYR98       0.0534
     92  CG       -35.3500  -35.5240   46.4010 C.ar   98  TYR98      -0.0201
     93  CD1      -36.4340  -34.8800   46.9910 C.ar   98  TYR98      -0.0009
     94  CD2      -34.5940  -36.3820   47.1930 C.ar   98  TYR98      -0.0009
     95  CE1      -36.7790  -35.1100   48.3190 C.ar   98  TYR98       0.0417
     96  CE2      -34.9470  -36.6430   48.5180 C.ar   98  TYR98       0.0417
     97  CZ       -36.0360  -35.9950   49.0790 C.ar   98  TYR98       0.1957
     98  OH       -36.4010  -36.2290   50.3850 O.3    98  TYR98      -0.2866
     99  N        -33.5170  -31.1020   48.9720 N.3   102  LEU102     -0.1245
    100  CA       -32.9520  -31.5900   50.2200 C.3   102  LEU102      0.1561
    101  C        -31.8850  -30.6500   50.7810 C.2   102  LEU102      0.2260
    102  O        -31.8990  -30.3660   51.9860 O.2   102  LEU102     -0.2867
    103  CB       -32.3960  -33.0100   49.9990 C.3   102  LEU102      0.0270
    104  CG       -31.9530  -33.7600   51.2280 C.3   102  LEU102      0.0019
    105  CD1      -33.1080  -33.9390   52.2030 C.3   102  LEU102      0.0001
    106  CD2      -31.4100  -35.1140   50.8430 C.3   102  LEU102      0.0001
    107  N        -33.4590  -27.4160   52.0410 N.3   105  MET105     -0.1230
    108  CA       -34.2020  -27.6800   53.2820 C.3   105  MET105      0.1702
    109  C        -33.2320  -27.9050   54.4580 C.2   105  MET105      0.2592
    110  O        -33.4310  -27.3310   55.5330 O.2   105  MET105     -0.2718
    111  CB       -35.1850  -28.8650   53.1130 C.3   105  MET105      0.0401
    112  CG       -35.9610  -29.2260   54.4130 C.3   105  MET105      0.0596
    113  SD       -36.9540  -27.8020   55.0050 S.3   105  MET105     -0.1393
    114  CE       -38.2480  -27.7700   53.7360 C.3   105  MET105      0.0692
    115  N        -32.1650  -28.6940   54.2480 N.am  106  ASN106     -0.1974
    116  CA       -31.1470  -28.9090   55.2900 C.3   106  ASN106      0.1688
    117  C        -30.4890  -27.5910   55.7270 C.2   106  ASN106      0.2292
    118  O        -30.2210  -27.3980   56.9150 O.2   106  ASN106     -0.2864
    119  CB       -30.1140  -29.9380   54.8080 C.3   106  ASN106      0.1181
    120  CG       -30.6430  -31.3320   55.0040 C.2   106  ASN106      0.2629
    121  OD1      -31.3090  -31.6160   55.9940 O.2   106  ASN106     -0.2716
    122  ND2      -30.3030  -32.2540   54.1260 N.am  106  ASN106     -0.0877
    123  N        -32.9240  -25.7970   57.9950 N.3   109  LEU109     -0.1245
    124  CA       -33.0010  -26.4470   59.3190 C.3   109  LEU109      0.1561
    125  C        -31.7380  -26.2500   60.1430 C.2   109  LEU109      0.2260
    126  O        -31.8260  -26.0930   61.3630 O.2   109  LEU109     -0.2867
    127  CB       -33.2980  -27.9560   59.1620 C.3   109  LEU109      0.0270
    128  CG       -34.6620  -28.3180   58.5410 C.3   109  LEU109      0.0019
    129  CD1      -34.6660  -29.7680   58.0000 C.3   109  LEU109      0.0001
    130  CD2      -35.7880  -28.1280   59.5480 C.3   109  LEU109      0.0001
@<TRIPOS>BOND
     1    87    88    1
     2    88    91    1
     3    88    89    1
     4    91    92    1
     5    89    90    2
     6    92    93   ar
     7    92    94   ar
     8    93    95   ar
     9    94    96   ar
    10    79    78    2
    11    78    77    1
    12    95    97   ar
    13    96    97   ar
    14    80    77    1
    15    80    81    1
    16    99   100    1
    17    97    98    1
    18    86    84    1
    19    77    76    1
    20    83    84    2
    21    83    82    1
    22    81    82    1
    23   103   100    1
    24   103   104    1
    25    84    85    1
    26   100   101    1
    27   101   102    2
    28   106   104    1
    29   104   105    1
    30    17    16    1
    31   107   108    1
    32   111   108    1
    33   111   112    1
    34   108   109    1
    35    16    18    1
    36    16    13    1
    37     4     3    2
    38    12    13    1
    39    12    10   am
    40   114   113    1
    41     9    10    1
    42     9     8    1
    43    14    13    1
    44    14    15    2
    45   122   120   am
    46   115   109   am
    47   115   116    1
    48    70    69    1
    49   112   113    1
    50    10    11    2
    51   109   110    2
    52     3     8   am
    53     3     2    1
    54    69    68    1
    55   119   120    1
    56   119   116    1
    57   120   121    2
    58     7     6    1
    59     7     1    1
    60   116   117    1
    61     6     5    1
    62     1     2    1
    63     2     5    1
    64   117   118    2
    65    68    67    1
    66    27    26    2
    67    23    20    1
    68    67    64    1
    69    26    25    1
    70   123   124    1
    71   129   128    1
    72    29    28    1
    73    19    20    1
    74    22    21    2
    75   128   127    1
    76   128   130    1
    77    20    21    1
    78    62    60    1
    79    64    63    1
    80    64    65    1
    81    40    38   ar
    82    40    39   ar
    83    63    57   am
    84   127   124    1
    85    25    28    1
    86    25    24    1
    87    38    36   ar
    88   124   125    1
    89    71    65   am
    90    71    72    1
    91    75    72    1
    92    65    66    2
    93    72    73    1
    94    39    37   ar
    95   125   126    2
    96    60    59    1
    97    60    61    1
    98    57    56    1
    99    57    58    2
   100    59    56    1
   101    56    55    1
   102    36    35   ar
   103    50    49    2
   104    37    35   ar
   105    73    74    2
   106    55    49   am
   107    35    34    1
   108    49    48    1
   109    33    32    2
   110    32    31    1
   111    32    41   am
   112    30    31    1
   113    34    31    1
   114    44    43    2
   115    48    47    1
   116    48    51    1
   117    43    47   am
   118    43    42    1
   119    42    41    1
   120    42    45    1
   121    53    52   ar
   122    51    52    1
   123    45    46    1
   124    52    54   ar
