@<TRIPOS>MOLECULE
tmp/6ccqB00.pdb
 130 124 0 0 0
SMALL
GASTEIGER

@<TRIPOS>ATOM
      1  N         39.9100  -25.5930   55.4010 N.3     8  PRO8       -0.2102
      2  CA        40.6060  -26.8480   55.7260 C.3     8  PRO8        0.1504
      3  C         41.3040  -27.4940   54.5480 C.2     8  PRO8        0.2576
      4  O         40.9600  -27.2450   53.3980 O.2     8  PRO8       -0.2718
      5  CB        39.4950  -27.7210   56.2750 C.3     8  PRO8        0.0282
      6  CG        38.2870  -27.3410   55.3880 C.3     8  PRO8        0.0208
      7  CD        38.4690  -25.8280   55.1260 C.3     8  PRO8        0.0893
      8  N         42.2770  -28.3360   54.8440 N.am    9  GLY9       -0.1943
      9  CA        43.0170  -29.0330   53.8070 C.3     9  GLY9        0.2014
     10  C         44.1690  -29.7600   54.4310 C.2     9  GLY9        0.2639
     11  O         44.3820  -29.6790   55.6430 O.2     9  GLY9       -0.2714
     12  N         44.9350  -30.4390   53.6050 N.am   10  THR10      -0.1950
     13  CA        46.1100  -31.1480   54.0930 C.3    10  THR10       0.1897
     14  C         47.3290  -30.2250   54.0310 C.2    10  THR10       0.2313
     15  O         48.2410  -30.4170   54.8210 O.2    10  THR10      -0.2863
     16  CB        46.2640  -32.4820   53.3550 C.3    10  THR10       0.1794
     17  OG1       46.5040  -32.1970   51.9750 O.3    10  THR10      -0.2208
     18  CG2       45.0130  -33.3390   53.4690 C.3    10  THR10       0.0378
     19  N         44.7190  -30.6440   58.3330 N.3    37  ALA37      -0.1245
     20  CA        44.3220  -31.9880   58.7110 C.3    37  ALA37       0.1562
     21  C         45.5230  -32.8710   59.0160 C.2    37  ALA37       0.2260
     22  O         46.5330  -32.7840   58.3290 O.2    37  ALA37      -0.2867
     23  CB        43.4900  -32.6080   57.5970 C.3    37  ALA37       0.0290
     24  N         45.5800  -35.8740   58.2690 N.3    39  SER39      -0.1217
     25  CA        45.4990  -36.6170   57.0010 C.3    39  SER39       0.1889
     26  C         46.4040  -37.8450   57.0010 C.2    39  SER39       0.2288
     27  O         47.3140  -37.9370   56.1730 O.2    39  SER39      -0.2866
     28  CB        45.7920  -35.7070   55.8130 C.3    39  SER39       0.2089
     29  OG        47.1370  -35.2520   55.8130 O.3    39  SER39      -0.2183
     30  N         44.1790  -30.1100   63.0440 N.3    70  PHE70      -0.1227
     31  CA        42.9920  -30.8100   63.5460 C.3    70  PHE70       0.1736
     32  C         43.0200  -32.2530   63.0980 C.2    70  PHE70       0.2596
     33  O         43.5720  -32.5650   62.0420 O.2    70  PHE70      -0.2718
     34  CB        41.6750  -30.0880   63.1590 C.3    70  PHE70       0.0547
     35  CG        41.2700  -30.2490   61.7120 C.ar   70  PHE70      -0.0202
     36  CD1       41.8960  -29.5140   60.7080 C.ar   70  PHE70      -0.0042
     37  CD2       40.2690  -31.1390   61.3500 C.ar   70  PHE70      -0.0042
     38  CE1       41.5260  -29.6720   59.3680 C.ar   70  PHE70      -0.0003
     39  CE2       39.9020  -31.2930   60.0090 C.ar   70  PHE70      -0.0003
     40  CZ        40.5350  -30.5580   59.0280 C.ar   70  PHE70      -0.0000
     41  N         42.4610  -33.1430   63.9180 N.am   71  SER71      -0.1938
     42  CA        42.4520  -34.5850   63.6280 C.3    71  SER71       0.2055
     43  C         41.0340  -35.1730   63.5050 C.2    71  SER71       0.2643
     44  O         40.8810  -36.3430   63.1310 O.2    71  SER71      -0.2714
     45  CB        43.2700  -35.3350   64.6810 C.3    71  SER71       0.2130
     46  OG        42.6930  -35.1200   65.9600 O.3    71  SER71      -0.2179
     47  N         39.9970  -34.3690   63.8410 N.am   72  ASP72      -0.1957
     48  CA        38.5960  -34.8060   63.7520 C.3    72  ASP72       0.1840
     49  C         38.0610  -34.5960   62.3280 C.2    72  ASP72       0.2622
     50  O         38.7690  -34.1110   61.4380 O.2    72  ASP72      -0.2715
     51  CB        37.6980  -34.0510   64.7780 C.3    72  ASP72       0.1450
     52  CG        36.5510  -34.8600   65.4150 C.2    72  ASP72       0.3671
     53  OD1       36.0230  -35.7940   64.7440 O.co2  72  ASP72      -0.2456
     54  OD2       36.1470  -34.5270   66.5780 O.co2  72  ASP72      -0.2456
     55  N         36.7850  -34.9450   62.1360 N.am   73  LEU73      -0.1963
     56  CA        36.0200  -34.7450   60.9240 C.3    73  LEU73       0.1728
     57  C         36.0160  -33.2190   60.8050 C.2    73  LEU73       0.2619
     58  O         35.8490  -32.5290   61.8180 O.2    73  LEU73      -0.2715
     59  CB        34.6150  -35.2480   61.2460 C.3    73  LEU73       0.0311
     60  CG        33.6160  -35.3480   60.1400 C.3    73  LEU73       0.0022
     61  CD1       34.0190  -36.4000   59.1310 C.3    73  LEU73       0.0001
     62  CD2       32.2980  -35.6960   60.7280 C.3    73  LEU73       0.0001
     63  N         36.2330  -32.6730   59.5640 N.am   74  MET74      -0.1917
     64  CA        36.3230  -31.2220   59.2650 C.3    74  MET74       0.1952
     65  C         35.0580  -30.4340   59.7000 C.2    74  MET74       0.2658
     66  O         35.1460  -29.2370   59.9980 O.2    74  MET74      -0.2711
     67  CB        36.7340  -30.9210   57.7880 C.2    74  MET74       0.0110
     68  CG        35.5830  -30.8030   56.7540 C.2    74  MET74       0.0285
     69  SD        36.0860  -30.3080   55.0580 S.3    74  MET74      -0.1125
     70  CE        36.5790  -31.8580   54.3990 C.3    74  MET74       0.0742
     71  N         33.9050  -31.1120   59.7570 N.am   75  ALA75      -0.1974
     72  CA        32.6480  -30.5250   60.2290 C.3    75  ALA75       0.1597
     73  C         32.6470  -30.4420   61.7800 C.2    75  ALA75       0.2287
     74  O         32.1880  -29.4420   62.3240 O.2    75  ALA75      -0.2864
     75  CB        31.4510  -31.3520   59.7470 C.3    75  ALA75       0.0319
     76  N         36.3300  -23.3640   50.3130 N.3    88  ARG88      -0.1245
     77  CA        36.8860  -24.3680   49.4130 C.3    88  ARG88       0.1563
     78  C         37.4250  -23.6270   48.2080 C.2    88  ARG88       0.2260
     79  O         36.7370  -22.7690   47.6550 O.2    88  ARG88      -0.2867
     80  CB        35.8160  -25.3810   48.9360 C.3    88  ARG88       0.0307
     81  CG        35.1610  -26.2440   50.0150 C.3    88  ARG88       0.0489
     82  CD        36.1270  -27.2100   50.6640 C.3    88  ARG88       0.2205
     83  NE        36.6660  -28.2140   49.7370 N.pl3  88  ARG88      -0.0865
     84  CZ        37.6830  -29.0220   50.0170 C.cat  88  ARG88       0.5346
     85  NH1       38.3130  -28.9270   51.1790 N.pl3  88  ARG88       0.1354
     86  NH2       38.0830  -29.9260   49.1330 N.pl3  88  ARG88       0.1354
     87  N         33.3270  -34.2610   43.1960 N.3    98  TYR98      -0.1241
     88  CA        33.8020  -34.5250   44.5540 C.3    98  TYR98       0.1605
     89  C         33.4950  -33.3560   45.4930 C.2    98  TYR98       0.2264
     90  O         33.1000  -33.5880   46.6390 O.2    98  TYR98      -0.2867
     91  CB        35.2980  -34.9030   44.5810 C.3    98  TYR98       0.0534
     92  CG        35.8570  -35.0300   45.9830 C.ar   98  TYR98      -0.0201
     93  CD1       35.5190  -36.1100   46.7940 C.ar   98  TYR98      -0.0009
     94  CD2       36.6770  -34.0390   46.5210 C.ar   98  TYR98      -0.0009
     95  CE1       36.0090  -36.2200   48.0930 C.ar   98  TYR98       0.0417
     96  CE2       37.1690  -34.1370   47.8220 C.ar   98  TYR98       0.0417
     97  CZ        36.8420  -35.2350   48.6000 C.ar   98  TYR98       0.1957
     98  OH        37.3230  -35.3360   49.8820 O.3    98  TYR98      -0.2866
     99  N         31.2530  -33.5580   48.8900 N.3   102  LEU102     -0.1245
    100  CA        31.7960  -33.0550   50.1370 C.3   102  LEU102      0.1561
    101  C         30.9100  -31.9830   50.7530 C.2   102  LEU102      0.2260
    102  O         30.6380  -32.0410   51.9540 O.2   102  LEU102     -0.2867
    103  CB        33.2170  -32.5170   49.9090 C.3   102  LEU102      0.0270
    104  CG        34.0340  -32.2690   51.1620 C.3   102  LEU102      0.0019
    105  CD1       34.3360  -33.5800   51.8860 C.3   102  LEU102      0.0001
    106  CD2       35.3170  -31.5380   50.8180 C.3   102  LEU102      0.0001
    107  N         27.6500  -33.5230   52.0330 N.3   105  MET105     -0.1230
    108  CA        27.9170  -34.3050   53.2460 C.3   105  MET105      0.1702
    109  C         28.1530  -33.3360   54.4370 C.2   105  MET105      0.2592
    110  O         27.5590  -33.5290   55.5000 O.2   105  MET105     -0.2718
    111  CB        29.1090  -35.2600   53.0590 C.3   105  MET105      0.0401
    112  CG        29.4730  -36.0490   54.3430 C.3   105  MET105      0.0596
    113  SD        28.0790  -37.0140   55.0220 S.3   105  MET105     -0.1393
    114  CE        28.0170  -38.3860   53.8290 C.3   105  MET105      0.0692
    115  N         28.9840  -32.2890   54.2330 N.am  106  ASN106     -0.1974
    116  CA        29.2360  -31.2690   55.2590 C.3   106  ASN106      0.1688
    117  C         27.9580  -30.5620   55.6930 C.2   106  ASN106      0.2292
    118  O         27.8050  -30.2490   56.8750 O.2   106  ASN106     -0.2864
    119  CB        30.2960  -30.2660   54.7920 C.3   106  ASN106      0.1181
    120  CG        31.6760  -30.7940   55.0340 C.2   106  ASN106      0.2629
    121  OD1       31.9230  -31.5010   56.0120 O.2   106  ASN106     -0.2716
    122  ND2       32.5780  -30.5550   54.1180 N.am  106  ASN106     -0.0877
    123  N         26.0630  -32.9430   57.9430 N.3   109  LEU109     -0.1245
    124  CA        26.7300  -33.0060   59.2470 C.3   109  LEU109      0.1561
    125  C         26.5470  -31.7480   60.0870 C.2   109  LEU109      0.2260
    126  O         26.3510  -31.8390   61.2980 O.2   109  LEU109     -0.2867
    127  CB        28.2370  -33.3080   59.0650 C.3   109  LEU109      0.0270
    128  CG        28.5890  -34.6850   58.4640 C.3   109  LEU109      0.0019
    129  CD1       30.0180  -34.6970   57.9300 C.3   109  LEU109      0.0001
    130  CD2       28.3810  -35.8040   59.4710 C.3   109  LEU109      0.0001
@<TRIPOS>BOND
     1    87    88    1
     2    88    91    1
     3    88    89    1
     4    91    92    1
     5    89    90    2
     6    92    94   ar
     7    92    93   ar
     8    94    96   ar
     9    93    95   ar
    10    79    78    2
    11    96    97   ar
    12    95    97   ar
    13    78    77    1
    14    97    98    1
    15    99   100    1
    16    80    77    1
    17    80    81    1
    18    86    84    1
    19    77    76    1
    20    83    84    2
    21    83    82    1
    22   103   100    1
    23   103   104    1
    24    81    82    1
    25    84    85    1
    26   100   101    1
    27   101   102    2
    28   106   104    1
    29   104   105    1
    30    17    16    1
    31   107   108    1
    32   111   108    1
    33   111   112    1
    34   108   109    1
    35    16    18    1
    36    16    13    1
    37     4     3    2
    38    12    13    1
    39    12    10   am
    40     9    10    1
    41     9     8    1
    42   114   113    1
    43    14    13    1
    44    14    15    2
    45   122   120   am
    46   115   109   am
    47   115   116    1
    48   112   113    1
    49    70    69    1
    50    10    11    2
    51   109   110    2
    52     3     8   am
    53     3     2    1
    54   119   120    1
    55   119   116    1
    56   120   121    2
    57    69    68    1
    58     7     6    1
    59     7     1    1
    60   116   117    1
    61     6     5    1
    62     1     2    1
    63   117   118    2
    64     2     5    1
    65    29    28    1
    66    28    25    1
    67    27    26    2
    68    68    67    2
    69    25    26    1
    70    25    24    1
    71    23    20    1
    72    67    64    1
    73   129   128    1
    74   123   124    1
    75    22    21    2
    76    19    20    1
    77   128   127    1
    78   128   130    1
    79    20    21    1
    80    40    38   ar
    81    40    39   ar
    82   127   124    1
    83    61    60    1
    84   124   125    1
    85    64    63    1
    86    64    65    1
    87    38    36   ar
    88    63    57   am
    89    65    71   am
    90    65    66    2
    91    75    72    1
    92    71    72    1
    93    39    37   ar
    94   125   126    2
    95    60    62    1
    96    60    59    1
    97    72    73    1
    98    36    35   ar
    99    57    56    1
   100    57    58    2
   101    56    59    1
   102    56    55    1
   103    37    35   ar
   104    50    49    2
   105    35    34    1
   106    73    74    2
   107    33    32    2
   108    55    49   am
   109    49    48    1
   110    30    31    1
   111    32    31    1
   112    32    41   am
   113    44    43    2
   114    34    31    1
   115    43    42    1
   116    43    47   am
   117    42    41    1
   118    42    45    1
   119    48    47    1
   120    48    51    1
   121    45    46    1
   122    53    52   ar
   123    51    52    1
   124    52    54   ar
