@<TRIPOS>MOLECULE
tmp/6ccsA00.pdb
 101 96 0 0 0
SMALL
GASTEIGER

@<TRIPOS>ATOM
      1  N         19.6910   -8.6620   35.5170 N.3    36  ALA36      -0.1245
      2  CA        20.2260   -8.1650   34.2480 C.3    36  ALA36       0.1562
      3  C         19.1220   -8.0790   33.2120 C.2    36  ALA36       0.2260
      4  O         18.2620   -8.9670   33.1570 O.2    36  ALA36      -0.2867
      5  CB        21.3510   -9.0720   33.7560 C.3    36  ALA36       0.0290
      6  N         19.3490   -8.5020   30.0660 N.3    38  SER38      -0.1217
      7  CA        19.6470   -9.6520   29.1980 C.3    38  SER38       0.1889
      8  C         18.8330   -9.6990   27.8820 C.2    38  SER38       0.2288
      9  O         18.2800  -10.7540   27.5920 O.2    38  SER38      -0.2866
     10  CB        19.4980  -10.9680   29.9600 C.3    38  SER38       0.2089
     11  OG        20.1030  -10.9580   31.2420 O.3    38  SER38      -0.2183
     12  N         19.2340   -3.9210   36.0790 N.3    69  PHE69      -0.1227
     13  CA        20.3660   -3.1870   35.4860 C.3    69  PHE69       0.1736
     14  C         20.6150   -3.6340   34.0350 C.2    69  PHE69       0.2596
     15  O         20.4150   -4.8000   33.7040 O.2    69  PHE69      -0.2718
     16  CB        21.6470   -3.3500   36.3220 C.3    69  PHE69       0.0547
     17  CG        22.2820   -4.7260   36.2880 C.ar   69  PHE69      -0.0202
     18  CD1       21.7550   -5.7730   37.0340 C.ar   69  PHE69      -0.0042
     19  CD2       23.4230   -4.9640   35.5290 C.ar   69  PHE69      -0.0042
     20  CE1       22.3330   -7.0460   36.9890 C.ar   69  PHE69      -0.0003
     21  CE2       24.0160   -6.2220   35.5070 C.ar   69  PHE69      -0.0003
     22  CZ        23.4660   -7.2620   36.2370 C.ar   69  PHE69      -0.0000
     23  N         21.0430   -2.6990   33.1910 N.am   70  SER70      -0.1938
     24  CA        21.4070   -2.9600   31.8040 C.3    70  SER70       0.2055
     25  C         22.9220   -2.7360   31.6800 C.2    70  SER70       0.2643
     26  O         23.4950   -2.9620   30.6180 O.2    70  SER70      -0.2714
     27  CB        20.6480   -2.0430   30.8510 C.3    70  SER70       0.2130
     28  OG        20.8940   -0.6770   31.1480 O.3    70  SER70      -0.2179
     29  N         23.5590   -2.2870   32.7610 N.am   71  ASP71      -0.1957
     30  CA        25.0010   -2.0250   32.7810 C.3    71  ASP71       0.1840
     31  C         25.8140   -3.3150   32.7530 C.2    71  ASP71       0.2622
     32  O         25.2840   -4.4110   32.9190 O.2    71  ASP71      -0.2715
     33  CB        25.3900   -1.2600   34.0800 C.3    71  ASP71       0.1450
     34  CG        24.7900    0.1320   34.2740 C.2    71  ASP71       0.3671
     35  OD1       24.2840    0.7160   33.2870 O.co2  71  ASP71      -0.2456
     36  OD2       24.8750    0.6540   35.3870 O.co2  71  ASP71      -0.2456
     37  N         27.1300   -3.1600   32.6050 N.am   72  LEU72      -0.1963
     38  CA        28.1030   -4.2360   32.7440 C.3    72  LEU72       0.1728
     39  C         27.9570   -4.6250   34.2390 C.2    72  LEU72       0.2616
     40  O         27.9190   -3.7130   35.0820 O.2    72  LEU72      -0.2715
     41  CB        29.4840   -3.5980   32.4800 C.3    72  LEU72       0.0311
     42  CG        30.7110   -4.4910   32.5940 C.3    72  LEU72       0.0022
     43  CD1       30.7680   -5.5040   31.4380 C.3    72  LEU72       0.0001
     44  CD2       31.9460   -3.6490   32.5870 C.3    72  LEU72       0.0001
     45  N         27.8430   -5.9340   34.5860 N.am   73  MET73      -0.1963
     46  CA        27.6210   -6.2600   36.0130 C.3    73  MET73       0.1736
     47  C         28.7910   -5.8010   36.9420 C.2    73  MET73       0.2616
     48  O         28.5330   -5.4790   38.0980 O.2    73  MET73      -0.2715
     49  CB        27.2110   -7.7420   36.2570 C.3    73  MET73       0.0427
     50  CG        28.3360   -8.7570   36.2570 C.3    73  MET73       0.0599
     51  SD        27.7870  -10.4930   36.5380 S.3    73  MET73      -0.1393
     52  CE        27.0410  -10.8840   34.9400 C.3    73  MET73       0.0692
     53  N         30.0380   -5.7360   36.4430 N.am   74  ALA74      -0.1977
     54  CA        31.1890   -5.2990   37.2370 C.3    74  ALA74       0.1597
     55  C         31.0520   -3.8040   37.6180 C.2    74  ALA74       0.2287
     56  O         31.3050   -3.4410   38.7680 O.2    74  ALA74      -0.2864
     57  CB        32.4800   -5.5380   36.4640 C.3    74  ALA74       0.0319
     58  N         31.2530  -22.0420   32.5040 N.3    97  TYR97      -0.1241
     59  CA        30.9330  -20.6590   32.1490 C.3    97  TYR97       0.1605
     60  C         31.1390  -19.6970   33.3320 C.2    97  TYR97       0.2264
     61  O         31.5570  -18.5550   33.1210 O.2    97  TYR97      -0.2867
     62  CB        29.5040  -20.5210   31.5830 C.3    97  TYR97       0.0534
     63  CG        29.1630  -19.1050   31.1680 C.ar   97  TYR97      -0.0201
     64  CD1       29.9070  -18.4460   30.1900 C.ar   97  TYR97      -0.0009
     65  CD2       28.1310  -18.4040   31.7880 C.ar   97  TYR97      -0.0009
     66  CE1       29.6180  -17.1310   29.8250 C.ar   97  TYR97       0.0417
     67  CE2       27.8210  -17.0950   31.4190 C.ar   97  TYR97       0.0417
     68  CZ        28.5790  -16.4570   30.4460 C.ar   97  TYR97       0.1957
     69  OH        28.2930  -15.1650   30.0740 O.3    97  TYR97      -0.2866
     70  N         33.1910  -16.0370   33.4080 N.3   101  LEU101     -0.1245
     71  CA        32.5490  -14.8310   33.8830 C.3   101  LEU101      0.1561
     72  C         33.3220  -14.2650   35.0820 C.2   101  LEU101      0.2260
     73  O         33.6150  -13.0710   35.0810 O.2   101  LEU101     -0.2867
     74  CB        31.0560  -15.1110   34.2070 C.3   101  LEU101      0.0270
     75  CG        30.2710  -14.0090   34.9280 C.3   101  LEU101      0.0019
     76  CD1       30.0820  -12.7970   34.0440 C.3   101  LEU101      0.0001
     77  CD2       28.9080  -14.5080   35.3960 C.3   101  LEU101      0.0001
     78  N         36.6800  -12.8960   34.0010 N.3   104  MET104     -0.1230
     79  CA        36.4190  -11.6370   33.2830 C.3   104  MET104      0.1702
     80  C         36.1250  -10.5240   34.3000 C.2   104  MET104      0.2592
     81  O         36.7670   -9.4830   34.2660 O.2   104  MET104     -0.2718
     82  CB        35.2490  -11.7880   32.2880 C.3   104  MET104      0.0401
     83  CG        35.0100  -10.5520   31.4380 C.3   104  MET104      0.0596
     84  SD        36.4730   -9.8950   30.5810 S.3   104  MET104     -0.1393
     85  CE        36.6530  -11.1340   29.2700 C.3   104  MET104      0.0692
     86  N         35.2000  -10.7730   35.2340 N.am  105  ASN105     -0.1974
     87  CA        34.8590   -9.8200   36.2860 C.3   105  ASN105      0.1688
     88  C         36.0650   -9.4460   37.1330 C.2   105  ASN105      0.2292
     89  O         36.1620   -8.3130   37.5930 O.2   105  ASN105     -0.2864
     90  CB        33.7380  -10.3720   37.1610 C.3   105  ASN105      0.1181
     91  CG        32.4020  -10.1580   36.5230 C.2   105  ASN105      0.2629
     92  OD1       32.1790   -9.1570   35.8390 O.2   105  ASN105     -0.2716
     93  ND2       31.4910  -11.0950   36.7080 N.am  105  ASN105     -0.0877
     94  N         37.9400   -6.8790   35.2210 N.3   108  LEU108     -0.1245
     95  CA        37.2030   -5.6090   35.2320 C.3   108  LEU108      0.1561
     96  C         37.2090   -4.9080   36.5950 C.2   108  LEU108      0.2260
     97  O         37.2830   -3.6830   36.6470 O.2   108  LEU108     -0.2867
     98  CB        35.7600   -5.8340   34.7490 C.3   108  LEU108      0.0270
     99  CG        35.6010   -6.4310   33.3300 C.3   108  LEU108      0.0019
    100  CD1       34.2990   -7.1410   33.1940 C.3   108  LEU108      0.0001
    101  CD2       35.7160   -5.3480   32.2450 C.3   108  LEU108      0.0001
@<TRIPOS>BOND
     1     9     8    2
     2     8     7    1
     3     7    10    1
     4     7     6    1
     5    85    84    1
     6    66    64   ar
     7    66    68   ar
     8    10    11    1
     9    69    68    1
    10    64    63   ar
    11    68    67   ar
    12    84    83    1
    13    26    25    2
    14    27    28    1
    15    27    24    1
    16    63    62    1
    17    63    65   ar
    18    67    65   ar
    19    83    82    1
    20    43    42    1
    21    62    59    1
    22    25    24    1
    23    25    29   am
    24    24    23    1
    25    59    58    1
    26    59    60    1
    27   101    99    1
    28    82    79    1
    29    41    42    1
    30    41    38    1
    31    44    42    1
    32    37    38    1
    33    37    31   am
    34    38    39    1
    35    31    30    1
    36    31    32    2
    37    29    30    1
    38    30    33    1
    39    61    60    2
    40     4     3    2
    41    23    14   am
    42   100    99    1
    43     3     2    1
    44    79    78    1
    45    79    80    1
    46    35    34   ar
    47    99    98    1
    48    70    71    1
    49    15    14    2
    50     5     2    1
    51    71    74    1
    52    71    72    1
    53    14    13    1
    54    76    75    1
    55    33    34    1
    56    74    75    1
    57    39    45   am
    58    39    40    2
    59     2     1    1
    60    81    80    2
    61    34    36   ar
    62    80    86   am
    63    45    46    1
    64    98    95    1
    65    75    77    1
    66    52    51    1
    67    73    72    2
    68    94    95    1
    69    95    96    1
    70    86    87    1
    71    13    12    1
    72    13    16    1
    73    21    19   ar
    74    21    22   ar
    75    19    17   ar
    76    92    91    2
    77    46    49    1
    78    46    47    1
    79    22    20   ar
    80    50    49    1
    81    50    51    1
    82    87    88    1
    83    87    90    1
    84    17    16    1
    85    17    18   ar
    86    53    47   am
    87    53    54    1
    88    57    54    1
    89    91    93   am
    90    91    90    1
    91    96    97    2
    92    47    48    2
    93    20    18   ar
    94    88    89    2
    95    54    55    1
    96    55    56    2
