@<TRIPOS>MOLECULE
tmp/6ccyA00.pdb
 208 200 0 0 0
SMALL
GASTEIGER

@<TRIPOS>ATOM
      1  N        -11.1590   19.3000  -39.0150 N.3    16  LEU16      -0.1231
      2  CA       -11.9690   19.4930  -37.8190 C.3    16  LEU16       0.1693
      3  C        -11.1650   19.8510  -36.6120 C.2    16  LEU16       0.2593
      4  O        -11.6460   20.5820  -35.7420 O.2    16  LEU16      -0.2718
      5  CB       -12.8720   18.2790  -37.5660 C.3    16  LEU16       0.0284
      6  CG       -13.7940   17.8910  -38.7160 C.3    16  LEU16       0.0019
      7  CD1      -14.3840   16.5230  -38.4860 C.3    16  LEU16       0.0001
      8  CD2      -14.8490   18.9930  -38.9890 C.3    16  LEU16       0.0001
      9  N         -9.9320   19.3480  -36.5970 N.am   17  GLY17      -0.1942
     10  CA        -8.9620   19.5390  -35.5350 C.3    17  GLY17       0.2014
     11  C         -7.5730   19.2000  -36.0240 C.2    17  GLY17       0.2639
     12  O         -7.4100   18.3700  -36.9240 O.2    17  GLY17      -0.2714
     13  N         -6.5700   19.8350  -35.4110 N.am   18  LYS18      -0.1963
     14  CA        -5.1680   19.7200  -35.8070 C.3    18  LYS18       0.1728
     15  C         -4.2640   19.9510  -34.6100 C.2    18  LYS18       0.2617
     16  O         -4.4920   20.8820  -33.8430 O.2    18  LYS18      -0.2715
     17  CB        -4.8790   20.7460  -36.9340 C.3    18  LYS18       0.0311
     18  CG        -3.4440   20.8070  -37.4730 C.3    18  LYS18       0.0038
     19  CD        -2.6890   22.1020  -37.0460 C.3    18  LYS18       0.0206
     20  CE        -3.1330   23.3810  -37.7530 C.3    18  LYS18       0.1093
     21  NZ        -2.7600   23.4010  -39.1980 N.3    18  LYS18      -0.1314
     22  N         -3.2600   19.0930  -34.4650 N.am   19  GLY19      -0.1940
     23  CA        -2.2900   19.1910  -33.3820 C.3    19  GLY19       0.2014
     24  C         -0.9550   18.5320  -33.6590 C.2    19  GLY19       0.2640
     25  O         -0.6480   18.1610  -34.7950 O.2    19  GLY19      -0.2714
     26  N         -0.1730   18.3740  -32.5920 N.am   20  THR20      -0.1936
     27  CA         1.1800   17.8160  -32.5760 C.3    20  THR20       0.2028
     28  C          1.2650   16.4020  -33.1630 C.2    20  THR20       0.2642
     29  O          2.1000   16.1610  -34.0330 O.2    20  THR20      -0.2714
     30  CB         1.7780   18.0030  -31.1770 C.3    20  THR20       0.1808
     31  OG1        1.7540   19.3940  -30.8890 O.3    20  THR20      -0.2208
     32  CG2        3.2090   17.5010  -31.0610 C.3    20  THR20       0.0379
     33  N          0.3740   15.5000  -32.7280 N.am   21  PHE21      -0.1959
     34  CA         0.3360   14.1000  -33.1600 C.3    21  PHE21       0.1771
     35  C         -0.3210   13.8740  -34.5210 C.2    21  PHE21       0.2620
     36  O         -0.1390   12.8190  -35.1200 O.2    21  PHE21      -0.2715
     37  CB        -0.3180   13.2210  -32.0790 C.3    21  PHE21       0.0574
     38  CG         0.2410   13.4400  -30.6960 C.ar   21  PHE21      -0.0200
     39  CD1        1.3370   12.7130  -30.2500 C.ar   21  PHE21      -0.0042
     40  CD2       -0.3020   14.4010  -29.8540 C.ar   21  PHE21      -0.0042
     41  CE1        1.8700   12.9240  -28.9710 C.ar   21  PHE21      -0.0003
     42  CE2        0.2400   14.6280  -28.5820 C.ar   21  PHE21      -0.0003
     43  CZ         1.3210   13.8850  -28.1470 C.ar   21  PHE21      -0.0000
     44  N         -1.0690   14.8520  -35.0050 N.am   22  GLY22      -0.1940
     45  CA        -1.7380   14.7380  -36.2930 C.3    22  GLY22       0.2014
     46  C         -2.9480   15.6330  -36.4550 C.2    22  GLY22       0.2639
     47  O         -3.0160   16.7310  -35.8870 O.2    22  GLY22      -0.2714
     48  N         -3.9200   15.1580  -37.2420 N.am   23  LYS23      -0.1963
     49  CA        -5.1310   15.9310  -37.5210 C.3    23  LYS23       0.1728
     50  C         -6.4020   15.0840  -37.6940 C.2    23  LYS23       0.2616
     51  O         -6.3370   13.8720  -37.9250 O.2    23  LYS23      -0.2715
     52  CB        -4.9170   16.8620  -38.7260 C.3    23  LYS23       0.0311
     53  CG        -4.2750   16.1920  -39.9330 C.3    23  LYS23       0.0038
     54  CD        -3.8440   17.2320  -40.9720 C.3    23  LYS23       0.0206
     55  CE        -3.4670   16.6010  -42.2970 C.3    23  LYS23       0.1093
     56  NZ        -3.1090   17.6200  -43.3260 N.3    23  LYS23      -0.1314
     57  N         -7.5620   15.7380  -37.5880 N.am   24  VAL24      -0.1977
     58  CA        -8.8260   15.0330  -37.8000 C.3    24  VAL24       0.1596
     59  C         -9.4510   15.6470  -39.0240 C.2    24  VAL24       0.2287
     60  O         -9.5490   16.8540  -39.1010 O.2    24  VAL24      -0.2864
     61  CB        -9.7630   15.0710  -36.5600 C.3    24  VAL24       0.0276
     62  CG1      -11.0650   14.3170  -36.8320 C.3    24  VAL24       0.0022
     63  CG2       -9.0620   14.5050  -35.3280 C.3    24  VAL24       0.0022
     64  N        -14.9470   10.5850  -39.7740 N.3    37  ALA37      -0.1245
     65  CA       -13.9700   11.5170  -39.2430 C.3    37  ALA37       0.1562
     66  C        -12.7340   10.6950  -39.1410 C.2    37  ALA37       0.2260
     67  O        -12.6860    9.7480  -38.3500 O.2    37  ALA37      -0.2867
     68  CB       -14.3750   12.0250  -37.8700 C.3    37  ALA37       0.0290
     69  N         -9.0100   10.2220  -38.1920 N.3    39  LYS39      -0.1245
     70  CA        -7.9650   10.7380  -37.3270 C.3    39  LYS39       0.1561
     71  C         -6.6760   10.1420  -37.9340 C.2    39  LYS39       0.2260
     72  O         -6.5460    8.9100  -38.0480 O.2    39  LYS39      -0.2867
     73  CB        -8.1710   10.3090  -35.8560 C.3    39  LYS39       0.0271
     74  CG        -7.0890   10.8170  -34.8980 C.3    39  LYS39       0.0035
     75  CD        -7.5270   10.7410  -33.4400 C.3    39  LYS39       0.0206
     76  CE        -7.0090    9.5240  -32.6970 C.3    39  LYS39       0.1093
     77  NZ        -7.5770    9.4410  -31.3190 N.3    39  LYS39      -0.1314
     78  N         -2.6120   10.0460  -37.6590 N.3    41  LEU41      -0.1245
     79  CA        -1.5140   10.1690  -36.7120 C.3    41  LEU41       0.1561
     80  C         -0.1480    9.8940  -37.3360 C.2    41  LEU41       0.2260
     81  O          0.0670    8.8340  -37.9390 O.2    41  LEU41      -0.2867
     82  CB        -1.7320    9.2630  -35.4860 C.3    41  LEU41       0.0270
     83  CG        -2.8500    9.6580  -34.5120 C.3    41  LEU41       0.0019
     84  CD1       -2.8310    8.7640  -33.2690 C.3    41  LEU41       0.0001
     85  CD2       -2.7960   11.1420  -34.1310 C.3    41  LEU41       0.0001
     86  N        -17.9890    5.8070  -29.2490 N.3    71  THR71      -0.1218
     87  CA       -17.6180    6.1000  -30.6120 C.3    71  THR71       0.1862
     88  C        -17.1430    4.7920  -31.3190 C.2    71  THR71       0.2287
     89  O        -16.4090    3.9870  -30.7350 O.2    71  THR71      -0.2866
     90  CB       -16.6160    7.2160  -30.5610 C.3    71  THR71       0.1770
     91  OG1      -16.7320    8.0210  -31.7180 O.3    71  THR71      -0.2211
     92  CG2      -15.2270    6.7310  -30.3230 C.3    71  THR71       0.0375
     93  N        -13.3270    6.8970  -38.0760 N.3    87  MET87      -0.1230
     94  CA       -14.3010    6.9350  -36.9920 C.3    87  MET87       0.1702
     95  C        -15.6510    7.3360  -37.4810 C.2    87  MET87       0.2592
     96  O        -15.7660    8.0790  -38.4460 O.2    87  MET87      -0.2718
     97  CB       -13.8690    7.9570  -35.9190 C.3    87  MET87       0.0401
     98  CG       -12.5240    7.6900  -35.2620 C.3    87  MET87       0.0596
     99  SD       -12.3120    6.0330  -34.5720 S.3    87  MET87      -0.1393
    100  CE       -13.4590    6.0830  -33.2450 C.3    87  MET87       0.0692
    101  N        -16.6780    6.8750  -36.7690 N.am   88  GLU88      -0.1966
    102  CA       -18.0750    7.2650  -36.9340 C.3    88  GLU88       0.1733
    103  C        -18.0820    8.8130  -36.8300 C.2    88  GLU88       0.2616
    104  O        -17.4780    9.3770  -35.9160 O.2    88  GLU88      -0.2715
    105  CB       -18.8290    6.6530  -35.7360 C.3    88  GLU88       0.0429
    106  CG       -20.3200    6.4110  -35.8640 C.3    88  GLU88       0.1163
    107  CD       -20.8960    5.5730  -34.7260 C.2    88  GLU88       0.3649
    108  OE1      -20.3610    5.5890  -33.5830 O.co2  88  GLU88      -0.2457
    109  OE2      -21.8910    4.8710  -35.0090 O.co2  88  GLU88      -0.2457
    110  N        -18.6780    9.5020  -37.7950 N.am   89  TYR89      -0.1960
    111  CA       -18.6830   10.9630  -37.7790 C.3    89  TYR89       0.1771
    112  C        -19.7660   11.5290  -36.8400 C.2    89  TYR89       0.2619
    113  O        -20.9540   11.3090  -37.0680 O.2    89  TYR89      -0.2715
    114  CB       -18.7520   11.5050  -39.2220 C.3    89  TYR89       0.0574
    115  CG       -19.0280   12.9800  -39.3600 C.ar   89  TYR89      -0.0198
    116  CD1      -18.1120   13.9270  -38.9080 C.ar   89  TYR89      -0.0009
    117  CD2      -20.1660   13.4360  -40.0120 C.ar   89  TYR89      -0.0009
    118  CE1      -18.3880   15.2900  -38.9840 C.ar   89  TYR89       0.0417
    119  CE2      -20.4090   14.7980  -40.1730 C.ar   89  TYR89       0.0417
    120  CZ       -19.5250   15.7230  -39.6480 C.ar   89  TYR89       0.1957
    121  OH       -19.7720   17.0690  -39.8030 O.3    89  TYR89      -0.2866
    122  N        -19.3510   12.2410  -35.7570 N.am   90  ALA90      -0.1977
    123  CA       -20.3370   12.7880  -34.8160 C.3    90  ALA90       0.1597
    124  C        -20.6980   14.2100  -35.2430 C.2    90  ALA90       0.2287
    125  O        -19.9400   15.1390  -34.9450 O.2    90  ALA90      -0.2864
    126  CB       -19.7810   12.7490  -33.3990 C.3    90  ALA90       0.0319
    127  N        -18.5430   18.7180  -30.5610 N.3    94  GLU94      -0.1245
    128  CA       -18.1540   18.5260  -29.1820 C.3    94  GLU94       0.1567
    129  C        -19.2170   19.0610  -28.2120 C.2    94  GLU94       0.2260
    130  O        -19.7900   20.1110  -28.4650 O.2    94  GLU94      -0.2867
    131  CB       -16.8020   19.2070  -28.9450 C.3    94  GLU94       0.0388
    132  CG       -15.7090   18.5860  -29.8090 C.3    94  GLU94       0.1160
    133  CD       -14.3160   19.1730  -29.6960 C.2    94  GLU94       0.3649
    134  OE1      -14.1870   20.4150  -29.6500 O.co2  94  GLU94      -0.2457
    135  OE2      -13.3480   18.3850  -29.7040 O.co2  94  GLU94      -0.2457
    136  N        -18.6060   20.3570  -25.4250 N.3    96  PHE96      -0.1241
    137  CA       -18.0630   21.6050  -24.9050 C.3    96  PHE96       0.1605
    138  C        -18.4850   22.7800  -25.7990 C.2    96  PHE96       0.2264
    139  O        -18.8130   23.8340  -25.2740 O.2    96  PHE96      -0.2867
    140  CB       -16.5310   21.5280  -24.7350 C.3    96  PHE96       0.0534
    141  CG       -15.8770   22.8340  -24.3230 C.ar   96  PHE96      -0.0203
    142  CD1      -16.2800   23.5030  -23.1680 C.ar   96  PHE96      -0.0042
    143  CD2      -14.8550   23.3880  -25.0840 C.ar   96  PHE96      -0.0042
    144  CE1      -15.6790   24.7080  -22.7860 C.ar   96  PHE96      -0.0003
    145  CE2      -14.2420   24.5910  -24.6980 C.ar   96  PHE96      -0.0003
    146  CZ       -14.6580   25.2420  -23.5490 C.ar   96  PHE96      -0.0000
    147  N        -14.4010   17.2960  -22.6400 N.3   138  GLU138     -0.1245
    148  CA       -13.5300   17.2880  -23.8160 C.3   138  GLU138      0.1567
    149  C        -13.6560   16.0100  -24.6600 C.2   138  GLU138      0.2260
    150  O        -13.3020   16.0210  -25.8410 O.2   138  GLU138     -0.2867
    151  CB       -12.0670   17.3970  -23.3220 C.3   138  GLU138      0.0388
    152  CG       -11.1740   18.3070  -24.1370 C.3   138  GLU138      0.1160
    153  CD        -9.6950   18.1770  -23.8080 C.2   138  GLU138      0.3649
    154  OE1       -9.2540   18.7680  -22.7930 O.co2 138  GLU138     -0.2457
    155  OE2       -8.9770   17.4830  -24.5660 O.co2 138  GLU138     -0.2457
    156  N        -19.0200   13.9500  -27.2780 N.3   141  MET141     -0.1245
    157  CA       -19.5130   14.5720  -28.4870 C.3   141  MET141      0.1570
    158  C        -20.9990   14.2180  -28.6440 C.2   141  MET141      0.2261
    159  O        -21.5420   13.4390  -27.8410 O.2   141  MET141     -0.2867
    160  CB       -18.7040   14.1120  -29.7000 C.3   141  MET141      0.0387
    161  CG       -17.3140   14.7010  -29.7570 C.3   141  MET141      0.0595
    162  SD       -16.6510   14.6170  -31.4320 S.3   141  MET141     -0.1393
    163  CE       -16.2840   13.0770  -31.4820 C.3   141  MET141      0.0692
    164  N        -15.4610    9.5610  -26.6350 N.3   151  THR151     -0.1203
    165  CA       -14.3010    9.4040  -27.5060 C.3   151  THR151      0.1994
    166  C        -13.0360    9.2160  -26.7060 C.2   151  THR151      0.2617
    167  O        -13.0540    9.4120  -25.4930 O.2   151  THR151     -0.2717
    168  CB       -14.1600   10.6810  -28.3650 C.3   151  THR151      0.1784
    169  OG1      -13.5410   11.6970  -27.5760 O.3   151  THR151     -0.2211
    170  CG2      -15.5060   11.2040  -28.8700 C.3   151  THR151      0.0376
    171  N        -11.9100    8.8980  -27.3950 N.am  152  ASP152     -0.1973
    172  CA       -10.5660    8.8370  -26.7910 C.3   152  ASP152      0.1709
    173  C        -10.3550    7.7510  -25.7380 C.2   152  ASP152      0.2293
    174  O        -10.4620    7.9870  -24.5390 O.2   152  ASP152     -0.2864
    175  CB       -10.0680   10.2380  -26.3420 C.3   152  ASP152      0.1436
    176  CG        -9.8080   11.1800  -27.5170 C.2   152  ASP152      0.3671
    177  OD1       -8.6530   11.2130  -28.0150 O.co2 152  ASP152     -0.2456
    178  OD2      -10.7560   11.8800  -27.9410 O.co2 152  ASP152     -0.2456
    179  N        -18.6510   22.7800  -35.1570 N.3   297  PHE297     -0.1227
    180  CA       -17.2000   22.6130  -35.1340 C.3   297  PHE297      0.1736
    181  C        -16.4660   23.9830  -35.1520 C.2   297  PHE297      0.2595
    182  O        -17.0320   25.0150  -35.5400 O.2   297  PHE297     -0.2718
    183  CB       -16.7460   21.7000  -36.2900 C.3   297  PHE297      0.0547
    184  CG       -17.1790   20.2610  -36.1120 C.ar  297  PHE297     -0.0202
    185  CD1      -16.4030   19.3690  -35.3670 C.ar  297  PHE297     -0.0042
    186  CD2      -18.3770   19.8020  -36.6620 C.ar  297  PHE297     -0.0042
    187  CE1      -16.8130   18.0410  -35.1910 C.ar  297  PHE297     -0.0003
    188  CE2      -18.7800   18.4750  -36.4900 C.ar  297  PHE297     -0.0003
    189  CZ       -17.9910   17.6030  -35.7660 C.ar  297  PHE297     -0.0000
    190  N        -15.2240   23.9740  -34.6620 N.am  298  ASP298     -0.1974
    191  CA       -14.3480   25.1320  -34.5320 C.3   298  ASP298      0.1709
    192  C        -13.9180   25.6850  -35.8840 C.2   298  ASP298      0.2293
    193  O        -13.2100   25.0050  -36.6430 O.2   298  ASP298     -0.2864
    194  CB       -13.1170   24.7580  -33.6870 C.3   298  ASP298      0.1436
    195  CG       -12.7220   25.8260  -32.6930 C.2   298  ASP298      0.3671
    196  OD1      -12.1940   26.8780  -33.1280 O.co2 298  ASP298     -0.2456
    197  OD2      -12.9350   25.6120  -31.4770 O.co2 298  ASP298     -0.2456
    198  N        -10.3340   25.5910  -37.3960 N.3   301  PHE301     -0.1241
    199  CA        -9.8700   24.4540  -38.1750 C.3   301  PHE301      0.1605
    200  C        -10.6090   24.3380  -39.4970 C.2   301  PHE301      0.2264
    201  O         -9.9700   24.1450  -40.5320 O.2   301  PHE301     -0.2867
    202  CB        -9.9620   23.1420  -37.3690 C.3   301  PHE301      0.0534
    203  CG        -9.3070   23.1920  -36.0070 C.ar  301  PHE301     -0.0203
    204  CD1       -7.9330   23.0750  -35.8720 C.ar  301  PHE301     -0.0042
    205  CD2      -10.0650   23.3550  -34.8600 C.ar  301  PHE301     -0.0042
    206  CE1       -7.3300   23.1380  -34.6140 C.ar  301  PHE301     -0.0003
    207  CE2       -9.4610   23.4400  -33.6110 C.ar  301  PHE301     -0.0003
    208  CZ        -8.0980   23.3220  -33.4950 C.ar  301  PHE301     -0.0000
@<TRIPOS>BOND
     1    56    55    1
     2    55    54    1
     3    54    53    1
     4   201   200    2
     5   119   117   ar
     6   119   120   ar
     7   117   115   ar
     8    53    52    1
     9   121   120    1
    10    64    65    1
    11   120   118   ar
    12   200   199    1
    13   115   114    1
    14   115   116   ar
    15    65    66    1
    16    65    68    1
    17   114   111    1
    18    21    20    1
    19    66    67    2
    20    60    59    2
    21    59    58    1
    22     1     2    1
    23     8     6    1
    24   118   116   ar
    25    52    49    1
    26     6     7    1
    27     6     5    1
    28    96    95    2
    29    69    70    1
    30   199   198    1
    31   199   202    1
    32    93    94    1
    33    72    71    2
    34    81    80    2
    35    71    70    1
    36    51    50    2
    37     2     5    1
    38     2     3    1
    39    58    57    1
    40    58    61    1
    41   110   111    1
    42   110   103   am
    43   111   112    1
    44    20    19    1
    45    50    57   am
    46    50    49    1
    47    78    79    1
    48    49    48    1
    49    95    94    1
    50    95   101   am
    51    18    19    1
    52    18    17    1
    53   202   203    1
    54    80    79    1
    55    70    73    1
    56    48    46   am
    57   113   112    2
    58    94    97    1
    59   102   103    1
    60   102   101    1
    61   102   105    1
    62    17    14    1
    63    12    11    2
    64   112   122   am
    65    62    61    1
    66   103   104    2
    67    79    82    1
    68   186   188   ar
    69   186   184   ar
    70   193   192    2
    71     3     9   am
    72     3     4    2
    73     9    10    1
    74    61    63    1
    75   188   189   ar
    76    46    45    1
    77    46    47    2
    78    45    44    1
    79   183   184    1
    80   183   180    1
    81   184   185   ar
    82    11    10    1
    83    11    13   am
    84   203   204   ar
    85   203   205   ar
    86    97    98    1
    87   192   191    1
    88   204   206   ar
    89   106   105    1
    90   106   107    1
    91    73    74    1
    92    14    13    1
    93    14    15    1
    94   189   187   ar
    95   122   123    1
    96   182   181    2
    97    82    83    1
    98   185   187   ar
    99    98    99    1
   100   124   125    2
   101   124   123    1
   102   179   180    1
   103   181   180    1
   104   181   190   am
   105    36    35    2
   106   109   107   ar
   107    44    35   am
   108    74    75    1
   109   205   207   ar
   110   123   126    1
   111    25    24    2
   112   107   108   ar
   113   190   191    1
   114   206   208   ar
   115    15    22   am
   116    15    16    2
   117    99   100    1
   118   191   194    1
   119    35    34    1
   120    83    85    1
   121    83    84    1
   122    22    23    1
   123    29    28    2
   124   194   195    1
   125    24    23    1
   126    24    26   am
   127   207   208   ar
   128    75    76    1
   129    28    33   am
   130    28    27    1
   131    34    33    1
   132    34    37    1
   133   196   195   ar
   134    76    77    1
   135   195   197   ar
   136    26    27    1
   137    27    30    1
   138    37    38    1
   139    91    90    1
   140   163   162    1
   141   162   161    1
   142    88    89    2
   143    88    87    1
   144    30    32    1
   145    30    31    1
   146    38    39   ar
   147    38    40   ar
   148    87    90    1
   149    87    86    1
   150    90    92    1
   151   127   128    1
   152    39    41   ar
   153    40    42   ar
   154   132   133    1
   155   132   131    1
   156   161   160    1
   157   135   133   ar
   158   160   157    1
   159   133   134   ar
   160   128   131    1
   161   128   129    1
   162    41    43   ar
   163   170   168    1
   164   158   157    1
   165   158   159    2
   166    42    43   ar
   167   157   156    1
   168   130   129    2
   169   168   169    1
   170   168   165    1
   171   177   176   ar
   172   178   176   ar
   173   176   175    1
   174   165   166    1
   175   165   164    1
   176   171   172    1
   177   171   166   am
   178   172   175    1
   179   172   173    1
   180   166   167    2
   181   150   149    2
   182   138   139    2
   183   138   137    1
   184   173   174    2
   185   136   137    1
   186   143   145   ar
   187   143   141   ar
   188   137   140    1
   189   140   141    1
   190   145   146   ar
   191   149   148    1
   192   155   153   ar
   193   141   142   ar
   194   152   153    1
   195   152   151    1
   196   148   151    1
   197   148   147    1
   198   153   154   ar
   199   146   144   ar
   200   142   144   ar
