@<TRIPOS>MOLECULE
tmp/6cd1A00.pdb
 147 139 0 0 0
SMALL
GASTEIGER

@<TRIPOS>ATOM
      1  N         -3.5870   42.1230   87.3480 N.3    31  ILE31      -0.1245
      2  CA        -2.5150   41.5290   86.5670 C.3    31  ILE31       0.1561
      3  C         -3.0750   40.2740   85.8990 C.2    31  ILE31       0.2260
      4  O         -3.4910   39.3160   86.5840 O.2    31  ILE31      -0.2867
      5  CB        -1.2720   41.2010   87.4520 C.3    31  ILE31       0.0252
      6  CG1       -0.6560   42.4990   87.9530 C.3    31  ILE31       0.0019
      7  CG2       -0.2380   40.3750   86.6660 C.3    31  ILE31       0.0019
      8  CD1        0.3510   42.2990   89.0580 C.3    31  ILE31       0.0001
      9  N         -1.9750   37.7370   84.3840 N.3    33  SER33      -0.1217
     10  CA        -1.3130   36.4890   84.6730 C.3    33  SER33       0.1889
     11  C         -1.3990   36.0620   86.1360 C.2    33  SER33       0.2288
     12  O         -0.8100   35.0830   86.4940 O.2    33  SER33      -0.2866
     13  CB         0.1730   36.6490   84.3270 C.3    33  SER33       0.2089
     14  OG         0.7110   37.7570   85.0090 O.3    33  SER33      -0.2183
     15  N          8.4040   25.6330   85.8190 N.3    99  SER99      -0.1202
     16  CA         7.6200   26.8080   85.5280 C.3    99  SER99       0.2020
     17  C          7.3650   26.8390   84.0230 C.2    99  SER99       0.2619
     18  O          7.7190   25.9000   83.2940 O.2    99  SER99      -0.2717
     19  CB         8.3090   28.0920   86.0260 C.3    99  SER99       0.2103
     20  OG         7.3830   28.9720   86.6680 O.3    99  SER99      -0.2182
     21  N          6.7710   27.9150   83.5450 N.am  100  GLY100     -0.1942
     22  CA         6.4710   28.0560   82.0980 C.3   100  GLY100      0.2014
     23  C          7.7270   28.1290   81.2120 C.2   100  GLY100      0.2640
     24  O          7.7760   27.4700   80.1770 O.2   100  GLY100     -0.2714
     25  N          8.6840   28.9520   81.6240 N.am  101  SER101     -0.1936
     26  CA         9.9260   29.1750   80.8990 C.3   101  SER101      0.2040
     27  C         10.7070   27.8700   80.7030 C.2   101  SER101      0.2489
     28  O         11.0070   27.5020   79.5650 O.2   101  SER101     -0.2729
     29  CB        10.7440   30.3010   81.5330 C.3   101  SER101      0.2129
     30  OG        10.0240   31.5360   81.4710 O.3   101  SER101     -0.2179
     31  N         10.9630   27.1260   81.8020 N.am  102  PRO102     -0.2650
     32  CA        11.6020   25.8360   81.5570 C.3   102  PRO102      0.1628
     33  C         10.7660   24.7650   80.8350 C.2   102  PRO102      0.2315
     34  O         11.3560   23.8820   80.2350 O.2   102  PRO102     -0.2861
     35  CB        12.0400   25.3580   82.9410 C.2   102  PRO102     -0.0016
     36  CG        11.5550   26.3310   83.9190 C.2   102  PRO102     -0.0072
     37  CD        10.9260   27.4890   83.2200 C.3   102  PRO102      0.1203
     38  N          8.8450   25.3740   78.2200 N.3   104  ASN104     -0.1240
     39  CA         9.1480   25.7500   76.8510 C.3   104  ASN104      0.1653
     40  C         10.5950   25.3380   76.4110 C.2   104  ASN104      0.2266
     41  O         10.7860   24.7490   75.3340 O.2   104  ASN104     -0.2867
     42  CB         8.9010   27.2640   76.6340 C.3   104  ASN104      0.1155
     43  CG         7.4160   27.6270   76.6900 C.2   104  ASN104      0.2627
     44  OD1        6.5940   26.7790   76.7060 O.2   104  ASN104     -0.2716
     45  ND2        7.1040   28.8940   76.7740 N.am  104  ASN104     -0.0877
     46  N          5.9240   36.4130   74.3650 N.3   128  HIS128     -0.1241
     47  CA         6.6140   36.0830   75.6120 C.3   128  HIS128      0.1621
     48  C          8.0860   35.8800   75.3150 C.2   128  HIS128      0.2264
     49  O          8.4210   35.3080   74.2750 O.2   128  HIS128     -0.2867
     50  CB         6.0620   34.8410   76.2930 C.3   128  HIS128      0.0745
     51  CG         6.6060   34.6690   77.6630 C.ar  128  HIS128      0.0817
     52  ND1        7.6220   33.7830   77.9590 N.ar  128  HIS128     -0.2268
     53  CD2        6.3410   35.3380   78.8080 C.ar  128  HIS128      0.1154
     54  CE1        7.9160   33.8720   79.2400 C.ar  128  HIS128      0.1986
     55  NE2        7.1550   34.8160   79.7800 N.ar  128  HIS128     -0.2212
     56  N          9.6610   32.6340   73.9320 N.3   131  HIS131     -0.1241
     57  CA         9.5320   32.2520   72.5080 C.3   131  HIS131      0.1621
     58  C         10.6070   32.8950   71.6170 C.2   131  HIS131      0.2264
     59  O         10.6440   32.5880   70.4350 O.2   131  HIS131     -0.2867
     60  CB         8.1580   32.5910   71.9540 C.3   131  HIS131      0.0745
     61  CG         7.0290   32.0490   72.7690 C.ar  131  HIS131      0.0817
     62  ND1        5.7180   32.4050   72.5400 N.ar  131  HIS131     -0.2268
     63  CD2        7.0140   31.1940   73.8180 C.ar  131  HIS131      0.1154
     64  CE1        4.9440   31.7960   73.4290 C.ar  131  HIS131      0.1986
     65  NE2        5.7070   31.0480   74.2050 N.ar  131  HIS131     -0.2212
     66  N          0.4300   33.4790   73.6340 N.3   182  ALA182     -0.1231
     67  CA         0.9400   34.8060   73.9140 C.3   182  ALA182      0.1694
     68  C          0.6530   35.2870   75.3410 C.2   182  ALA182      0.2592
     69  O         -0.0400   34.6230   76.0960 O.2   182  ALA182     -0.2718
     70  CB         0.3540   35.7780   72.8890 C.3   182  ALA182      0.0304
     71  N          1.2920   36.3820   75.7120 N.am  183  SER183     -0.1952
     72  CA         1.1590   36.9900   77.0230 C.3   183  SER183      0.1924
     73  C          0.1080   38.0470   77.0700 C.2   183  SER183      0.2314
     74  O         -0.5300   38.2340   78.1270 O.2   183  SER183     -0.2863
     75  CB         2.4900   37.5830   77.4840 C.3   183  SER183      0.2116
     76  OG         3.3600   36.5070   77.7300 O.3   183  SER183     -0.2180
     77  N          1.4630   27.5730   73.3450 N.3   208  ASP208     -0.1239
     78  CA         1.7820   27.9090   74.7150 C.3   208  ASP208      0.1674
     79  C          0.5030   28.5260   75.2760 C.2   208  ASP208      0.2266
     80  O          0.2160   29.7000   75.0290 O.2   208  ASP208     -0.2867
     81  CB         2.9220   28.9030   74.7820 C.3   208  ASP208      0.1410
     82  CG         3.3660   29.2150   76.1990 C.2   208  ASP208      0.3668
     83  OD1        2.6040   28.8910   77.1590 O.co2 208  ASP208     -0.2456
     84  OD2        4.4390   29.8180   76.3470 O.co2 208  ASP208     -0.2456
     85  N         -0.3400   29.1450   78.4660 N.3   210  ALA210     -0.1231
     86  CA        -0.1530   29.6190   79.8360 C.3   210  ALA210      0.1694
     87  C         -1.2520   30.5630   80.2890 C.2   210  ALA210      0.2592
     88  O         -1.8450   30.3500   81.3510 O.2   210  ALA210     -0.2718
     89  CB         1.2210   30.2650   80.0070 C.3   210  ALA210      0.0304
     90  N         -1.5680   31.5810   79.4840 N.am  211  HIS211     -0.1976
     91  CA        -2.6000   32.5230   79.8870 C.3   211  HIS211      0.1656
     92  C         -4.0380   32.0320   79.8650 C.2   211  HIS211      0.2291
     93  O         -4.8560   32.4910   80.6730 O.2   211  HIS211     -0.2864
     94  CB        -2.5150   33.8110   79.0860 C.3   211  HIS211      0.0771
     95  CG        -1.6650   34.8480   79.7240 C.ar  211  HIS211      0.0820
     96  ND1       -2.1790   35.9580   80.3810 N.ar  211  HIS211     -0.2267
     97  CD2       -0.3230   34.9330   79.8260 C.ar  211  HIS211      0.1154
     98  CE1       -1.1770   36.6910   80.8270 C.ar  211  HIS211      0.1986
     99  NE2       -0.0410   36.0790   80.5130 N.ar  211  HIS211     -0.2212
    100  N          1.8340   27.0650   81.9080 N.3   234  THR234     -0.1218
    101  CA         2.0180   27.2380   83.3280 C.3   234  THR234      0.1862
    102  C          0.7690   26.7720   84.0340 C.2   234  THR234      0.2287
    103  O         -0.3100   26.6310   83.4370 O.2   234  THR234     -0.2866
    104  CB         2.1770   28.6980   83.7300 C.3   234  THR234      0.1770
    105  OG1        1.0610   29.4630   83.2640 O.3   234  THR234     -0.2211
    106  CG2        3.4370   29.2330   83.2020 C.3   234  THR234      0.0375
    107  N         -0.1400   28.2500   87.1330 N.3   236  HIS236     -0.1226
    108  CA        -0.5180   29.3590   88.0000 C.3   236  HIS236      0.1752
    109  C         -1.3930   30.5130   87.5130 C.2   236  HIS236      0.2595
    110  O         -1.8030   31.3500   88.2810 O.2   236  HIS236     -0.2718
    111  CB         0.7000   29.9320   88.7090 C.3   236  HIS236      0.0759
    112  CG         1.8660   30.2110   87.8150 C.ar  236  HIS236      0.0818
    113  ND1        2.7240   29.2360   87.3990 N.ar  236  HIS236     -0.2268
    114  CD2        2.3470   31.3660   87.3140 C.ar  236  HIS236      0.1154
    115  CE1        3.6680   29.7720   86.6610 C.ar  236  HIS236      0.1986
    116  NE2        3.4610   31.0620   86.5940 N.ar  236  HIS236     -0.2212
    117  N         -1.7250   30.5290   86.2580 N.am  237  LYS237     -0.1980
    118  CA        -2.5300   31.5990   85.7590 C.3   237  LYS237      0.1596
    119  C         -4.0030   31.2050   85.7160 C.2   237  LYS237      0.2287
    120  O         -4.5750   31.0030   86.7600 O.2   237  LYS237     -0.2864
    121  CB        -1.9820   32.0840   84.4200 C.3   237  LYS237      0.0298
    122  CG        -0.5320   32.4770   84.5010 C.3   237  LYS237      0.0038
    123  CD        -0.0010   32.9840   83.2000 C.3   237  LYS237      0.0206
    124  CE         1.5010   32.9840   83.2030 C.3   237  LYS237      0.1093
    125  NZ         1.9120   33.9050   82.1570 N.3   237  LYS237     -0.1314
    126  N          2.5990   27.2870   91.2940 N.3   243  ARG243     -0.1245
    127  CA         3.5720   27.8080   90.2900 C.3   243  ARG243      0.1563
    128  C          4.3420   26.6320   89.7770 C.2   243  ARG243      0.2260
    129  O          4.9820   25.9500   90.5300 O.2   243  ARG243     -0.2867
    130  CB         4.5070   28.8580   90.8740 C.3   243  ARG243      0.0307
    131  CG         3.7640   30.0200   91.5210 C.3   243  ARG243      0.0489
    132  CD         4.6560   31.2040   91.7790 C.3   243  ARG243      0.2205
    133  NE         4.9120   31.9890   90.5670 N.pl3 243  ARG243     -0.0865
    134  CZ         4.1070   32.9310   90.0810 C.cat 243  ARG243      0.5346
    135  NH1        2.9540   33.2280   90.7000 N.pl3 243  ARG243      0.1354
    136  NH2        4.4300   33.5750   88.9640 N.pl3 243  ARG243      0.1354
    137  N         -2.1760   46.4590   80.5850 N.3   373  ARG373     -0.1245
    138  CA        -2.8670   45.1840   80.4140 C.3   373  ARG373      0.1563
    139  C         -3.6540   44.9360   81.6880 C.2   373  ARG373      0.2260
    140  O         -3.1180   45.0710   82.7790 O.2   373  ARG373     -0.2867
    141  CB        -1.8620   44.0770   80.2050 C.3   373  ARG373      0.0307
    142  CG        -2.4650   42.7200   79.9740 C.3   373  ARG373      0.0489
    143  CD        -1.3860   41.6610   79.8630 C.3   373  ARG373      0.2205
    144  NE        -0.7420   41.3980   81.1150 N.pl3 373  ARG373     -0.0865
    145  CZ         0.1110   40.4170   81.3630 C.cat 373  ARG373      0.5346
    146  NH1        0.4960   39.5890   80.3840 N.pl3 373  ARG373      0.1354
    147  NH2        0.6480   40.2900   82.5710 N.pl3 373  ARG373      0.1354
@<TRIPOS>BOND
     1    59    58    2
     2    58    57    1
     3    60    57    1
     4    60    61    1
     5    57    56    1
     6    62    61   ar
     7    62    64   ar
     8    61    63   ar
     9    70    67    1
    10    77    78    1
    11    64    65   ar
    12    66    67    1
    13    63    65   ar
    14    67    68    1
    15    49    48    2
    16    46    47    1
    17    78    81    1
    18    78    79    1
    19    81    82    1
    20    80    79    2
    21    48    47    1
    22    41    40    2
    23    68    71   am
    24    68    69    2
    25    47    50    1
    26    71    72    1
    27    82    84   ar
    28    82    83   ar
    29    50    51    1
    30    40    39    1
    31    42    43    1
    32    42    39    1
    33    43    44    2
    34    43    45   am
    35    39    38    1
    36    72    73    1
    37    72    75    1
    38    73    74    2
    39    75    76    1
    40    51    52   ar
    41    51    53   ar
    42    52    54   ar
    43    85    86    1
    44    53    55   ar
    45    94    95    1
    46    94    91    1
    47    54    55   ar
    48    90    91    1
    49    90    87   am
    50    28    27    2
    51    95    97   ar
    52    95    96   ar
    53    97    99   ar
    54    86    89    1
    55    86    87    1
    56   143   142    1
    57   143   144    1
    58    92    91    1
    59    92    93    2
    60   142   141    1
    61    24    23    2
    62   141   138    1
    63    34    33    2
    64    87    88    2
    65    96    98   ar
    66   146   145    1
    67   138   137    1
    68   138   139    1
    69    99    98   ar
    70    27    26    1
    71    27    31   am
    72    33    32    1
    73    26    29    1
    74    26    25    1
    75   144   145    2
    76    23    25   am
    77    23    22    1
    78   145   147    1
    79    30    29    1
    80    32    31    1
    81    32    35    1
    82   139   140    2
    83    31    37    1
    84   100   101    1
    85    22    21    1
    86   125   124    1
    87    35    36    2
    88   123   124    1
    89   123   122    1
    90   106   104    1
    91    37    36    1
    92   105   104    1
    93    18    17    2
    94   101   104    1
    95   101   102    1
    96   103   102    2
    97    21    17   am
    98    17    16    1
    99    13    10    1
   100    13    14    1
   101     9    10    1
   102   121   122    1
   103   121   118    1
   104    10    11    1
   105    16    15    1
   106    16    19    1
   107   119   118    1
   108   119   120    2
   109   118   117    1
   110     3     2    1
   111     3     4    2
   112    19    20    1
   113    11    12    2
   114   117   109   am
   115     2     1    1
   116     2     5    1
   117   116   115   ar
   118   116   114   ar
   119   115   113   ar
   120     7     5    1
   121   107   108    1
   122   114   112   ar
   123   113   112   ar
   124     5     6    1
   125   109   108    1
   126   109   110    2
   127   112   111    1
   128     6     8    1
   129   108   111    1
   130   136   134    1
   131   128   127    1
   132   128   129    2
   133   134   133    2
   134   134   135    1
   135   127   130    1
   136   127   126    1
   137   133   132    1
   138   130   131    1
   139   131   132    1
