@<TRIPOS>MOLECULE
tmp/6cd4A00.pdb
 142 140 0 0 0
SMALL
GASTEIGER

@<TRIPOS>ATOM
      1  N          9.3540   -4.7650   -6.1640 N.3    39  TRP39      -0.1228
      2  CA        10.7480   -4.4660   -6.4920 C.3    39  TRP39       0.1722
      3  C         11.5470   -5.6440   -7.0390 C.2    39  TRP39       0.2437
      4  O         12.3820   -5.3990   -7.9320 O.2    39  TRP39      -0.2733
      5  CB        11.4520   -3.7760   -5.3110 C.3    39  TRP39       0.0563
      6  CG        11.4240   -4.5800   -4.0460 C.ar   39  TRP39       0.0003
      7  CD1       10.4760   -4.5360   -3.0470 C.ar   39  TRP39       0.0946
      8  CD2       12.3740   -5.5620   -3.6410 C.ar   39  TRP39       0.0152
      9  NE1       10.7750   -5.4420   -2.0700 N.ar   39  TRP39      -0.2442
     10  CE2       11.9340   -6.0920   -2.4130 C.ar   39  TRP39       0.0810
     11  CE3       13.5480   -6.0610   -4.2110 C.ar   39  TRP39       0.0012
     12  CZ2       12.6300   -7.0880   -1.7430 C.ar   39  TRP39       0.0191
     13  CZ3       14.2300   -7.0440   -3.5540 C.ar   39  TRP39       0.0001
     14  CH2       13.7720   -7.5560   -2.3420 C.ar   39  TRP39       0.0015
     15  N         11.3990   -6.8930   -6.5710 N.am   40  PRO40      -0.2718
     16  CA        12.2100   -7.9600   -7.1750 C.3    40  PRO40       0.1535
     17  C         11.8630   -8.2260   -8.6160 C.2    40  PRO40       0.2598
     18  O         12.6440   -8.8930   -9.3230 O.2    40  PRO40      -0.2715
     19  CB        11.9000   -9.1970   -6.3150 C.3    40  PRO40       0.0310
     20  CG        11.2340   -8.6910   -5.0690 C.3    40  PRO40       0.0237
     21  CD        10.4950   -7.4480   -5.5470 C.3    40  PRO40       0.0939
     22  N         10.6910   -7.7800   -9.0540 N.am   41  PHE41      -0.1974
     23  CA        10.1270   -8.1320  -10.3440 C.3    41  PHE41       0.1639
     24  C         10.1430   -6.9790  -11.3280 C.2    41  PHE41       0.2290
     25  O          9.6270   -7.1180  -12.4330 O.2    41  PHE41      -0.2864
     26  CB         8.6990   -8.6560  -10.1390 C.3    41  PHE41       0.0560
     27  CG         8.6340   -9.8260   -9.2090 C.ar   41  PHE41      -0.0200
     28  CD1        9.0050  -11.0990   -9.6410 C.ar   41  PHE41      -0.0042
     29  CD2        8.2420   -9.6600   -7.8850 C.ar   41  PHE41      -0.0042
     30  CE1        8.9630  -12.1780   -8.7890 C.ar   41  PHE41      -0.0003
     31  CE2        8.2180  -10.7400   -7.0090 C.ar   41  PHE41      -0.0003
     32  CZ         8.5830  -11.9970   -7.4710 C.ar   41  PHE41      -0.0000
     33  N         12.7290   -5.6590  -12.8540 N.3    43  GLN43      -0.1231
     34  CA        13.8010   -5.7580  -13.8240 C.3    43  GLN43       0.1683
     35  C         14.2150   -7.2220  -13.9140 C.2    43  GLN43       0.2434
     36  O         13.9090   -8.0090  -13.0040 O.2    43  GLN43      -0.2733
     37  CB        14.9880   -4.8740  -13.4210 C.3    43  GLN43       0.0380
     38  CG        15.5950   -5.1780  -12.0610 C.3    43  GLN43       0.0905
     39  CD        14.7200   -4.7390  -10.8880 C.2    43  GLN43       0.2608
     40  OE1       14.3010   -3.5770  -10.8020 O.2    43  GLN43      -0.2717
     41  NE2       14.4170   -5.6800   -9.9980 N.am   43  GLN43      -0.0878
     42  N         14.9300   -7.6090  -14.9690 N.am   44  PRO44      -0.2718
     43  CA        15.3750   -9.0020  -15.0890 C.3    44  PRO44       0.1535
     44  C         16.2290   -9.4420  -13.9100 C.2    44  PRO44       0.2598
     45  O         16.9050   -8.6440  -13.2610 O.2    44  PRO44      -0.2715
     46  CB        16.1940   -8.9980  -16.3840 C.3    44  PRO44       0.0310
     47  CG        15.6410   -7.8610  -17.1660 C.3    44  PRO44       0.0237
     48  CD        15.2350   -6.8250  -16.1760 C.3    44  PRO44       0.0939
     49  N         16.1950  -10.7370  -13.6170 N.am   45  VAL45      -0.1964
     50  CA        17.1120  -11.2910  -12.6180 C.3    45  VAL45       0.1727
     51  C         18.5490  -11.0540  -13.0780 C.2    45  VAL45       0.2616
     52  O         18.9550  -11.5260  -14.1480 O.2    45  VAL45      -0.2715
     53  CB        16.8170  -12.7810  -12.4010 C.3    45  VAL45       0.0290
     54  CG1       17.9170  -13.4550  -11.5940 C.3    45  VAL45       0.0023
     55  CG2       15.4830  -12.9510  -11.6990 C.3    45  VAL45       0.0023
     56  N         19.3290  -10.3410  -12.2580 N.am   46  ASP46      -0.1971
     57  CA        20.7380  -10.0670  -12.5600 C.3    46  ASP46       0.1709
     58  C         21.5570  -11.1330  -11.8490 C.2    46  ASP46       0.2293
     59  O         21.8430  -11.0510  -10.6580 O.2    46  ASP46      -0.2864
     60  CB        21.1170   -8.6590  -12.1220 C.3    46  ASP46       0.1436
     61  CG        22.5260   -8.2650  -12.5340 C.2    46  ASP46       0.3671
     62  OD1       23.3690   -9.1500  -12.7510 O.co2  46  ASP46      -0.2456
     63  OD2       22.7970   -7.0480  -12.6160 O.co2  46  ASP46      -0.2456
     64  N         24.9820   -9.7710  -10.3600 N.3    49  LYS49      -0.1231
     65  CA        24.8960   -9.0200   -9.1140 C.3    49  LYS49       0.1693
     66  C         24.4170   -9.8960   -7.9580 C.2    49  LYS49       0.2591
     67  O         24.8610   -9.7200   -6.8170 O.2    49  LYS49      -0.2718
     68  CB        23.9820   -7.8140   -9.3110 C.3    49  LYS49       0.0285
     69  CG        23.7650   -7.0470   -8.0140 C.3    49  LYS49       0.0035
     70  CD        23.2090   -5.6580   -8.2430 C.3    49  LYS49       0.0206
     71  CE        21.9090   -5.4660   -7.4850 C.3    49  LYS49       0.1093
     72  NZ        22.1080   -5.8210   -6.0700 N.3    49  LYS49      -0.1314
     73  N         23.5030  -10.8330   -8.2260 N.am   50  LEU50      -0.1980
     74  CA        22.9640  -11.7190   -7.1970 C.3    50  LEU50       0.1596
     75  C         23.7760  -12.9990   -7.0160 C.2    50  LEU50       0.2287
     76  O         23.4400  -13.8020   -6.1360 O.2    50  LEU50      -0.2864
     77  CB        21.5130  -12.0850   -7.5270 C.3    50  LEU50       0.0297
     78  CG        20.5540  -10.8950   -7.6480 C.3    50  LEU50       0.0022
     79  CD1       19.2020  -11.3290   -8.2110 C.3    50  LEU50       0.0001
     80  CD2       20.3560  -10.2180   -6.3070 C.3    50  LEU50       0.0001
     81  N         24.1790  -15.8540   -8.9460 N.3    52  LEU52      -0.1245
     82  CA        23.3040  -17.0010   -9.1860 C.3    52  LEU52       0.1561
     83  C         23.8110  -17.7490  -10.4130 C.2    52  LEU52       0.2260
     84  O         23.2150  -17.6630  -11.4980 O.2    52  LEU52      -0.2867
     85  CB        21.8590  -16.5570   -9.4060 C.3    52  LEU52       0.0270
     86  CG        21.2700  -15.6770   -8.3080 C.3    52  LEU52       0.0019
     87  CD1       19.9080  -15.1630   -8.7640 C.3    52  LEU52       0.0001
     88  CD2       21.1390  -16.4480   -7.0140 C.3    52  LEU52       0.0001
     89  N         21.0110  -19.8510  -12.1660 N.3    55  TYR55      -0.1241
     90  CA        19.6710  -19.3370  -12.4440 C.3    55  TYR55       0.1605
     91  C         19.2950  -19.5380  -13.9040 C.2    55  TYR55       0.2264
     92  O         18.2230  -20.0620  -14.2130 O.2    55  TYR55      -0.2867
     93  CB        19.5310  -17.8630  -12.0550 C.3    55  TYR55       0.0534
     94  CG        18.0960  -17.3840  -12.2220 C.ar   55  TYR55      -0.0201
     95  CD1       17.1870  -17.5380  -11.1800 C.ar   55  TYR55      -0.0009
     96  CD2       17.6450  -16.8310  -13.4120 C.ar   55  TYR55      -0.0009
     97  CE1       15.8800  -17.1360  -11.3080 C.ar   55  TYR55       0.0417
     98  CE2       16.3360  -16.4170  -13.5500 C.ar   55  TYR55       0.0417
     99  CZ        15.4600  -16.5840  -12.4950 C.ar   55  TYR55       0.1957
    100  OH        14.1560  -16.1930  -12.6600 O.3    55  TYR55      -0.2866
    101  N          9.8190  -17.8870  -10.6090 N.3    94  CYS94      -0.1235
    102  CA        10.0990  -17.7000   -9.1930 C.3    94  CYS94       0.1677
    103  C          9.7860  -18.9650   -8.4050 C.2    94  CYS94       0.2270
    104  O         10.5660  -19.3790   -7.5420 O.2    94  CYS94      -0.2867
    105  CB         9.2960  -16.5030   -8.6870 C.3    94  CYS94       0.0956
    106  SG         9.5770  -16.0500   -6.9820 S.3    94  CYS94      -0.0801
    107  N         12.5190  -21.7790   -9.2730 N.3    97  TYR97      -0.1227
    108  CA        13.8700  -21.6230   -8.7630 C.3    97  TYR97       0.1736
    109  C         13.8990  -21.6810   -7.2450 C.2    97  TYR97       0.2595
    110  O         14.8260  -22.2490   -6.6580 O.2    97  TYR97      -0.2718
    111  CB        14.4850  -20.3050   -9.2550 C.3    97  TYR97       0.0548
    112  CG        15.9350  -20.2100   -8.8830 C.ar   97  TYR97      -0.0200
    113  CD1       16.9190  -20.8160   -9.6630 C.ar   97  TYR97      -0.0009
    114  CD2       16.3360  -19.5590   -7.7340 C.ar   97  TYR97      -0.0009
    115  CE1       18.2450  -20.7670   -9.2990 C.ar   97  TYR97       0.0417
    116  CE2       17.6610  -19.4960   -7.3700 C.ar   97  TYR97       0.0417
    117  CZ        18.6130  -20.1020   -8.1540 C.ar   97  TYR97       0.1957
    118  OH        19.9420  -20.0530   -7.7830 O.3    97  TYR97      -0.2866
    119  N         12.9230  -21.0610   -6.5900 N.am   98  ASN98      -0.1974
    120  CA        12.9020  -20.9260   -5.1410 C.3    98  ASN98       0.1688
    121  C         12.1120  -22.0810   -4.5210 C.2    98  ASN98       0.2292
    122  O         11.7350  -23.0370   -5.2000 O.2    98  ASN98      -0.2864
    123  CB        12.4080  -19.5310   -4.7720 C.3    98  ASN98       0.1181
    124  CG        13.2890  -18.4590   -5.3430 C.2    98  ASN98       0.2629
    125  OD1       14.4060  -18.2490   -4.8680 O.2    98  ASN98      -0.2716
    126  ND2       12.8110  -17.7850   -6.3780 N.am   98  ASN98      -0.0877
    127  N         10.5580  -14.6740   -1.0370 N.3   104  ILE104     -0.1245
    128  CA        10.2700  -14.2380   -2.3980 C.3   104  ILE104      0.1561
    129  C          9.0850  -14.9950   -2.9820 C.2   104  ILE104      0.2260
    130  O          8.3330  -14.4380   -3.7890 O.2   104  ILE104     -0.2867
    131  CB        11.5350  -14.3410   -3.2760 C.3   104  ILE104      0.0252
    132  CG1       11.3050  -13.6740   -4.6330 C.3   104  ILE104      0.0019
    133  CG2       11.9950  -15.7780   -3.4480 C.3   104  ILE104      0.0019
    134  CD1       10.8670  -12.2220   -4.5690 C.3   104  ILE104      0.0001
    135  N          6.0110  -13.3870   -1.5920 N.3   107  MET107     -0.1245
    136  CA         5.7830  -12.1240   -2.3000 C.3   107  MET107      0.1570
    137  C          5.1710  -12.3690   -3.6730 C.2   107  MET107      0.2261
    138  O          4.2220  -11.6800   -4.0770 O.2   107  MET107     -0.2867
    139  CB         7.0980  -11.3530   -2.4520 C.3   107  MET107      0.0387
    140  CG         7.6970  -10.9000   -1.1390 C.3   107  MET107      0.0595
    141  SD         9.3860  -10.2960   -1.2580 S.3   107  MET107     -0.1393
    142  CE         9.1760   -8.7240   -2.0810 C.3   107  MET107      0.0692
@<TRIPOS>BOND
     1    47    46    1
     2    47    48    1
     3    46    43    1
     4    48    42    1
     5    43    42    1
     6    43    44    1
     7    42    35   am
     8    92    91    2
     9    52    51    2
    10    35    34    1
    11    35    36    2
    12    44    49   am
    13    44    45    2
    14    91    90    1
    15    34    37    1
    16    34    33    1
    17    49    50    1
    18    98    96   ar
    19    98    99   ar
    20    37    38    1
    21    96    94   ar
    22    51    50    1
    23    51    56   am
    24    62    61   ar
    25   100    99    1
    26    50    53    1
    27    63    61   ar
    28    57    56    1
    29    57    60    1
    30    57    58    1
    31    61    60    1
    32    99    97   ar
    33    90    89    1
    34    90    93    1
    35    25    24    2
    36    53    55    1
    37    53    54    1
    38    94    93    1
    39    94    95   ar
    40    38    39    1
    41    58    59    2
    42    84    83    2
    43    24    23    1
    44    97    95   ar
    45    39    40    2
    46    39    41   am
    47   101   102    1
    48    83    82    1
    49    64    65    1
    50    23    26    1
    51    23    22    1
    52    26    27    1
    53   113   115   ar
    54   113   112   ar
    55    28    27   ar
    56    28    30   ar
    57    85    82    1
    58    85    86    1
    59    18    17    2
    60    68    65    1
    61    68    69    1
    62   115   117   ar
    63   107   108    1
    64   111   112    1
    65   111   108    1
    66    27    29   ar
    67   102   105    1
    68   102   103    1
    69    82    81    1
    70    65    66    1
    71    22    17   am
    72   112   114   ar
    73    30    32   ar
    74    87    86    1
    75   108   109    1
    76   105   106    1
    77    17    16    1
    78   103   104    2
    79    86    88    1
    80    70    69    1
    81    70    71    1
    82    73    66   am
    83    73    74    1
    84    79    78    1
    85   117   118    1
    86   117   116   ar
    87    66    67    2
    88     4     3    2
    89    29    31   ar
    90   114   116   ar
    91    78    77    1
    92    78    80    1
    93    77    74    1
    94    71    72    1
    95    32    31   ar
    96   109   110    2
    97   109   119   am
    98    74    75    1
    99    16    15    1
   100    16    19    1
   101     3    15   am
   102     3     2    1
   103    75    76    2
   104   119   120    1
   105    15    21    1
   106     2     1    1
   107     2     5    1
   108   126   124   am
   109    19    20    1
   110    21    20    1
   111   124   125    2
   112   124   123    1
   113     5     6    1
   114   122   121    2
   115   120   123    1
   116   120   121    1
   117   132   134    1
   118   132   131    1
   119    11     8   ar
   120    11    13   ar
   121   138   137    2
   122     6     8   ar
   123     6     7   ar
   124   130   129    2
   125   137   136    1
   126     8    10   ar
   127    13    14   ar
   128   133   131    1
   129   131   128    1
   130     7     9   ar
   131   129   128    1
   132   139   136    1
   133   139   140    1
   134    10     9   ar
   135    10    12   ar
   136   128   127    1
   137    14    12   ar
   138   136   135    1
   139   142   141    1
   140   141   140    1
