@<TRIPOS>MOLECULE
tmp/6cd6D00.pdb
 186 179 0 0 0
SMALL
GASTEIGER

@<TRIPOS>ATOM
      1  N        -42.4270   -4.5500   -8.1980 N.3    12  ILE12      -0.1231
      2  CA       -42.8450   -3.3290   -7.4850 C.3    12  ILE12       0.1692
      3  C        -43.4580   -2.2550   -8.3890 C.2    12  ILE12       0.2593
      4  O        -44.3330   -1.5250   -7.9310 O.2    12  ILE12      -0.2718
      5  CB       -41.6930   -2.7140   -6.6470 C.3    12  ILE12       0.0266
      6  CG1      -40.4340   -2.4760   -7.4980 C.3    12  ILE12       0.0019
      7  CG2      -41.3680   -3.6060   -5.4570 C.3    12  ILE12       0.0020
      8  CD1      -39.2870   -1.8570   -6.7250 C.3    12  ILE12       0.0001
      9  N        -42.9920   -2.1430   -9.6400 N.am   13  GLY13      -0.1942
     10  CA       -43.6460   -1.3230  -10.6750 C.3    13  GLY13       0.2014
     11  C        -43.4410   -1.8230  -12.1110 C.2    13  GLY13       0.2639
     12  O        -42.6460   -2.7370  -12.3530 O.2    13  GLY13      -0.2714
     13  N        -44.2000   -1.2430  -13.0440 N.am   14  LYS14      -0.1963
     14  CA       -44.0290   -1.4380  -14.4940 C.3    14  LYS14       0.1728
     15  C        -44.1030   -0.0740  -15.1660 C.2    14  LYS14       0.2616
     16  O        -44.9000    0.7650  -14.7650 O.2    14  LYS14      -0.2715
     17  CB       -45.1120   -2.3510  -15.0800 C.3    14  LYS14       0.0311
     18  CG       -45.1230   -2.5560  -16.5550 C.3    14  LYS14       0.0038
     19  CD       -46.1870   -3.6170  -16.8510 C.3    14  LYS14       0.0206
     20  CE       -46.5120   -3.7500  -18.3020 C.3    14  LYS14       0.1093
     21  NZ       -45.7920   -2.8800  -19.2670 N.3    14  LYS14      -0.1314
     22  N        -43.2700    0.1600  -16.1780 N.am   15  GLY15      -0.1955
     23  CA       -43.3180    1.4070  -16.9230 C.3    15  GLY15       0.1869
     24  C        -42.8700    1.2950  -18.3580 C.2    15  GLY15       0.2309
     25  O        -41.6780    1.2820  -18.6290 O.2    15  GLY15      -0.2863
     26  N        -41.7790   -0.5150  -20.7860 N.3    17  TYR17      -0.1241
     27  CA       -41.1930   -1.8280  -21.1200 C.3    17  TYR17       0.1605
     28  C        -40.7750   -2.5740  -19.8680 C.2    17  TYR17       0.2264
     29  O        -40.2980   -1.9640  -18.9140 O.2    17  TYR17      -0.2867
     30  CB       -39.9490   -1.6920  -21.9970 C.3    17  TYR17       0.0534
     31  CG       -40.1480   -0.8430  -23.2060 C.ar   17  TYR17      -0.0201
     32  CD1      -41.2010   -1.0940  -24.0860 C.ar   17  TYR17      -0.0009
     33  CD2      -39.2830    0.2160  -23.4860 C.ar   17  TYR17      -0.0009
     34  CE1      -41.3950   -0.3040  -25.2110 C.ar   17  TYR17       0.0417
     35  CE2      -39.4640    1.0090  -24.6090 C.ar   17  TYR17       0.0417
     36  CZ       -40.5210    0.7480  -25.4650 C.ar   17  TYR17       0.1957
     37  OH       -40.7030    1.5330  -26.5740 O.3    17  TYR17      -0.2866
     38  N        -40.0960   -3.7550  -13.0390 N.3    20  VAL20      -0.1245
     39  CA       -39.0470   -3.4400  -12.0730 C.3    20  VAL20       0.1561
     40  C        -39.2990   -4.2740  -10.8300 C.2    20  VAL20       0.2260
     41  O        -40.4340   -4.4100  -10.3700 O.2    20  VAL20      -0.2867
     42  CB       -38.9730   -1.9270  -11.7580 C.3    20  VAL20       0.0252
     43  CG1      -37.9030   -1.6380  -10.7120 C.3    20  VAL20       0.0019
     44  CG2      -38.7050   -1.1440  -13.0380 C.3    20  VAL20       0.0019
     45  N        -33.2520   -1.2730   -7.1920 N.3    33  ALA33      -0.1245
     46  CA       -34.3760   -1.4350   -8.1140 C.3    33  ALA33       0.1562
     47  C        -33.8240   -2.0280   -9.3970 C.2    33  ALA33       0.2260
     48  O        -32.8700   -1.5060   -9.9700 O.2    33  ALA33      -0.2867
     49  CB       -35.0230   -0.0900   -8.3950 C.3    33  ALA33       0.0290
     50  N        -34.6790   -3.2260  -13.1510 N.3    35  LYS35      -0.1245
     51  CA       -35.5330   -3.3530  -14.3340 C.3    35  LYS35       0.1561
     52  C        -35.2220   -4.6710  -15.0560 C.2    35  LYS35       0.2260
     53  O        -34.0740   -4.9110  -15.4090 O.2    35  LYS35      -0.2867
     54  CB       -35.3010   -2.1750  -15.2740 C.3    35  LYS35       0.0271
     55  CG       -36.2470   -2.1510  -16.4630 C.3    35  LYS35       0.0035
     56  CD       -35.8190   -1.1220  -17.4740 C.3    35  LYS35       0.0206
     57  CE       -36.9350   -0.8540  -18.4590 C.3    35  LYS35       0.1093
     58  NZ       -36.6730    0.4260  -19.1670 N.3    35  LYS35      -0.1314
     59  N        -31.1370    3.3130  -24.7260 N.3    55  GLU55      -0.1245
     60  CA       -31.6270    3.6980  -23.4030 C.3    55  GLU55       0.1567
     61  C        -30.4730    3.6220  -22.4050 C.2    55  GLU55       0.2260
     62  O        -30.2190    4.5790  -21.6740 O.2    55  GLU55      -0.2867
     63  CB       -32.8120    2.8230  -22.9430 C.3    55  GLU55       0.0388
     64  CG       -33.1660    2.9930  -21.4630 C.3    55  GLU55       0.1160
     65  CD       -34.2870    2.1020  -20.9730 C.2    55  GLU55       0.3649
     66  OE1      -34.3640    1.9090  -19.7400 O.co2  55  GLU55      -0.2457
     67  OE2      -35.0820    1.5930  -21.7880 O.co2  55  GLU55      -0.2457
     68  N        -32.7340    9.3650  -11.8450 N.3    68  VAL68      -0.1245
     69  CA       -32.3120    8.0710  -11.3030 C.3    68  VAL68       0.1561
     70  C        -30.8230    7.8600  -11.5520 C.2    68  VAL68       0.2260
     71  O        -30.2030    8.5640  -12.3590 O.2    68  VAL68      -0.2867
     72  CB       -33.1190    6.8540  -11.8430 C.3    68  VAL68       0.0252
     73  CG1      -34.5500    6.8760  -11.3160 C.3    68  VAL68       0.0019
     74  CG2      -33.1050    6.7610  -13.3700 C.3    68  VAL68       0.0019
     75  N        -30.6270    0.0060  -10.5190 N.3    86  PHE86      -0.1227
     76  CA       -30.7020    1.4200  -10.1580 C.3    86  PHE86       0.1736
     77  C        -30.6730    1.5920   -8.6390 C.2    86  PHE86       0.2595
     78  O        -30.9220    0.6460   -7.8960 O.2    86  PHE86      -0.2718
     79  CB       -32.0010    2.0450  -10.6800 C.3    86  PHE86       0.0547
     80  CG       -32.1960    1.9430  -12.1700 C.ar   86  PHE86      -0.0202
     81  CD1      -32.6110    0.7500  -12.7560 C.ar   86  PHE86      -0.0042
     82  CD2      -32.0120    3.0500  -12.9880 C.ar   86  PHE86      -0.0042
     83  CE1      -32.8120    0.6590  -14.1250 C.ar   86  PHE86      -0.0003
     84  CE2      -32.2150    2.9640  -14.3580 C.ar   86  PHE86      -0.0003
     85  CZ       -32.6230    1.7680  -14.9280 C.ar   86  PHE86      -0.0000
     86  N        -30.3920    2.8120   -8.1800 N.am   87  ASP87      -0.1960
     87  CA       -30.5660    3.1380   -6.7610 C.3    87  ASP87       0.1840
     88  C        -32.0620    3.1540   -6.4660 C.2    87  ASP87       0.2622
     89  O        -32.8490    3.7030   -7.2510 O.2    87  ASP87      -0.2715
     90  CB       -29.9430    4.4930   -6.3790 C.3    87  ASP87       0.1450
     91  CG       -28.4830    4.3860   -5.9550 C.2    87  ASP87       0.3671
     92  OD1      -28.0800    3.3510   -5.3890 O.co2  87  ASP87      -0.2456
     93  OD2      -27.7380    5.3580   -6.1830 O.co2  87  ASP87      -0.2456
     94  N        -32.4320    2.5410   -5.3410 N.am   88  LEU88      -0.1963
     95  CA       -33.8290    2.3600   -4.9580 C.3    88  LEU88       0.1728
     96  C        -34.3650    3.6100   -4.2860 C.2    88  LEU88       0.2616
     97  O        -33.7670    4.1230   -3.3380 O.2    88  LEU88      -0.2715
     98  CB       -33.9710    1.1770   -3.9970 C.3    88  LEU88       0.0311
     99  CG       -35.3780    0.7890   -3.5430 C.3    88  LEU88       0.0022
    100  CD1      -36.1660    0.2350   -4.7140 C.3    88  LEU88       0.0001
    101  CD2      -35.3230   -0.2280   -2.4090 C.3    88  LEU88       0.0001
    102  N        -35.4970    4.0920   -4.7930 N.am   89  LEU89      -0.1963
    103  CA       -36.3250    5.0530   -4.0870 C.3    89  LEU89       0.1728
    104  C        -37.5850    4.3150   -3.6120 C.2    89  LEU89       0.2616
    105  O        -38.6220    4.3380   -4.2790 O.2    89  LEU89      -0.2715
    106  CB       -36.6400    6.2460   -4.9960 C.3    89  LEU89       0.0311
    107  CG       -35.3880    7.0890   -5.3050 C.3    89  LEU89       0.0022
    108  CD1      -34.7750    6.6910   -6.6400 C.3    89  LEU89       0.0001
    109  CD2      -35.6670    8.5900   -5.2960 C.3    89  LEU89       0.0001
    110  N        -37.4860    3.6750   -2.4450 N.am   90  ARG90      -0.1963
    111  CA       -38.4850    2.6790   -1.9870 C.3    90  ARG90       0.1729
    112  C        -39.9670    3.1100   -2.0330 C.2    90  ARG90       0.2616
    113  O        -40.8540    2.2740   -2.1980 O.2    90  ARG90      -0.2715
    114  CB       -38.1450    2.1970   -0.5660 C.3    90  ARG90       0.0348
    115  CG       -38.3430    3.2470    0.5210 C.3    90  ARG90       0.0492
    116  CD       -37.4160    3.0180    1.7050 C.3    90  ARG90       0.2205
    117  NE       -37.5900    4.0480    2.7320 N.pl3  90  ARG90      -0.0865
    118  CZ       -38.4660    4.0040    3.7480 C.cat  90  ARG90       0.5346
    119  NH1      -39.2710    2.9560    3.9360 N.pl3  90  ARG90       0.1354
    120  NH2      -38.5300    5.0350    4.6000 N.pl3  90  ARG90       0.1354
    121  N        -40.2270    4.4040   -1.8890 N.am   91  LYS91      -0.1963
    122  CA       -41.6010    4.9190   -1.8570 C.3    91  LYS91       0.1728
    123  C        -42.2870    4.8820   -3.2150 C.2    91  LYS91       0.2617
    124  O        -43.5100    4.9820   -3.2770 O.2    91  LYS91      -0.2715
    125  CB       -41.6190    6.3570   -1.3410 C.3    91  LYS91       0.0311
    126  CG       -41.2030    6.5180    0.1110 C.3    91  LYS91       0.0038
    127  CD       -40.9160    7.9850    0.4170 C.3    91  LYS91       0.0206
    128  CE       -41.1760    8.3410    1.8720 C.3    91  LYS91       0.1093
    129  NZ       -40.5200    7.3890    2.7940 N.3    91  LYS91      -0.1314
    130  N        -41.5100    4.7880   -4.2950 N.am   92  GLY92      -0.1941
    131  CA       -42.0650    4.6280   -5.6330 C.3    92  GLY92       0.1998
    132  C        -42.6170    5.9150   -6.2060 C.2    92  GLY92       0.2480
    133  O        -42.2810    6.9900   -5.7180 O.2    92  GLY92      -0.2729
    134  N        -43.4610    5.8140   -7.2560 N.am   93  PRO93      -0.2726
    135  CA       -44.0490    6.9690   -7.9150 C.3    93  PRO93       0.1402
    136  C        -44.7710    7.8870   -6.9440 C.2    93  PRO93       0.2269
    137  O        -45.4350    7.4050   -6.0200 O.2    93  PRO93      -0.2865
    138  CB       -45.0450    6.3540   -8.9040 C.3    93  PRO93       0.0296
    139  CG       -44.4930    5.0170   -9.2220 C.3    93  PRO93       0.0237
    140  CD       -43.6700    4.5790   -8.0380 C.3    93  PRO93       0.0939
    141  N        -46.4820    9.5070  -12.5690 N.3   135  SER135     -0.1202
    142  CA       -46.1320    8.1070  -12.2970 C.3   135  SER135      0.2020
    143  C        -44.6830    7.7590  -12.6570 C.2   135  SER135      0.2618
    144  O        -44.2040    6.7000  -12.2430 O.2   135  SER135     -0.2717
    145  CB       -47.1210    7.1260  -12.9500 C.3   135  SER135      0.2103
    146  OG       -46.9030    6.9480  -14.3420 O.3   135  SER135     -0.2182
    147  N        -43.9940    8.6390  -13.4060 N.am  136  ASN136     -0.1974
    148  CA       -42.5450    8.5000  -13.6650 C.3   136  ASN136      0.1688
    149  C        -41.6380    9.3830  -12.7840 C.2   136  ASN136      0.2292
    150  O        -40.4120    9.4580  -13.0200 O.2   136  ASN136     -0.2864
    151  CB       -42.2420    8.7410  -15.1570 C.3   136  ASN136      0.1181
    152  CG       -42.6440    7.5650  -16.0410 C.2   136  ASN136      0.2629
    153  OD1      -42.7520    6.4300  -15.5830 O.2   136  ASN136     -0.2716
    154  ND2      -42.8420    7.8350  -17.3240 N.am  136  ASN136     -0.0877
    155  N        -40.2550    9.5250   -9.0310 N.3   138  LEU138     -0.1245
    156  CA       -40.0740    8.6570   -7.8790 C.3   138  LEU138      0.1561
    157  C        -39.6800    9.4720   -6.6730 C.2   138  LEU138      0.2260
    158  O        -38.7070   10.2130   -6.7360 O.2   138  LEU138     -0.2867
    159  CB       -38.9710    7.6390   -8.1490 C.3   138  LEU138      0.0270
    160  CG       -39.1870    6.7410   -9.3540 C.3   138  LEU138      0.0019
    161  CD1      -37.9850    5.8400   -9.4760 C.3   138  LEU138      0.0001
    162  CD2      -40.4570    5.9350   -9.1860 C.3   138  LEU138      0.0001
    163  N        -37.5230    9.2770  -13.8550 N.3   148  ALA148     -0.1231
    164  CA       -37.2180    7.8910  -14.2280 C.3   148  ALA148      0.1694
    165  C        -37.9860    7.4620  -15.4790 C.2   148  ALA148      0.2592
    166  O        -38.7670    8.2350  -16.0320 O.2   148  ALA148     -0.2718
    167  CB       -37.5260    6.9500  -13.0620 C.3   148  ALA148      0.0304
    168  N        -37.7590    6.2090  -15.8900 N.am  149  ASP149     -0.1960
    169  CA       -38.3080    5.6090  -17.1120 C.3   149  ASP149      0.1840
    170  C        -37.8220    6.3570  -18.3630 C.2   149  ASP149      0.2622
    171  O        -38.5440    7.1650  -18.9680 O.2   149  ASP149     -0.2715
    172  CB       -39.8440    5.4600  -17.0530 C.3   149  ASP149      0.1450
    173  CG       -40.3930    4.4460  -18.0840 C.2   149  ASP149      0.3671
    174  OD1      -39.6080    3.9670  -18.9330 O.co2 149  ASP149     -0.2456
    175  OD2      -41.6180    4.1330  -18.0450 O.co2 149  ASP149     -0.2456
    176  N        -36.5730    6.0640  -18.7250 N.am  150  PHE150     -0.1974
    177  CA       -35.9360    6.5940  -19.9310 C.3   150  PHE150      0.1639
    178  C        -36.1410    5.6830  -21.1590 C.2   150  PHE150      0.2290
    179  O        -35.3120    5.6490  -22.0470 O.2   150  PHE150     -0.2864
    180  CB       -34.4410    6.8520  -19.6560 C.3   150  PHE150      0.0560
    181  CG       -34.2030    8.0680  -18.8100 C.ar  150  PHE150     -0.0200
    182  CD1      -34.2780    7.9900  -17.4100 C.ar  150  PHE150     -0.0042
    183  CD2      -33.9690    9.3170  -19.4120 C.ar  150  PHE150     -0.0042
    184  CE1      -34.0940    9.1250  -16.6300 C.ar  150  PHE150     -0.0003
    185  CE2      -33.7820   10.4480  -18.6370 C.ar  150  PHE150     -0.0003
    186  CZ       -33.8470   10.3540  -17.2450 C.ar  150  PHE150     -0.0000
@<TRIPOS>BOND
     1    37    36    1
     2    36    34   ar
     3    36    35   ar
     4    34    32   ar
     5    59    60    1
     6    35    33   ar
     7    32    31   ar
     8    33    31   ar
     9    60    63    1
    10    60    61    1
    11    31    30    1
    12    63    64    1
    13    61    62    2
    14   179   178    2
    15    30    27    1
    16    67    65   ar
    17    64    65    1
    18   178   177    1
    19    27    26    1
    20    27    28    1
    21    65    66   ar
    22   177   180    1
    23   177   176    1
    24    28    29    2
    25   180   181    1
    26   183   181   ar
    27   183   185   ar
    28    21    20    1
    29    58    57    1
    30   171   170    2
    31   174   173   ar
    32   181   182   ar
    33   176   170   am
    34   185   186   ar
    35    25    24    2
    36    57    56    1
    37   170   169    1
    38    24    23    1
    39    20    19    1
    40   173   175   ar
    41   173   172    1
    42    56    55    1
    43   182   184   ar
    44   154   152   am
    45   186   184   ar
    46   169   172    1
    47   169   168    1
    48    23    22    1
    49    19    18    1
    50    18    17    1
    51    55    54    1
    52    22    15   am
    53   152   153    2
    54   152   151    1
    55   166   165    2
    56   168   165   am
    57   165   164    1
    58    53    52    2
    59    54    51    1
    60    15    16    2
    61    15    14    1
    62   151   148    1
    63    17    14    1
    64    52    51    1
    65    85    84   ar
    66    85    83   ar
    67    14    13    1
    68    84    82   ar
    69   146   145    1
    70    51    50    1
    71   164   163    1
    72   164   167    1
    73    83    81   ar
    74   148   147    1
    75   148   149    1
    76   147   143   am
    77    74    72    1
    78    13    11   am
    79    38    39    1
    80    44    42    1
    81   150   149    2
    82    82    80   ar
    83   145   142    1
    84    81    80   ar
    85   143   142    1
    86   143   144    2
    87   141   142    1
    88    71    70    2
    89    12    11    2
    90    80    79    1
    91    11    10    1
    92    39    42    1
    93    39    40    1
    94    68    69    1
    95    72    73    1
    96    72    69    1
    97    42    43    1
    98    70    69    1
    99    40    41    2
   100    79    76    1
   101    10     9    1
   102    75    76    1
   103    76    77    1
   104    48    47    2
   105     9     3   am
   106   161   160    1
   107    47    46    1
   108   160   162    1
   109   160   159    1
   110   139   138    1
   111   139   140    1
   112   155   156    1
   113   138   135    1
   114    77    86   am
   115    77    78    2
   116    49    46    1
   117     3     4    2
   118     3     2    1
   119     1     2    1
   120    86    87    1
   121   159   156    1
   122    46    45    1
   123   140   134    1
   124   135   134    1
   125   135   136    1
   126   156   157    1
   127     6     8    1
   128     6     5    1
   129     2     5    1
   130   134   132   am
   131    89    88    2
   132   136   137    2
   133    87    88    1
   134    87    90    1
   135   158   157    2
   136     5     7    1
   137   108   107    1
   138    88    94   am
   139    90    91    1
   140   132   133    2
   141   132   131    1
   142    93    91   ar
   143    91    92   ar
   144   131   130    1
   145    94    95    1
   146   107   109    1
   147   107   106    1
   148   106   103    1
   149    95    96    1
   150    95    98    1
   151   102    96   am
   152   102   103    1
   153   100    99    1
   154   130   123   am
   155    96    97    2
   156   105   104    2
   157   103   104    1
   158    98    99    1
   159   104   110   am
   160    99   101    1
   161   124   123    2
   162   123   122    1
   163   110   111    1
   164   113   112    2
   165   112   111    1
   166   112   121   am
   167   111   114    1
   168   121   122    1
   169   122   125    1
   170   125   126    1
   171   114   115    1
   172   126   127    1
   173   127   128    1
   174   115   116    1
   175   116   117    1
   176   128   129    1
   177   117   118    2
   178   118   119    1
   179   118   120    1
