@<TRIPOS>MOLECULE
tmp/6cd7B00.pdb
 153 147 0 0 0
SMALL
GASTEIGER

@<TRIPOS>ATOM
      1  N         49.2130    5.5100    2.1880 N.3    32  GLY32      -0.1210
      2  CA        50.0450    4.3720    1.8630 C.3    32  GLY32       0.1956
      3  C         49.4060    3.0690    2.3080 C.2    32  GLY32       0.2612
      4  O         48.2070    2.9960    2.5970 O.2    32  GLY32      -0.2717
      5  N         50.2280    2.0210    2.3700 N.am   33  ASN33      -0.1960
      6  CA        49.7020    0.7290    2.7960 C.3    33  ASN33       0.1819
      7  C         49.4070    0.7080    4.2840 C.2    33  ASN33       0.2621
      8  O         48.4740    0.0290    4.7280 O.2    33  ASN33      -0.2715
      9  CB        50.6850   -0.3840    2.4410 C.3    33  ASN33       0.1195
     10  CG        50.7740   -0.6160    0.9590 C.2    33  ASN33       0.2630
     11  OD1       49.8710   -0.2350    0.2240 O.2    33  ASN33      -0.2716
     12  ND2       51.8560   -1.2270    0.5080 N.am   33  ASN33      -0.0877
     13  N         50.1760    1.4710    5.0670 N.am   34  ASP34      -0.1971
     14  CA        50.1420    1.4110    6.5160 C.3    34  ASP34       0.1709
     15  C         49.2140    2.4520    7.1330 C.2    34  ASP34       0.2293
     16  O         48.5190    2.1500    8.1150 O.2    34  ASP34      -0.2864
     17  CB        51.5490    1.6040    7.0690 C.3    34  ASP34       0.1436
     18  CG        52.4370    0.4020    6.8400 C.2    34  ASP34       0.3671
     19  OD1       51.8980   -0.7120    6.7020 O.co2  34  ASP34      -0.2456
     20  OD2       53.6730    0.5790    6.7910 O.co2  34  ASP34      -0.2456
     21  N         46.1060    2.4100    9.5420 N.3    50  LYS50      -0.1245
     22  CA        44.9300    1.7410    8.9970 C.3    50  LYS50       0.1561
     23  C         44.6680    0.3990    9.6500 C.2    50  LYS50       0.2260
     24  O         43.5640   -0.1460    9.5080 O.2    50  LYS50      -0.2867
     25  CB        45.0830    1.5640    7.4850 C.3    50  LYS50       0.0271
     26  CG        44.7360    2.8380    6.7380 C.3    50  LYS50       0.0035
     27  CD        45.5560    3.0530    5.4730 C.3    50  LYS50       0.0206
     28  CE        45.5890    1.8240    4.5740 C.3    50  LYS50       0.1093
     29  NZ        45.6370    2.2480    3.1500 N.3    50  LYS50      -0.1314
     30  N         62.2060    3.4690    0.4470 N.3   198  ASP198     -0.1239
     31  CA        61.1670    3.8370   -0.5190 C.3   198  ASP198      0.1674
     32  C         61.6380    5.0510   -1.2960 C.2   198  ASP198      0.2266
     33  O         60.9190    6.0350   -1.4720 O.2   198  ASP198     -0.2867
     34  CB        59.8170    4.0880    0.1690 C.3   198  ASP198      0.1410
     35  CG        58.6320    3.9650   -0.7780 C.2   198  ASP198      0.3668
     36  OD1       58.8000    3.5640   -1.9590 O.co2 198  ASP198     -0.2456
     37  OD2       57.4850    4.2700   -0.3470 O.co2 198  ASP198     -0.2456
     38  N         59.1260    3.0250    5.4580 N.3   221  ASP221     -0.1239
     39  CA        59.7040    1.7110    5.2570 C.3   221  ASP221      0.1674
     40  C         61.1820    1.6550    5.5950 C.2   221  ASP221      0.2266
     41  O         61.8180    0.6140    5.3940 O.2   221  ASP221     -0.2867
     42  CB        59.4840    1.2550    3.8000 C.3   221  ASP221      0.1410
     43  CG        58.0180    1.1000    3.4310 C.2   221  ASP221      0.3668
     44  OD1       57.2170    0.6430    4.2840 O.co2 221  ASP221     -0.2456
     45  OD2       57.6540    1.4240    2.2790 O.co2 221  ASP221     -0.2456
     46  N         63.5740    2.4320  -12.6040 N.3   236  GLU236     -0.1245
     47  CA        62.5610    2.0320  -13.5700 C.3   236  GLU236      0.1567
     48  C         62.3670    3.1150  -14.6210 C.2   236  GLU236      0.2260
     49  O         62.0850    4.2720  -14.2900 O.2   236  GLU236     -0.2867
     50  CB        61.2470    1.7390  -12.8620 C.3   236  GLU236      0.0388
     51  CG        60.2200    1.2060  -13.8040 C.3   236  GLU236      0.1160
     52  CD        58.9040    0.8820  -13.1470 C.2   236  GLU236      0.3649
     53  OE1       58.7970    1.0790  -11.9240 O.co2 236  GLU236     -0.2457
     54  OE2       57.9770    0.4300  -13.8540 O.co2 236  GLU236     -0.2457
     55  N         59.9830    3.3450  -16.7210 N.3   238  ASP238     -0.1225
     56  CA        58.5620    3.6310  -16.7520 C.3   238  ASP238      0.1805
     57  C         58.1560    4.8110  -15.8610 C.2   238  ASP238      0.2597
     58  O         57.6630    5.8280  -16.3360 O.2   238  ASP238     -0.2718
     59  CB        57.7900    2.4350  -16.2690 C.3   238  ASP238      0.1424
     60  CG        58.2710    1.1850  -16.8820 C.2   238  ASP238      0.3668
     61  OD1       57.7120    0.7720  -17.9150 O.co2 238  ASP238     -0.2456
     62  OD2       59.2160    0.5690  -16.3540 O.co2 238  ASP238     -0.2456
     63  N         58.3210    4.5920  -14.5610 N.am  239  GLU239     -0.1979
     64  CA        57.7570    5.4650  -13.5460 C.3   239  GLU239      0.1602
     65  C         58.8070    6.2390  -12.7780 C.2   239  GLU239      0.2287
     66  O         58.4410    7.1070  -11.9770 O.2   239  GLU239     -0.2864
     67  CB        56.9300    4.6340  -12.5540 C.3   239  GLU239      0.0415
     68  CG        56.0310    3.5920  -13.1940 C.3   239  GLU239      0.1163
     69  CD        54.8110    3.2990  -12.3490 C.2   239  GLU239      0.3649
     70  OE1       54.6690    3.9260  -11.2780 O.co2 239  GLU239     -0.2457
     71  OE2       53.9950    2.4440  -12.7510 O.co2 239  GLU239     -0.2457
     72  N         68.2430   -4.9380   -9.2170 N.3   265  TYR265     -0.1241
     73  CA        67.0410   -4.4190   -9.8550 C.3   265  TYR265      0.1605
     74  C         66.2890   -5.5240  -10.5740 C.2   265  TYR265      0.2264
     75  O         65.0740   -5.6810  -10.3960 O.2   265  TYR265     -0.2867
     76  CB        67.4000   -3.3180  -10.8370 C.3   265  TYR265      0.0534
     77  CG        66.2060   -2.7710  -11.5900 C.ar  265  TYR265     -0.0201
     78  CD1       65.8500   -3.2740  -12.8400 C.ar  265  TYR265     -0.0009
     79  CD2       65.4300   -1.7470  -11.0550 C.ar  265  TYR265     -0.0009
     80  CE1       64.7560   -2.7820  -13.5220 C.ar  265  TYR265      0.0417
     81  CE2       64.3340   -1.2470  -11.7350 C.ar  265  TYR265      0.0417
     82  CZ        64.0040   -1.7730  -12.9730 C.ar  265  TYR265      0.1957
     83  OH        62.9150   -1.2840  -13.6550 O.3   265  TYR265     -0.2866
     84  N         62.3670   -7.1920   -9.7850 N.3   269  GLU269     -0.1245
     85  CA        61.2080   -7.1950  -10.6700 C.3   269  GLU269      0.1567
     86  C         60.6420   -8.5990  -10.8180 C.2   269  GLU269      0.2260
     87  O         59.4200   -8.7860  -10.8510 O.2   269  GLU269     -0.2867
     88  CB        61.5730   -6.6040  -12.0360 C.3   269  GLU269      0.0388
     89  CG        60.3780   -6.4850  -12.9790 C.3   269  GLU269      0.1160
     90  CD        60.6780   -5.7120  -14.2560 C.2   269  GLU269      0.3649
     91  OE1       61.8590   -5.4040  -14.5180 O.co2 269  GLU269     -0.2457
     92  OE2       59.7200   -5.4140  -14.9980 O.co2 269  GLU269     -0.2457
     93  N         58.3630   -9.9610   -7.7990 N.3   272  TRP272     -0.1241
     94  CA        57.1800   -9.2110   -7.3840 C.3   272  TRP272      0.1605
     95  C         55.9500  -10.1070   -7.2080 C.2   272  TRP272      0.2264
     96  O         55.1290   -9.8670   -6.3210 O.2   272  TRP272     -0.2867
     97  CB        56.9140   -8.0880   -8.3940 C.3   272  TRP272      0.0550
     98  CG        55.6230   -7.3720   -8.1940 C.ar  272  TRP272      0.0003
     99  CD1       54.6550   -7.1640   -9.1280 C.ar  272  TRP272      0.0946
    100  CD2       55.1490   -6.7710   -6.9830 C.ar  272  TRP272      0.0152
    101  NE1       53.6070   -6.4700   -8.5790 N.ar  272  TRP272     -0.2442
    102  CE2       53.8820   -6.2260   -7.2600 C.ar  272  TRP272      0.0810
    103  CE3       55.6700   -6.6440   -5.6900 C.ar  272  TRP272      0.0012
    104  CZ2       53.1270   -5.5660   -6.2930 C.ar  272  TRP272      0.0191
    105  CZ3       54.9220   -5.9870   -4.7350 C.ar  272  TRP272      0.0001
    106  CH2       53.6640   -5.4540   -5.0410 C.ar  272  TRP272      0.0015
    107  N         53.3840  -10.1470   -3.9680 N.3   276  LYS276     -0.1245
    108  CA        51.9630   -9.8940   -4.1660 C.3   276  LYS276      0.1561
    109  C         51.1060  -10.9630   -3.4900 C.2   276  LYS276      0.2260
    110  O         50.0800  -10.6500   -2.8700 O.2   276  LYS276     -0.2867
    111  CB        51.6960   -9.8140   -5.6750 C.3   276  LYS276      0.0271
    112  CG        50.3000   -9.4290   -6.1340 C.3   276  LYS276      0.0035
    113  CD        50.2360   -9.1930   -7.6630 C.3   276  LYS276      0.0206
    114  CE        51.6150   -8.9210   -8.2780 C.3   276  LYS276      0.1093
    115  NZ        51.5980   -8.3770   -9.6780 N.3   276  LYS276     -0.1314
    116  N         51.2320  -10.2930    0.2250 N.3   279  TYR279     -0.1241
    117  CA        50.4670   -9.0820    0.5090 C.3   279  TYR279      0.1605
    118  C         48.9710   -9.3350    0.3730 C.2   279  TYR279      0.2264
    119  O         48.1820   -8.9670    1.2560 O.2   279  TYR279     -0.2867
    120  CB        50.8960   -7.9420   -0.4180 C.3   279  TYR279      0.0534
    121  CG        50.3450   -6.5960    0.0220 C.ar  279  TYR279     -0.0201
    122  CD1       49.0130   -6.2680   -0.1910 C.ar  279  TYR279     -0.0009
    123  CD2       51.1520   -5.6730    0.6690 C.ar  279  TYR279     -0.0009
    124  CE1       48.4980   -5.0550    0.2240 C.ar  279  TYR279      0.0417
    125  CE2       50.6440   -4.4480    1.0870 C.ar  279  TYR279      0.0417
    126  CZ        49.3140   -4.1490    0.8590 C.ar  279  TYR279      0.1957
    127  OH        48.7840   -2.9430    1.2630 O.3   279  TYR279     -0.2866
    128  N         43.9330   -7.9290    0.6510 N.3   285  TYR285     -0.1241
    129  CA        43.9210   -7.2240   -0.6160 C.3   285  TYR285      0.1605
    130  C         44.2620   -8.4910   -1.3980 C.2   285  TYR285      0.2264
    131  O         45.3360   -8.6150   -1.9380 O.2   285  TYR285     -0.2867
    132  CB        45.1820   -6.3690   -0.7390 C.3   285  TYR285      0.0534
    133  CG        45.1020   -5.2090   -1.7060 C.ar  285  TYR285     -0.0201
    134  CD1       45.5110   -5.3500   -3.0220 C.ar  285  TYR285     -0.0009
    135  CD2       44.6490   -3.9640   -1.3050 C.ar  285  TYR285     -0.0009
    136  CE1       45.4520   -4.3020   -3.9000 C.ar  285  TYR285      0.0417
    137  CE2       44.6010   -2.9050   -2.1820 C.ar  285  TYR285      0.0417
    138  CZ        45.0010   -3.0840   -3.4810 C.ar  285  TYR285      0.1957
    139  OH        44.9590   -2.0480   -4.3770 O.3   285  TYR285     -0.2866
    140  N         45.1790   -9.0400   -5.0330 N.3   288  TRP288     -0.1241
    141  CA        46.5970   -9.2690   -5.2530 C.3   288  TRP288      0.1605
    142  C         46.9750  -10.7310   -5.0720 C.2   288  TRP288      0.2264
    143  O         47.8990  -11.2140   -5.7350 O.2   288  TRP288     -0.2867
    144  CB        47.3990   -8.3650   -4.3250 C.3   288  TRP288      0.0550
    145  CG        47.6620   -7.0740   -4.9840 C.ar  288  TRP288      0.0003
    146  CD1       47.0030   -6.5680   -6.0660 C.ar  288  TRP288      0.0946
    147  CD2       48.6660   -6.1220   -4.6440 C.ar  288  TRP288      0.0152
    148  NE1       47.5310   -5.3540   -6.4150 N.ar  288  TRP288     -0.2442
    149  CE2       48.5560   -5.0570   -5.5570 C.ar  288  TRP288      0.0810
    150  CE3       49.6470   -6.0640   -3.6540 C.ar  288  TRP288      0.0012
    151  CZ2       49.3880   -3.9490   -5.5080 C.ar  288  TRP288      0.0191
    152  CZ3       50.4690   -4.9660   -3.6080 C.ar  288  TRP288      0.0001
    153  CH2       50.3420   -3.9270   -4.5300 C.ar  288  TRP288      0.0015
@<TRIPOS>BOND
     1    61    60   ar
     2    60    62   ar
     3    60    59    1
     4    56    55    1
     5    56    59    1
     6    56    57    1
     7    58    57    2
     8    57    63   am
     9    92    90   ar
    10    48    49    2
    11    48    47    1
    12    63    64    1
    13    91    90   ar
    14    90    89    1
    15    54    52   ar
    16    51    52    1
    17    51    50    1
    18    83    82    1
    19    47    50    1
    20    47    46    1
    21    64    65    1
    22    64    67    1
    23    80    82   ar
    24    80    78   ar
    25    68    67    1
    26    68    69    1
    27    52    53   ar
    28    89    88    1
    29    82    81   ar
    30    78    77   ar
    31    65    66    2
    32    71    69   ar
    33    69    70   ar
    34    88    85    1
    35    81    79   ar
    36    77    79   ar
    37    77    76    1
    38    87    86    2
    39    76    73    1
    40    86    85    1
    41    85    84    1
    42    74    75    2
    43    74    73    1
    44    73    72    1
    45   115   114    1
    46    99   101   ar
    47    99    98   ar
    48   101   102   ar
    49    97    98    1
    50    97    94    1
    51   114   113    1
    52    98   100   ar
    53    93    94    1
    54   113   112    1
    55    94    95    1
    56   102   100   ar
    57   102   104   ar
    58    95    96    2
    59   100   103   ar
    60   148   146   ar
    61   148   149   ar
    62   104   106   ar
    63   112   111    1
    64   146   145   ar
    65   143   142    2
    66   103   105   ar
    67   111   108    1
    68   149   151   ar
    69   149   147   ar
    70   151   153   ar
    71   141   142    1
    72   141   140    1
    73   141   144    1
    74   106   105   ar
    75   145   147   ar
    76   145   144    1
    77   147   150   ar
    78   153   152   ar
    79   139   138    1
    80   108   107    1
    81   108   109    1
    82   136   138   ar
    83   136   134   ar
    84   150   152   ar
    85   109   110    2
    86   138   137   ar
    87   134   133   ar
    88   137   135   ar
    89    36    35   ar
    90   131   130    2
    91   133   135   ar
    92   133   132    1
    93    33    32    2
    94   130   129    1
    95    32    31    1
    96    35    37   ar
    97    35    34    1
    98   132   129    1
    99   129   128    1
   100    31    34    1
   101    31    30    1
   102   120   121    1
   103   120   117    1
   104   122   121   ar
   105   122   124   ar
   106   121   123   ar
   107    11    10    2
   108   124   126   ar
   109   116   117    1
   110   118   117    1
   111   118   119    2
   112    12    10   am
   113   123   125   ar
   114   126   125   ar
   115   126   127    1
   116    10     9    1
   117     2     1    1
   118     2     3    1
   119    45    43   ar
   120     3     5   am
   121     3     4    2
   122     5     6    1
   123     9     6    1
   124     6     7    1
   125    29    28    1
   126    43    42    1
   127    43    44   ar
   128    42    39    1
   129     7     8    2
   130     7    13   am
   131    28    27    1
   132    13    14    1
   133    39    38    1
   134    39    40    1
   135    41    40    2
   136    27    26    1
   137    14    17    1
   138    14    15    1
   139    19    18   ar
   140    26    25    1
   141    20    18   ar
   142    18    17    1
   143    15    16    2
   144    25    22    1
   145    22    21    1
   146    22    23    1
   147    24    23    2
