@<TRIPOS>MOLECULE
tmp/6cdsB00.pdb
 123 118 0 0 0
SMALL
GASTEIGER

@<TRIPOS>ATOM
      1  N         22.4640    4.4890   -5.8410 N.3    33  PHE33      -0.1241
      2  CA        21.3730    5.3790   -5.4260 C.3    33  PHE33       0.1605
      3  C         20.0170    4.7420   -5.6500 C.2    33  PHE33       0.2264
      4  O         19.2160    4.6740   -4.7160 O.2    33  PHE33      -0.2867
      5  CB        21.4720    6.7210   -6.1380 C.3    33  PHE33       0.0534
      6  CG        20.4110    7.7110   -5.7230 C.ar   33  PHE33      -0.0203
      7  CD1       20.3910    8.2370   -4.4350 C.ar   33  PHE33      -0.0042
      8  CD2       19.4540    8.1490   -6.6290 C.ar   33  PHE33      -0.0042
      9  CE1       19.4450    9.2000   -4.0730 C.ar   33  PHE33      -0.0003
     10  CE2       18.5010    9.0970   -6.2540 C.ar   33  PHE33      -0.0003
     11  CZ        18.4880    9.6040   -4.9760 C.ar   33  PHE33      -0.0000
     12  N         10.1460    6.8140   -4.1140 N.3    43  ARG43      -0.1245
     13  CA         9.9660    7.2100   -5.5100 C.3    43  ARG43       0.1563
     14  C         10.2610    8.7160   -5.7420 C.2    43  ARG43       0.2260
     15  O         10.6780    9.0880   -6.8450 O.2    43  ARG43      -0.2867
     16  CB         8.5310    6.8480   -5.9600 C.3    43  ARG43       0.0307
     17  CG         8.2610    5.3450   -5.8220 C.3    43  ARG43       0.0489
     18  CD         7.1630    4.8170   -6.7180 C.3    43  ARG43       0.2205
     19  NE         5.8520    5.3320   -6.3310 N.pl3  43  ARG43      -0.0865
     20  CZ         4.6980    4.9660   -6.8840 C.cat  43  ARG43       0.5346
     21  NH1        4.6740    4.0600   -7.8570 N.pl3  43  ARG43       0.1354
     22  NH2        3.5570    5.5030   -6.4660 N.pl3  43  ARG43       0.1354
     23  N         12.6720   10.6350   -5.4560 N.3    45  THR45      -0.1203
     24  CA        14.1230   10.5520   -5.3250 C.3    45  THR45       0.1994
     25  C         14.8870   11.8350   -5.5320 C.2    45  THR45       0.2617
     26  O         15.9100   12.0010   -4.8690 O.2    45  THR45      -0.2717
     27  CB        14.6940    9.4810   -6.2640 C.3    45  THR45       0.1784
     28  OG1       14.5970    9.9370   -7.6070 O.3    45  THR45      -0.2211
     29  CG2       14.0100    8.1320   -6.1060 C.3    45  THR45       0.0376
     30  N         14.4390   12.7100   -6.4690 N.am   46  TRP46      -0.1975
     31  CA        15.0650   14.0110   -6.8100 C.3    46  TRP46       0.1640
     32  C         15.4630   14.8820   -5.6300 C.2    46  TRP46       0.2290
     33  O         16.4150   15.6330   -5.7690 O.2    46  TRP46      -0.2864
     34  CB        14.2010   14.8470   -7.7650 C.3    46  TRP46       0.0576
     35  CG        12.8160   15.1140   -7.2910 C.ar   46  TRP46       0.0006
     36  CD1       12.3740   16.2360   -6.6650 C.ar   46  TRP46       0.0946
     37  CD2       11.6620   14.2850   -7.5010 C.ar   46  TRP46       0.0152
     38  NE1       11.0250   16.1360   -6.4100 N.ar   46  TRP46      -0.2442
     39  CE2       10.5690   14.9340   -6.8910 C.ar   46  TRP46       0.0810
     40  CE3       11.4490   13.0510   -8.1340 C.ar   46  TRP46       0.0012
     41  CZ2        9.2870   14.3920   -6.8950 C.ar   46  TRP46       0.0191
     42  CZ3       10.1830   12.5210   -8.1420 C.ar   46  TRP46       0.0001
     43  CH2        9.1150   13.1930   -7.5350 C.ar   46  TRP46       0.0015
     44  N         16.7220   13.6890   -2.8500 N.3    48  PHE48      -0.1241
     45  CA        17.7700   12.9780   -2.1160 C.3    48  PHE48       0.1605
     46  C         19.0910   12.7450   -2.8410 C.2    48  PHE48       0.2264
     47  O         19.2130   12.9140   -4.0580 O.2    48  PHE48      -0.2867
     48  CB        17.2070   11.6430   -1.6330 C.3    48  PHE48       0.0534
     49  CG        15.9950   11.8280   -0.7460 C.ar   48  PHE48      -0.0203
     50  CD1       16.1330   11.9730    0.6270 C.ar   48  PHE48      -0.0042
     51  CD2       14.7270   11.9530   -1.2940 C.ar   48  PHE48      -0.0042
     52  CE1       15.0060   12.1460    1.4460 C.ar   48  PHE48      -0.0003
     53  CE2       13.6080   12.1340   -0.4790 C.ar   48  PHE48      -0.0003
     54  CZ        13.7500   12.1950    0.8880 C.ar   48  PHE48      -0.0000
     55  N         25.9550   10.8180   -9.8860 N.3    63  MET63      -0.1245
     56  CA        25.2450    9.7040  -10.5280 C.3    63  MET63       0.1570
     57  C         25.9820    9.0500  -11.7190 C.2    63  MET63       0.2261
     58  O         26.0060    7.8350  -11.8390 O.2    63  MET63      -0.2867
     59  CB        23.8420   10.1660  -10.9770 C.3    63  MET63       0.0387
     60  CG        22.9340   10.6580   -9.8500 C.3    63  MET63       0.0595
     61  SD        22.6350    9.5100   -8.4750 S.3    63  MET63      -0.1393
     62  CE        23.7290   10.1490   -7.2530 C.3    63  MET63       0.0692
     63  N          4.1680   19.0290   -1.8690 N.3    94  GLU94      -0.1245
     64  CA         5.1880   18.3290   -2.6230 C.3    94  GLU94       0.1567
     65  C          5.6250   16.9720   -2.1230 C.2    94  GLU94       0.2260
     66  O          6.0570   16.1710   -2.9600 O.2    94  GLU94      -0.2867
     67  CB         6.4260   19.2270   -2.7430 C.3    94  GLU94       0.0388
     68  CG         6.1540   20.5200   -3.4930 C.3    94  GLU94       0.1160
     69  CD         7.3850   21.3450   -3.7980 C.2    94  GLU94       0.3649
     70  OE1        8.3630   20.7720   -4.3340 O.co2  94  GLU94      -0.2457
     71  OE2        7.3720   22.5660   -3.5120 O.co2  94  GLU94      -0.2457
     72  N         16.9330   24.3200  -11.6520 N.3   291  ASP291     -0.1225
     73  CA        16.1570   23.3720  -12.4320 C.3   291  ASP291      0.1805
     74  C         14.8750   22.9500  -11.6890 C.2   291  ASP291      0.2597
     75  O         13.7930   23.0380  -12.2770 O.2   291  ASP291     -0.2718
     76  CB        17.0250   22.1710  -12.8000 C.3   291  ASP291      0.1424
     77  CG        16.2460   21.0040  -13.3480 C.2   291  ASP291      0.3668
     78  OD1       15.7950   21.0860  -14.5240 O.co2 291  ASP291     -0.2456
     79  OD2       16.0490   20.0070  -12.5960 O.co2 291  ASP291     -0.2456
     80  N         14.9670   22.5600  -10.4000 N.am  292  LEU292     -0.1979
     81  CA        13.7620   22.1680   -9.6490 C.3   292  LEU292      0.1596
     82  C         12.7620   23.3450   -9.5330 C.2   292  LEU292      0.2287
     83  O         11.5660   23.1370   -9.6510 O.2   292  LEU292     -0.2864
     84  CB        14.1230   21.6080   -8.2630 C.3   292  LEU292      0.0297
     85  CG        14.9020   20.2650   -8.2180 C.3   292  LEU292      0.0022
     86  CD1       15.1500   19.8300   -6.7850 C.3   292  LEU292      0.0001
     87  CD2       14.1830   19.1500   -8.9340 C.3   292  LEU292      0.0001
     88  N         11.0120   23.6360  -12.8370 N.3   295  ARG295     -0.1231
     89  CA        10.0710   22.5400  -12.9750 C.3   295  ARG295      0.1694
     90  C          8.7990   22.7850  -12.1500 C.2   295  ARG295      0.2591
     91  O          7.7170   22.4620  -12.6200 O.2   295  ARG295     -0.2718
     92  CB        10.7450   21.2060  -12.6110 C.3   295  ARG295      0.0321
     93  CG        11.7830   20.7600  -13.6350 C.3   295  ARG295      0.0489
     94  CD        12.4840   19.5030  -13.1900 C.3   295  ARG295      0.2205
     95  NE        13.6410   19.2340  -14.0410 N.pl3 295  ARG295     -0.0865
     96  CZ        13.7230   18.3530  -15.0380 C.cat 295  ARG295      0.5346
     97  NH1       12.6890   17.5670  -15.3360 N.pl3 295  ARG295      0.1354
     98  NH2       14.8430   18.2410  -15.7370 N.pl3 295  ARG295      0.1354
     99  N          8.9140   23.4070  -10.9650 N.am  296  ARG296     -0.1980
    100  CA         7.7400   23.7120  -10.1490 C.3   296  ARG296      0.1597
    101  C          6.8670   24.7260  -10.8500 C.2   296  ARG296      0.2287
    102  O          5.6630   24.5690  -10.8180 O.2   296  ARG296     -0.2864
    103  CB         8.1270   24.2190   -8.7530 C.3   296  ARG296      0.0334
    104  CG         8.7800   23.1460   -7.9130 C.3   296  ARG296      0.0492
    105  CD         8.8760   23.5120   -6.4540 C.3   296  ARG296      0.2205
    106  NE         9.8190   22.6160   -5.7810 N.pl3 296  ARG296     -0.0865
    107  CZ        11.1200   22.8240   -5.6240 C.cat 296  ARG296      0.5346
    108  NH1       11.6770   23.9680   -6.0260 N.pl3 296  ARG296      0.1354
    109  NH2       11.8740   21.9060   -5.0330 N.pl3 296  ARG296      0.1354
    110  N          6.5150   25.1060  -14.0530 N.3   298  LYS298     -0.1231
    111  CA         5.9380   24.4350  -15.1930 C.3   298  LYS298      0.1693
    112  C          4.8410   23.4900  -14.6850 C.2   298  LYS298      0.2591
    113  O          3.7620   23.4200  -15.2650 O.2   298  LYS298     -0.2718
    114  CB         7.0450   23.7200  -15.9440 C.3   298  LYS298      0.0285
    115  CG         6.7890   23.5860  -17.4290 C.3   298  LYS298      0.0035
    116  CD         5.9190   22.4040  -17.7890 C.3   298  LYS298      0.0206
    117  CE         6.6280   21.0760  -17.6890 C.3   298  LYS298      0.1093
    118  NZ         6.7020   20.4560  -16.3260 N.3   298  LYS298     -0.1314
    119  N          5.0780   22.8110  -13.5750 N.am  299  ALA299     -0.1980
    120  CA         4.0470   21.9770  -12.9610 C.3   299  ALA299      0.1597
    121  C          2.8810   22.8690  -12.5050 C.2   299  ALA299      0.2287
    122  O          1.7270   22.5270  -12.7440 O.2   299  ALA299     -0.2864
    123  CB         4.6180   21.2380  -11.7640 C.3   299  ALA299      0.0319
@<TRIPOS>BOND
     1   116   117    1
     2   116   115    1
     3   117   118    1
     4   115   114    1
     5   114   111    1
     6    98    96    1
     7    97    96    1
     8   113   112    2
     9   111   112    1
    10   111   110    1
    11    96    95    2
    12   112   119   am
    13    78    77   ar
    14    95    94    1
    15    93    94    1
    16    93    92    1
    17   119   120    1
    18    77    76    1
    19    77    79   ar
    20    89    88    1
    21    89    92    1
    22    89    90    1
    23   120   121    1
    24   120   123    1
    25    76    73    1
    26   122   121    2
    27    91    90    2
    28    73    74    1
    29    73    72    1
    30    75    74    2
    31    90    99   am
    32    58    57    2
    33    57    56    1
    34    74    80   am
    35    59    56    1
    36    59    60    1
    37    99   100    1
    38   101   102    2
    39   101   100    1
    40    56    55    1
    41    80    81    1
    42   100   103    1
    43    60    61    1
    44    83    82    2
    45    81    82    1
    46    81    84    1
    47    87    85    1
    48   103   104    1
    49    61    62    1
    50    84    85    1
    51    85    86    1
    52    42    40   ar
    53    42    43   ar
    54    40    37   ar
    55   104   105    1
    56    21    20    1
    57    34    35    1
    58    34    31    1
    59    28    27    1
    60    43    41   ar
    61    37    35   ar
    62    37    39   ar
    63    35    36   ar
    64    41    39   ar
    65    39    38   ar
    66    20    22    1
    67    20    19    2
    68    15    14    2
    69    31    30    1
    70    31    32    1
    71    18    19    1
    72    18    17    1
    73    36    38   ar
    74     8    10   ar
    75     8     6   ar
    76    30    25   am
    77   105   106    1
    78    27    29    1
    79    27    24    1
    80    10    11   ar
    81     5     6    1
    82     5     2    1
    83   108   107    1
    84    16    17    1
    85    16    13    1
    86     1     2    1
    87   106   107    2
    88    33    32    2
    89    14    13    1
    90     6     7   ar
    91     3     2    1
    92     3     4    2
    93   107   109    1
    94    25    24    1
    95    25    26    2
    96    13    12    1
    97    23    24    1
    98    11     9   ar
    99     7     9   ar
   100    70    69   ar
   101    47    46    2
   102    69    71   ar
   103    69    68    1
   104    68    67    1
   105    66    65    2
   106    44    45    1
   107    46    45    1
   108    67    64    1
   109    64    65    1
   110    64    63    1
   111    45    48    1
   112    48    49    1
   113    51    49   ar
   114    51    53   ar
   115    49    50   ar
   116    53    54   ar
   117    50    52   ar
   118    54    52   ar
