@<TRIPOS>MOLECULE
tmp/6ce0B09.pdb
 93 91 0 0 0
SMALL
GASTEIGER

@<TRIPOS>ATOM
      1  N        -10.3770   50.0140   13.2410 N.3   162  GLU162     -0.1231
      2  CA       -10.6990   48.9590   12.2860 C.3   162  GLU162      0.1684
      3  C        -10.0250   49.2340   10.9450 C.2   162  GLU162      0.2434
      4  O        -10.2120   50.3180   10.3800 O.2   162  GLU162     -0.2733
      5  CB       -12.2100   48.8370   12.1060 C.3   162  GLU162      0.0402
      6  CG       -12.9310   50.1490   11.8280 C.3   162  GLU162      0.1161
      7  CD       -14.3930   49.9490   11.4800 C.2   162  GLU162      0.3649
      8  OE1      -14.8490   48.7860   11.4720 O.co2 162  GLU162     -0.2457
      9  OE2      -15.0860   50.9530   11.2120 O.co2 162  GLU162     -0.2457
     10  N         -9.2310   48.3040   10.4160 N.am  163  PRO163     -0.2729
     11  CA        -8.6420   48.5090    9.0860 C.3   163  PRO163      0.1401
     12  C         -9.6930   48.3410    7.9980 C.2   163  PRO163      0.2269
     13  O        -10.4540   47.3710    7.9950 O.2   163  PRO163     -0.2865
     14  CB        -7.5620   47.4220    8.9990 C.3   163  PRO163      0.0296
     15  CG        -7.3630   46.9400   10.4090 C.3   163  PRO163      0.0237
     16  CD        -8.6890   47.1080   11.0770 C.3   163  PRO163      0.0939
     17  N         -3.8250   46.0310    8.3310 N.3   205  VAL205     -0.1245
     18  CA        -3.8790   45.2130    9.5400 C.3   205  VAL205      0.1561
     19  C         -2.4740   45.1810   10.1340 C.2   205  VAL205      0.2260
     20  O         -1.5920   44.4780    9.6380 O.2   205  VAL205     -0.2867
     21  CB        -4.4040   43.8050    9.2540 C.3   205  VAL205      0.0252
     22  CG1       -4.3820   42.9690   10.5230 C.3   205  VAL205      0.0019
     23  CG2       -5.8100   43.8700    8.6770 C.3   205  VAL205      0.0019
     24  N         -2.8770   38.7520    9.4110 N.3   212  LEU212     -0.1231
     25  CA        -4.3160   38.6300    9.5760 C.3   212  LEU212      0.1693
     26  C         -5.0530   39.3600    8.4620 C.2   212  LEU212      0.2592
     27  O         -4.5960   40.3950    7.9670 O.2   212  LEU212     -0.2718
     28  CB        -4.7530   39.1940   10.9290 C.3   212  LEU212      0.0284
     29  CG        -4.1010   38.5650   12.1580 C.3   212  LEU212      0.0019
     30  CD1       -4.1280   39.5350   13.3250 C.3   212  LEU212      0.0001
     31  CD2       -4.8070   37.2690   12.5200 C.3   212  LEU212      0.0001
     32  N         -6.2000   38.8010    8.0710 N.am  213  ASN213     -0.1974
     33  CA        -7.1390   39.4650    7.1700 C.3   213  ASN213      0.1688
     34  C         -6.4980   39.8350    5.8340 C.2   213  ASN213      0.2292
     35  O         -6.9010   40.8040    5.1870 O.2   213  ASN213     -0.2864
     36  CB        -7.7430   40.7060    7.8350 C.3   213  ASN213      0.1181
     37  CG        -8.7190   40.3560    8.9410 C.2   213  ASN213      0.2629
     38  OD1       -8.9480   39.1810    9.2330 O.2   213  ASN213     -0.2716
     39  ND2       -9.2970   41.3770    9.5680 N.am  213  ASN213     -0.0877
     40  N         -1.6450   42.4650   18.1060 N.3   325  PHE325     -0.1227
     41  CA        -2.6290   42.8720   17.1120 C.3   325  PHE325      0.1736
     42  C         -3.7020   43.7030   17.8040 C.2   325  PHE325      0.2595
     43  O         -3.6550   43.9390   19.0140 O.2   325  PHE325     -0.2718
     44  CB        -3.2350   41.6620   16.3940 C.3   325  PHE325      0.0547
     45  CG        -4.0780   40.7860   17.2760 C.ar  325  PHE325     -0.0202
     46  CD1       -3.4920   39.8270   18.0850 C.ar  325  PHE325     -0.0042
     47  CD2       -5.4580   40.9140   17.2880 C.ar  325  PHE325     -0.0042
     48  CE1       -4.2650   39.0160   18.8950 C.ar  325  PHE325     -0.0003
     49  CE2       -6.2370   40.1070   18.0960 C.ar  325  PHE325     -0.0003
     50  CZ        -5.6400   39.1560   18.9000 C.ar  325  PHE325     -0.0000
     51  N         -4.6750   44.1460   17.0130 N.am  326  ASN326     -0.1960
     52  CA        -5.7830   44.9570   17.4880 C.3   326  ASN326      0.1819
     53  C         -7.0920   44.2160   17.2540 C.2   326  ASN326      0.2621
     54  O         -7.2090   43.4090   16.3280 O.2   326  ASN326     -0.2715
     55  CB        -5.8090   46.3230   16.7800 C.3   326  ASN326      0.1195
     56  CG        -6.9930   47.1820   17.1950 C.2   326  ASN326      0.2630
     57  OD1       -8.0230   47.2090   16.5190 O.2   326  ASN326     -0.2716
     58  ND2       -6.8470   47.8960   18.3060 N.am  326  ASN326     -0.0877
     59  N         -8.0700   44.4820   18.1220 N.am  327  CYS327     -0.1968
     60  CA        -9.4170   43.9390   17.9790 C.3   327  CYS327      0.1712
     61  C        -10.3690   44.6400   18.9440 C.2   327  CYS327      0.2296
     62  O        -10.1560   44.6100   20.1610 O.2   327  CYS327     -0.2864
     63  CB        -9.4220   42.4200   18.2090 C.3   327  CYS327      0.0983
     64  SG       -10.9620   41.7590   18.9170 S.3   327  CYS327     -0.0798
     65  N        -13.8240   38.6800   18.4960 N.3   383  CYS383     -0.1221
     66  CA       -13.5010   38.9090   17.0960 C.3   383  CYS383      0.1808
     67  C        -13.1080   37.5960   16.4340 C.2   383  CYS383      0.2601
     68  O        -12.5300   36.7090   17.0670 O.2   383  CYS383     -0.2717
     69  CB       -12.3620   39.9350   16.9300 C.3   383  CYS383      0.0970
     70  SG       -11.0790   39.8580   18.2080 S.3   383  CYS383     -0.0800
     71  N        -13.4360   37.4820   15.1480 N.am  384  GLN384     -0.1965
     72  CA       -13.0700   36.3350   14.3250 C.3   384  GLN384      0.1733
     73  C        -12.3170   36.8430   13.1050 C.2   384  GLN384      0.2617
     74  O        -12.8900   37.5590   12.2780 O.2   384  GLN384     -0.2715
     75  CB       -14.3060   35.5450   13.8880 C.3   384  GLN384      0.0408
     76  CG       -15.1380   34.9770   15.0200 C.3   384  GLN384      0.0908
     77  CD       -16.4000   34.3030   14.5170 C.2   384  GLN384      0.2608
     78  OE1      -16.9860   34.7240   13.5200 O.2   384  GLN384     -0.2717
     79  NE2      -16.8190   33.2450   15.2010 N.am  384  GLN384     -0.0878
     80  N        -11.0470   36.4700   12.9870 N.am  385  SER385     -0.1936
     81  CA       -10.2040   36.9360   11.8980 C.3   385  SER385      0.2055
     82  C         -9.7030   35.7600   11.0700 C.2   385  SER385      0.2643
     83  O         -9.6590   34.6170   11.5320 O.2   385  SER385     -0.2714
     84  CB        -9.0130   37.7470   12.4260 C.3   385  SER385      0.2130
     85  OG        -9.4500   38.9290   13.0740 O.3   385  SER385     -0.2179
     86  N         -9.3240   36.0600    9.8290 N.am  386  ASN386     -0.1971
     87  CA        -8.7520   35.0730    8.9160 C.3   386  ASN386      0.1688
     88  C         -7.2420   35.2720    8.8920 C.2   386  ASN386      0.2292
     89  O         -6.7370   36.1870    8.2350 O.2   386  ASN386     -0.2864
     90  CB        -9.3370   35.2100    7.5140 C.3   386  ASN386      0.1181
     91  CG       -10.8470   35.0900    7.4870 C.2   386  ASN386      0.2629
     92  OD1      -11.5410   35.5530    8.3920 O.2   386  ASN386     -0.2716
     93  ND2      -11.3620   34.4630    6.4370 N.am  386  ASN386     -0.0877
@<TRIPOS>BOND
     1    35    34    2
     2    34    33    1
     3    93    91   am
     4    33    36    1
     5    33    32    1
     6    91    90    1
     7    91    92    2
     8    90    87    1
     9    36    37    1
    10    27    26    2
    11    13    12    2
    12    12    11    1
    13    32    26   am
    14    89    88    2
    15    17    18    1
    16    26    25    1
    17    23    21    1
    18    88    87    1
    19    87    86    1
    20    37    38    2
    21    37    39   am
    22    14    11    1
    23    14    15    1
    24    11    10    1
    25    21    18    1
    26    21    22    1
    27    24    25    1
    28    18    19    1
    29    25    28    1
    30    20    19    2
    31    86    82   am
    32     4     3    2
    33    15    16    1
    34    10     3   am
    35    10    16    1
    36    28    29    1
    37     3     2    1
    38    82    83    2
    39    82    81    1
    40     9     7   ar
    41     8     7   ar
    42     7     6    1
    43     6     5    1
    44    81    84    1
    45    81    80    1
    46     5     2    1
    47    29    31    1
    48    29    30    1
    49    74    73    2
    50     2     1    1
    51    84    85    1
    52    80    73   am
    53    73    72    1
    54    78    77    2
    55    75    72    1
    56    75    76    1
    57    72    71    1
    58    77    76    1
    59    77    79   am
    60    71    67   am
    61    54    53    2
    62    44    41    1
    63    44    45    1
    64    67    68    2
    65    67    66    1
    66    57    56    2
    67    55    56    1
    68    55    52    1
    69    69    66    1
    70    69    70    1
    71    51    52    1
    72    51    42   am
    73    66    65    1
    74    41    42    1
    75    41    40    1
    76    56    58   am
    77    53    52    1
    78    53    59   am
    79    45    47   ar
    80    45    46   ar
    81    47    49   ar
    82    42    43    2
    83    60    59    1
    84    60    63    1
    85    60    61    1
    86    46    48   ar
    87    49    50   ar
    88    70    64    1
    89    63    64    1
    90    48    50   ar
    91    61    62    2
