@<TRIPOS>MOLECULE
tmp/6ce2A01.pdb
 126 118 0 0 0
SMALL
GASTEIGER

@<TRIPOS>ATOM
      1  N         10.5200   -6.2350   16.5670 N.3     2  LEU2       -0.1245
      2  CA         9.6340   -5.5330   17.4900 C.3     2  LEU2        0.1561
      3  C          9.0500   -6.4740   18.5350 C.2     2  LEU2        0.2260
      4  O          8.8340   -6.0700   19.6840 O.2     2  LEU2       -0.2867
      5  CB         8.5090   -4.8530   16.7110 C.3     2  LEU2        0.0270
      6  CG         8.6770   -3.3590   16.4500 C.3     2  LEU2        0.0019
      7  CD1        7.4540   -2.8000   15.7420 C.3     2  LEU2        0.0001
      8  CD2        8.9190   -2.6410   17.7630 C.3     2  LEU2        0.0001
      9  N         11.7660   -7.1230   21.1990 N.3     5  LEU5       -0.1245
     10  CA        12.0410   -5.8950   21.9370 C.3     5  LEU5        0.1561
     11  C         10.9340   -5.5960   22.9420 C.2     5  LEU5        0.2260
     12  O         11.2040   -5.3000   24.1130 O.2     5  LEU5       -0.2867
     13  CB        12.2140   -4.7290   20.9630 C.3     5  LEU5        0.0270
     14  CG        12.2790   -3.3420   21.5990 C.3     5  LEU5        0.0019
     15  CD1       13.4960   -3.2450   22.4930 C.3     5  LEU5        0.0001
     16  CD2       12.3040   -2.2570   20.5350 C.3     5  LEU5        0.0001
     17  N          4.1880   -0.7110   24.6740 N.3    18  VAL18      -0.1245
     18  CA         3.6420    0.2830   23.7560 C.3    18  VAL18       0.1561
     19  C          2.9580    1.4180   24.5110 C.2    18  VAL18       0.2260
     20  O          3.1510    2.5960   24.1890 O.2    18  VAL18      -0.2867
     21  CB         2.6700   -0.3810   22.7800 C.3    18  VAL18       0.0252
     22  CG1        2.0670    0.6260   21.8070 C.3    18  VAL18       0.0019
     23  CG2        3.4330   -1.4320   21.9700 C.3    18  VAL18       0.0019
     24  N          5.8290    3.6120   23.9540 N.3    22  GLY22      -0.1225
     25  CA         5.6300    3.8050   22.5290 C.3    22  GLY22       0.1811
     26  C          5.8370    5.2310   22.0640 C.2    22  GLY22       0.2280
     27  O          6.0670    5.4600   20.8720 O.2    22  GLY22      -0.2866
     28  N         12.8210   10.0610   22.3990 N.3    27  ASN27      -0.1240
     29  CA        13.5680    8.9390   21.8470 C.3    27  ASN27       0.1653
     30  C         12.8870    7.5850   21.9870 C.2    27  ASN27       0.2266
     31  O         13.2680    6.6570   21.2630 O.2    27  ASN27      -0.2867
     32  CB        14.9590    8.8590   22.4970 C.3    27  ASN27       0.1155
     33  CG        15.7840   10.1160   22.2720 C.2    27  ASN27       0.2627
     34  OD1       16.4300   10.2710   21.2360 O.2    27  ASN27      -0.2716
     35  ND2       15.7670   11.0210   23.2460 N.am   27  ASN27      -0.0877
     36  N         10.2080    4.7510   21.4220 N.3    29  GLY29      -0.1210
     37  CA         9.1480    4.3500   20.5200 C.3    29  GLY29       0.1956
     38  C          9.2130    5.0040   19.1560 C.2    29  GLY29       0.2612
     39  O         10.0480    4.6350   18.3240 O.2    29  GLY29      -0.2717
     40  N          8.3250    5.9760   18.9290 N.am   30  VAL30      -0.1965
     41  CA         8.1640    6.6820   17.6590 C.3    30  VAL30       0.1727
     42  C          9.5150    7.0440   17.0530 C.2    30  VAL30       0.2616
     43  O         10.4190    7.5030   17.7590 O.2    30  VAL30      -0.2715
     44  CB         7.2950    7.9380   17.8580 C.3    30  VAL30       0.0290
     45  CG1        7.2160    8.7540   16.5750 C.3    30  VAL30       0.0023
     46  CG2        5.9050    7.5470   18.3460 C.3    30  VAL30       0.0023
     47  N          9.6520    6.8280   15.7400 N.am   31  LEU31      -0.1963
     48  CA        10.9080    7.0620   15.0340 C.3    31  LEU31       0.1728
     49  C         11.4650    8.4440   15.3410 C.2    31  LEU31       0.2617
     50  O         10.7220    9.4230   15.4490 O.2    31  LEU31      -0.2715
     51  CB        10.6950    6.9100   13.5210 C.3    31  LEU31       0.0311
     52  CG        11.8210    7.2810   12.5410 C.3    31  LEU31       0.0022
     53  CD1       11.7120    6.4420   11.2790 C.3    31  LEU31       0.0001
     54  CD2       11.8260    8.7650   12.1690 C.3    31  LEU31       0.0001
     55  N         12.7860    8.5200   15.4670 N.am   32  GLY32      -0.1940
     56  CA        13.4460    9.7970   15.6420 C.3    32  GLY32       0.2014
     57  C         14.2250    9.9110   16.9340 C.2    32  GLY32       0.2638
     58  O         13.9270    9.2220   17.9150 O.2    32  GLY32      -0.2714
     59  N         15.2290   10.7810   16.9420 N.am   33  ARG33      -0.1977
     60  CA        16.0420   11.0320   18.1190 C.3    33  ARG33       0.1597
     61  C         15.9840   12.5090   18.4830 C.2    33  ARG33       0.2287
     62  O         15.6200   13.3610   17.6670 O.2    33  ARG33      -0.2864
     63  CB        17.4990   10.6020   17.8950 C.3    33  ARG33       0.0334
     64  CG        17.7070    9.0960   17.9070 C.3    33  ARG33       0.0492
     65  CD        19.1800    8.7300   17.7770 C.3    33  ARG33       0.2205
     66  NE        19.8280    9.4280   16.6700 N.pl3  33  ARG33      -0.0865
     67  CZ        19.7060    9.0830   15.3920 C.cat  33  ARG33       0.5346
     68  NH1       18.9580    8.0440   15.0480 N.pl3  33  ARG33       0.1354
     69  NH2       20.3360    9.7790   14.4550 N.pl3  33  ARG33       0.1354
     70  N         19.6900    3.3660   22.8080 N.3    47  HIS47      -0.1226
     71  CA        19.1710    2.2280   22.0560 C.3    47  HIS47       0.1752
     72  C         19.1320    2.5160   20.5610 C.2    47  HIS47       0.2595
     73  O         19.5140    1.6670   19.7460 O.2    47  HIS47      -0.2718
     74  CB        17.7770    1.8750   22.5710 C.3    47  HIS47       0.0759
     75  CG        17.1680    0.6760   21.9140 C.ar   47  HIS47       0.0818
     76  ND1       17.7830   -0.5570   21.8980 N.ar   47  HIS47      -0.2268
     77  CD2       15.9910    0.5180   21.2640 C.ar   47  HIS47       0.1154
     78  CE1       17.0130   -1.4210   21.2620 C.ar   47  HIS47       0.1986
     79  NE2       15.9210   -0.7940   20.8650 N.ar   47  HIS47      -0.2212
     80  N         18.6670    3.7070   20.1780 N.am   48  LYS48      -0.1980
     81  CA        18.5970    4.0350   18.7600 C.3    48  LYS48       0.1596
     82  C         19.9820    4.2420   18.1620 C.2    48  LYS48       0.2287
     83  O         20.1890    3.9470   16.9780 O.2    48  LYS48      -0.2864
     84  CB        17.7210    5.2680   18.5450 C.3    48  LYS48       0.0298
     85  CG        16.2900    4.9190   18.1730 C.3    48  LYS48       0.0038
     86  CD        15.3040    5.9780   18.6320 C.3    48  LYS48       0.0206
     87  CE        13.8910    5.6220   18.1950 C.3    48  LYS48       0.1093
     88  NZ        12.9160    6.7040   18.4960 N.3    48  LYS48      -0.1314
     89  N         21.1300    0.7270   17.3700 N.3    51  TYR51      -0.1241
     90  CA        20.5710    0.1930   16.1300 C.3    51  TYR51       0.1605
     91  C         21.3160    0.7110   14.9060 C.2    51  TYR51       0.2264
     92  O         21.5160   -0.0260   13.9330 O.2    51  TYR51      -0.2867
     93  CB        19.0910    0.5630   16.0250 C.3    51  TYR51       0.0534
     94  CG        18.1310   -0.4000   16.6860 C.ar   51  TYR51      -0.0201
     95  CD1       18.5700   -1.3310   17.6160 C.ar   51  TYR51      -0.0009
     96  CD2       16.7770   -0.3720   16.3760 C.ar   51  TYR51      -0.0009
     97  CE1       17.6840   -2.2080   18.2190 C.ar   51  TYR51       0.0417
     98  CE2       15.8860   -1.2420   16.9730 C.ar   51  TYR51       0.0417
     99  CZ        16.3420   -2.1590   17.8930 C.ar   51  TYR51       0.1957
    100  OH        15.4500   -3.0250   18.4840 O.3    51  TYR51      -0.2866
    101  N         17.8260   -6.4020    9.7120 N.3    58  ASN58      -0.1240
    102  CA        16.7490   -5.4350    9.8620 C.3    58  ASN58       0.1653
    103  C         16.2480   -5.4640   11.2970 C.2    58  ASN58       0.2266
    104  O         15.5860   -6.4370   11.6900 O.2    58  ASN58      -0.2867
    105  CB        15.6080   -5.7370    8.8920 C.3    58  ASN58       0.1155
    106  CG        14.6100   -4.5950    8.7900 C.2    58  ASN58       0.2627
    107  OD1       14.0170   -4.1780    9.7860 O.2    58  ASN58      -0.2716
    108  ND2       14.4210   -4.0830    7.5800 N.am   58  ASN58      -0.0877
    109  N         13.8200   -4.0130   12.8980 N.3    60  LYS60      -0.1231
    110  CA        12.3790   -4.0140   13.1160 C.3    60  LYS60       0.1693
    111  C         11.7350   -5.3460   12.7460 C.2    60  LYS60       0.2591
    112  O         10.7570   -5.7530   13.3850 O.2    60  LYS60      -0.2718
    113  CB        11.7400   -2.8710   12.3210 C.3    60  LYS60       0.0285
    114  CG        10.2230   -2.9180   12.2370 C.3    60  LYS60       0.0035
    115  CD         9.6580   -1.6190   11.6830 C.3    60  LYS60       0.0206
    116  CE        10.0650   -1.4070   10.2320 C.3    60  LYS60       0.1093
    117  NZ         9.8090   -2.6110    9.3930 N.3    60  LYS60      -0.1314
    118  N         12.2700   -6.0490   11.7480 N.am   61  LYS61      -0.1980
    119  CA        11.6030   -7.2180   11.1900 C.3    61  LYS61       0.1596
    120  C         12.2470   -8.5490   11.5500 C.2    61  LYS61       0.2287
    121  O         11.5350   -9.5490   11.6530 O.2    61  LYS61      -0.2864
    122  CB        11.5380   -7.1060    9.6610 C.3    61  LYS61       0.0298
    123  CG        10.7380   -5.9080    9.1640 C.3    61  LYS61       0.0038
    124  CD        10.5180   -5.9050    7.6660 C.3    61  LYS61       0.0206
    125  CE         9.4530   -6.8840    7.1920 C.3    61  LYS61       0.1093
    126  NZ         8.0880   -6.5880    7.6630 N.3    61  LYS61      -0.1314
@<TRIPOS>BOND
     1   125   126    1
     2   125   124    1
     3   108   106   am
     4   124   123    1
     5   106   105    1
     6   106   107    2
     7   105   102    1
     8   123   122    1
     9   117   116    1
    10   122   119    1
    11   101   102    1
    12   102   103    1
    13   116   115    1
    14   119   120    1
    15   119   118    1
    16    53    52    1
    17   103   104    2
    18   120   121    2
    19   115   114    1
    20   118   111   am
    21    54    52    1
    22   114   113    1
    23   113   110    1
    24    52    51    1
    25   111   110    1
    26   111   112    2
    27   109   110    1
    28    51    48    1
    29    92    91    2
    30    69    67    1
    31    91    90    1
    32    48    49    1
    33    48    47    1
    34    68    67    1
    35    49    50    2
    36    49    55   am
    37    67    66    2
    38    55    56    1
    39    56    57    1
    40    47    42   am
    41     7     6    1
    42    93    90    1
    43    93    94    1
    44    90    89    1
    45    96    94   ar
    46    96    98   ar
    47     6     5    1
    48     6     8    1
    49     1     2    1
    50    45    44    1
    51    66    65    1
    52    94    95   ar
    53     5     2    1
    54    57    59   am
    55    57    58    2
    56    59    60    1
    57    98    99   ar
    58    83    82    2
    59    42    41    1
    60    42    43    2
    61     2     3    1
    62    95    97   ar
    63    41    44    1
    64    41    40    1
    65    62    61    2
    66    65    64    1
    67    44    46    1
    68    99    97   ar
    69    99   100    1
    70    63    64    1
    71    63    60    1
    72    60    61    1
    73    82    81    1
    74    85    84    1
    75    85    86    1
    76    87    88    1
    77    87    86    1
    78    39    38    2
    79     3     4    2
    80    84    81    1
    81    81    80    1
    82    40    38   am
    83    38    37    1
    84    73    72    2
    85    80    72   am
    86    37    36    1
    87    16    14    1
    88    72    71    1
    89    79    78   ar
    90    79    77   ar
    91    27    26    2
    92    13    14    1
    93    13    10    1
    94     9    10    1
    95    34    33    2
    96    78    76   ar
    97    31    30    2
    98    77    75   ar
    99    14    15    1
   100    22    21    1
   101    29    30    1
   102    29    28    1
   103    29    32    1
   104    76    75   ar
   105    75    74    1
   106    10    11    1
   107    23    21    1
   108    71    74    1
   109    71    70    1
   110    26    25    1
   111    33    32    1
   112    33    35   am
   113    25    24    1
   114    21    18    1
   115    11    12    2
   116    18    19    1
   117    18    17    1
   118    20    19    2
