@<TRIPOS>MOLECULE
tmp/6ce2B00.pdb
 105 105 0 0 0
SMALL
GASTEIGER

@<TRIPOS>ATOM
      1  N          4.8560   12.5650   13.1630 N.3     3  VAL3       -0.1231
      2  CA         4.4680   13.7770   13.8800 C.3     3  VAL3        0.1692
      3  C          3.2430   14.4100   13.2310 C.2     3  VAL3        0.2591
      4  O          2.2920   14.8050   13.9180 O.2     3  VAL3       -0.2718
      5  CB         5.6500   14.7620   13.9450 C.3     3  VAL3        0.0266
      6  CG1        5.2130   16.0750   14.5770 C.3     3  VAL3        0.0020
      7  CG2        6.8090   14.1480   14.7220 C.3     3  VAL3        0.0020
      8  N          3.2350   14.5000   11.9010 N.am    4  GLU4       -0.1979
      9  CA         2.0810   15.0510   11.2000 C.3     4  GLU4        0.1602
     10  C          0.9620   14.0220   11.0870 C.2     4  GLU4        0.2287
     11  O         -0.2070   14.3340   11.3410 O.2     4  GLU4       -0.2864
     12  CB         2.4900   15.5380    9.8090 C.3     4  GLU4        0.0415
     13  CG         3.4570   16.7130    9.7980 C.3     4  GLU4        0.1163
     14  CD         4.8970   16.2930   10.0310 C.2     4  GLU4        0.3649
     15  OE1        5.1870   15.0790    9.9630 O.co2   4  GLU4       -0.2457
     16  OE2        5.7410   17.1790   10.2790 O.co2   4  GLU4       -0.2457
     17  N         -0.6820   13.2840   14.3830 N.3     7  LYS7       -0.1245
     18  CA        -1.4820   14.4280   14.8040 C.3     7  LYS7        0.1561
     19  C         -2.8030   14.4860   14.0500 C.2     7  LYS7        0.2260
     20  O         -3.8460   14.7840   14.6400 O.2     7  LYS7       -0.2867
     21  CB        -0.7070   15.7260   14.6060 C.3     7  LYS7        0.0271
     22  CG        -1.3280   16.8760   15.3540 C.3     7  LYS7        0.0035
     23  CD        -0.4590   18.1040   15.3410 C.3     7  LYS7        0.0206
     24  CE        -1.2590   19.2670   15.8670 C.3     7  LYS7        0.1093
     25  NZ        -0.4210   20.4050   16.3150 N.3     7  LYS7       -0.1314
     26  N         -5.1040   11.8970   15.5020 N.3    10  LEU10      -0.1231
     27  CA        -5.6150   12.3990   16.7750 C.3    10  LEU10       0.1693
     28  C         -6.7130   13.4280   16.5490 C.2    10  LEU10       0.2591
     29  O         -7.7630   13.3920   17.2010 O.2    10  LEU10      -0.2718
     30  CB        -4.4710   13.0070   17.5890 C.3    10  LEU10       0.0284
     31  CG        -4.8130   13.6520   18.9340 C.3    10  LEU10       0.0019
     32  CD1       -5.2830   12.6080   19.9320 C.3    10  LEU10       0.0001
     33  CD2       -3.6170   14.4230   19.4760 C.3    10  LEU10       0.0001
     34  N         -6.4840   14.3490   15.6140 N.am   11  GLN11      -0.1979
     35  CA        -7.4340   15.4280   15.3770 C.3    11  GLN11       0.1601
     36  C         -8.7450   14.9030   14.8020 C.2    11  GLN11       0.2287
     37  O         -9.8220   15.3980   15.1530 O.2    11  GLN11      -0.2864
     38  CB        -6.8150   16.4640   14.4430 C.3    11  GLN11       0.0394
     39  CG        -5.7540   17.3480   15.0810 C.3    11  GLN11       0.0908
     40  CD        -5.0190   18.1890   14.0580 C.2    11  GLN11       0.2608
     41  OE1       -4.6560   17.7030   12.9890 O.2    11  GLN11      -0.2717
     42  NE2       -4.8070   19.4600   14.3770 N.am   11  GLN11      -0.0878
     43  N          9.2630   16.0960    7.2950 N.3    63  ARG63      -0.1231
     44  CA         8.2630   16.9320    7.9340 C.3    63  ARG63       0.1694
     45  C          7.6160   17.8520    6.9060 C.2    63  ARG63       0.2592
     46  O          8.1780   18.1370    5.8460 O.2    63  ARG63      -0.2718
     47  CB         8.8870   17.7560    9.0620 C.3    63  ARG63       0.0321
     48  CG         9.8130   16.9580    9.9660 C.3    63  ARG63       0.0489
     49  CD         9.0240   16.2270   11.0370 C.3    63  ARG63       0.2205
     50  NE         8.1200   17.1270   11.7460 N.pl3  63  ARG63      -0.0865
     51  CZ         8.3830   17.6650   12.9320 C.cat  63  ARG63       0.5346
     52  NH1        7.5040   18.4750   13.5050 N.pl3  63  ARG63       0.1354
     53  NH2        9.5260   17.3910   13.5470 N.pl3  63  ARG63       0.1354
     54  N          6.4120   18.3060    7.2340 N.am   64  TYR64      -0.1962
     55  CA         5.6720   19.2290    6.3860 C.3    64  TYR64       0.1771
     56  C          4.6740   19.9620    7.2670 C.2    64  TYR64       0.2620
     57  O          4.4050   19.5600    8.4010 O.2    64  TYR64      -0.2715
     58  CB         4.9750   18.4980    5.2320 C.3    64  TYR64       0.0574
     59  CG         3.9660   17.4620    5.6810 C.ar   64  TYR64      -0.0198
     60  CD1        2.6680   17.8290    6.0100 C.ar   64  TYR64      -0.0009
     61  CD2        4.3090   16.1230    5.7760 C.ar   64  TYR64      -0.0009
     62  CE1        1.7430   16.8950    6.4280 C.ar   64  TYR64       0.0417
     63  CE2        3.3870   15.1750    6.1890 C.ar   64  TYR64       0.0417
     64  CZ         2.1060   15.5660    6.5070 C.ar   64  TYR64       0.1957
     65  OH         1.1780   14.6400    6.9230 O.3    64  TYR64      -0.2866
     66  N          4.1200   21.0420    6.7320 N.am   65  SER65      -0.1936
     67  CA         3.2090   21.8780    7.4920 C.3    65  SER65       0.2055
     68  C          1.7800   21.7210    6.9920 C.2    65  SER65       0.2643
     69  O          1.5310   21.3940    5.8280 O.2    65  SER65      -0.2714
     70  CB         3.6200   23.3510    7.4270 C.3    65  SER65       0.2130
     71  OG         3.9170   23.7410    6.1000 O.3    65  SER65      -0.2179
     72  N          0.8470   21.9400    7.9090 N.am   66  TYR66      -0.1959
     73  CA        -0.5730   22.0240    7.6140 C.3    66  TYR66       0.1771
     74  C         -1.2040   22.7860    8.7670 C.2    66  TYR66       0.2620
     75  O         -0.5520   23.0660    9.7760 O.2    66  TYR66      -0.2715
     76  CB        -1.2000   20.6370    7.4270 C.3    66  TYR66       0.0574
     77  CG        -1.4110   19.8630    8.7120 C.ar   66  TYR66      -0.0198
     78  CD1       -0.3870   19.1030    9.2660 C.ar   66  TYR66      -0.0009
     79  CD2       -2.6390   19.8830    9.3640 C.ar   66  TYR66      -0.0009
     80  CE1       -0.5790   18.3910   10.4420 C.ar   66  TYR66       0.0417
     81  CE2       -2.8400   19.1760   10.5370 C.ar   66  TYR66       0.0417
     82  CZ        -1.8100   18.4330   11.0710 C.ar   66  TYR66       0.1957
     83  OH        -2.0200   17.7310   12.2370 O.3    66  TYR66      -0.2866
     84  N         -2.4760   23.1300    8.6140 N.am   67  ASP67      -0.1957
     85  CA        -3.1660   23.8460    9.6710 C.3    67  ASP67       0.1840
     86  C         -4.5760   23.2960    9.8230 C.2    67  ASP67       0.2622
     87  O         -5.0780   22.5460    8.9820 O.2    67  ASP67      -0.2715
     88  CB        -3.1910   25.3550    9.4100 C.3    67  ASP67       0.1450
     89  CG        -3.6210   25.6940    8.0050 C.2    67  ASP67       0.3671
     90  OD1       -2.9770   25.2100    7.0510 O.co2  67  ASP67      -0.2456
     91  OD2       -4.6080   26.4420    7.8560 O.co2  67  ASP67      -0.2456
     92  N         -5.2010   23.6840   10.9220 N.am   68  TRP68      -0.1974
     93  CA        -6.5130   23.2120   11.3410 C.3    68  TRP68       0.1640
     94  C         -7.4360   24.4250   11.2730 C.2    68  TRP68       0.2290
     95  O         -7.3710   25.3120   12.1270 O.2    68  TRP68      -0.2864
     96  CB        -6.4130   22.6030   12.7370 C.3    68  TRP68       0.0576
     97  CG        -7.6630   22.0460   13.3390 C.ar   68  TRP68       0.0006
     98  CD1       -8.5200   22.6890   14.1810 C.ar   68  TRP68       0.0946
     99  CD2       -8.1720   20.7140   13.1870 C.ar   68  TRP68       0.0152
    100  NE1       -9.5430   21.8480   14.5480 N.ar   68  TRP68      -0.2442
    101  CE2       -9.3510   20.6290   13.9530 C.ar   68  TRP68       0.0810
    102  CE3       -7.7520   19.5890   12.4710 C.ar   68  TRP68       0.0012
    103  CZ2      -10.1150   19.4660   14.0210 C.ar   68  TRP68       0.0191
    104  CZ3       -8.5170   18.4390   12.5360 C.ar   68  TRP68       0.0001
    105  CH2       -9.6810   18.3840   13.3080 C.ar   68  TRP68       0.0015
@<TRIPOS>BOND
     1    58    59    1
     2    58    55    1
     3    59    61   ar
     4    59    60   ar
     5    61    63   ar
     6    69    68    2
     7    46    45    2
     8    60    62   ar
     9    71    70    1
    10    63    64   ar
    11    55    54    1
    12    55    56    1
    13    62    64   ar
    14    64    65    1
    15    66    56   am
    16    66    67    1
    17    45    54   am
    18    45    44    1
    19    68    67    1
    20    68    72   am
    21    90    89   ar
    22    56    57    2
    23    43    44    1
    24    70    67    1
    25    76    73    1
    26    76    77    1
    27    73    72    1
    28    73    74    1
    29    91    89   ar
    30    44    47    1
    31    89    88    1
    32    84    74   am
    33    84    85    1
    34    77    78   ar
    35    77    79   ar
    36    74    75    2
    37    87    86    2
    38    47    48    1
    39    78    80   ar
    40    79    81   ar
    41    88    85    1
    42    85    86    1
    43    13    12    1
    44    13    14    1
    45    12     9    1
    46    86    92   am
    47    15    14   ar
    48    48    49    1
    49    14    16   ar
    50    80    82   ar
    51    81    82   ar
    52    92    93    1
    53    49    50    1
    54    82    83    1
    55    10     9    1
    56    10    11    2
    57     9     8    1
    58    94    93    1
    59    94    95    2
    60    93    96    1
    61    50    51    2
    62     8     3   am
    63   102   104   ar
    64   102    99   ar
    65   104   105   ar
    66    96    97    1
    67    51    52    1
    68    51    53    1
    69    41    40    2
    70     1     2    1
    71    99    97   ar
    72    99   101   ar
    73     3     2    1
    74     3     4    2
    75   105   103   ar
    76    97    98   ar
    77     2     5    1
    78     5     6    1
    79     5     7    1
    80   101   103   ar
    81   101   100   ar
    82    19    20    2
    83    19    18    1
    84    40    42   am
    85    40    39    1
    86    98   100   ar
    87    17    18    1
    88    38    39    1
    89    38    35    1
    90    21    18    1
    91    21    22    1
    92    36    37    2
    93    36    35    1
    94    23    22    1
    95    23    24    1
    96    35    34    1
    97    26    27    1
    98    34    28   am
    99    24    25    1
   100    28    27    1
   101    28    29    2
   102    27    30    1
   103    30    31    1
   104    31    33    1
   105    31    32    1
