@<TRIPOS>MOLECULE
tmp/6ce2A00.pdb
 140 134 0 0 0
SMALL
GASTEIGER

@<TRIPOS>ATOM
      1  N         10.5200   -6.2350   16.5670 N.3     2  LEU2       -0.1231
      2  CA         9.6340   -5.5330   17.4900 C.3     2  LEU2        0.1693
      3  C          9.0500   -6.4740   18.5350 C.2     2  LEU2        0.2591
      4  O          8.8340   -6.0700   19.6840 O.2     2  LEU2       -0.2718
      5  CB         8.5090   -4.8530   16.7110 C.3     2  LEU2        0.0284
      6  CG         8.6770   -3.3590   16.4500 C.3     2  LEU2        0.0019
      7  CD1        7.4540   -2.8000   15.7420 C.3     2  LEU2        0.0001
      8  CD2        8.9190   -2.6410   17.7630 C.3     2  LEU2        0.0001
      9  N          8.7920   -7.7270   18.1550 N.am    3  VAL3       -0.1980
     10  CA         8.2010   -8.6910   19.0790 C.3     3  VAL3        0.1595
     11  C          9.1500   -8.9690   20.2380 C.2     3  VAL3        0.2287
     12  O          8.7550   -8.9400   21.4100 O.2     3  VAL3       -0.2864
     13  CB         7.8280   -9.9830   18.3310 C.3     3  VAL3        0.0276
     14  CG1        7.1190  -10.9550   19.2610 C.3     3  VAL3        0.0022
     15  CG2        6.9630   -9.6620   17.1180 C.3     3  VAL3        0.0022
     16  N         11.7660   -7.1230   21.1990 N.3     5  LEU5       -0.1231
     17  CA        12.0410   -5.8950   21.9370 C.3     5  LEU5        0.1693
     18  C         10.9340   -5.5960   22.9420 C.2     5  LEU5        0.2593
     19  O         11.2040   -5.3000   24.1130 O.2     5  LEU5       -0.2718
     20  CB        12.2140   -4.7290   20.9630 C.3     5  LEU5        0.0284
     21  CG        12.2790   -3.3420   21.5990 C.3     5  LEU5        0.0019
     22  CD1       13.4960   -3.2450   22.4930 C.3     5  LEU5        0.0001
     23  CD2       12.3040   -2.2570   20.5350 C.3     5  LEU5        0.0001
     24  N          9.6770   -5.6660   22.5000 N.am    6  GLY6       -0.1942
     25  CA         8.5700   -5.4260   23.4110 C.3     6  GLY6        0.2014
     26  C          8.4740   -6.4700   24.5060 C.2     6  GLY6        0.2638
     27  O          8.1600   -6.1480   25.6560 O.2     6  GLY6       -0.2714
     28  N          8.7440   -7.7340   24.1690 N.am    7  LYS7       -0.1977
     29  CA         8.6990   -8.7890   25.1760 C.3     7  LYS7        0.1596
     30  C          9.7570   -8.5740   26.2520 C.2     7  LYS7        0.2287
     31  O          9.4990   -8.8050   27.4390 O.2     7  LYS7       -0.2864
     32  CB         8.8740  -10.1570   24.5140 C.3     7  LYS7        0.0298
     33  CG         8.7440  -11.3260   25.4770 C.3     7  LYS7        0.0038
     34  CD         8.7700  -12.6620   24.7510 C.3     7  LYS7        0.0206
     35  CE         8.1340  -13.7510   25.6020 C.3     7  LYS7        0.1093
     36  NZ         8.5860  -15.1160   25.2200 N.3     7  LYS7       -0.1314
     37  N         11.0980   -5.6470   27.2390 N.3     9  ILE9       -0.1231
     38  CA        10.7230   -4.5020   28.0650 C.3     9  ILE9        0.1692
     39  C          9.6430   -4.8990   29.0620 C.2     9  ILE9        0.2591
     40  O          9.6560   -4.4700   30.2230 O.2     9  ILE9       -0.2718
     41  CB        10.2750   -3.3320   27.1680 C.3     9  ILE9        0.0266
     42  CG1       11.4560   -2.8190   26.3380 C.3     9  ILE9        0.0019
     43  CG2        9.6630   -2.2090   28.0000 C.3     9  ILE9        0.0020
     44  CD1       11.0950   -1.6930   25.3880 C.3     9  ILE9        0.0001
     45  N          8.6960   -5.7320   28.6290 N.am   10  LEU10      -0.1980
     46  CA         7.6750   -6.2290   29.5440 C.3    10  LEU10       0.1596
     47  C          8.2870   -7.0750   30.6530 C.2    10  LEU10       0.2287
     48  O          7.9150   -6.9370   31.8240 O.2    10  LEU10      -0.2864
     49  CB         6.6310   -7.0310   28.7650 C.3    10  LEU10       0.0297
     50  CG         5.6030   -7.8210   29.5760 C.3    10  LEU10       0.0022
     51  CD1        4.8610   -6.9220   30.5560 C.3    10  LEU10       0.0001
     52  CD2        4.6330   -8.5430   28.6550 C.3    10  LEU10       0.0001
     53  N          4.7990   -2.3020   26.9890 N.3    17  PRO17      -0.2102
     54  CA         5.8390   -1.5240   26.2900 C.3    17  PRO17       0.1504
     55  C          5.2850   -0.4390   25.3830 C.2    17  PRO17       0.2575
     56  O          5.8490    0.6610   25.3270 O.2    17  PRO17      -0.2718
     57  CB         6.6020   -2.5970   25.4980 C.3    17  PRO17       0.0282
     58  CG         5.6460   -3.7430   25.3790 C.3    17  PRO17       0.0208
     59  CD         4.8450   -3.7320   26.6420 C.3    17  PRO17       0.0893
     60  N          4.1880   -0.7110   24.6740 N.am   18  VAL18      -0.1980
     61  CA         3.6420    0.2830   23.7560 C.3    18  VAL18       0.1595
     62  C          2.9580    1.4180   24.5110 C.2    18  VAL18       0.2287
     63  O          3.1510    2.5960   24.1890 O.2    18  VAL18      -0.2864
     64  CB         2.6700   -0.3810   22.7800 C.3    18  VAL18       0.0276
     65  CG1        2.0670    0.6260   21.8070 C.3    18  VAL18       0.0022
     66  CG2        3.4330   -1.4320   21.9700 C.3    18  VAL18       0.0022
     67  N          5.9990    3.1400   26.6790 N.3    21  TYR21      -0.1227
     68  CA         7.1920    3.6310   26.0050 C.3    21  TYR21       0.1736
     69  C          7.0210    3.8470   24.5080 C.2    21  TYR21       0.2596
     70  O          7.9890    4.2350   23.8450 O.2    21  TYR21      -0.2718
     71  CB         8.3680    2.6700   26.2380 C.3    21  TYR21       0.0548
     72  CG         8.6860    2.4460   27.6970 C.ar   21  TYR21      -0.0200
     73  CD1        9.2620    3.4510   28.4630 C.ar   21  TYR21      -0.0009
     74  CD2        8.4030    1.2340   28.3120 C.ar   21  TYR21      -0.0009
     75  CE1        9.5510    3.2540   29.7980 C.ar   21  TYR21       0.0417
     76  CE2        8.6890    1.0280   29.6490 C.ar   21  TYR21       0.0417
     77  CZ         9.2630    2.0420   30.3870 C.ar   21  TYR21       0.1957
     78  OH         9.5520    1.8460   31.7180 O.3    21  TYR21      -0.2866
     79  N          5.8290    3.6120   23.9540 N.am   22  GLY22      -0.1957
     80  CA         5.6300    3.8050   22.5290 C.3    22  GLY22       0.1869
     81  C          5.8370    5.2310   22.0640 C.2    22  GLY22       0.2309
     82  O          6.0670    5.4600   20.8720 O.2    22  GLY22      -0.2863
     83  N         12.8210   10.0610   22.3990 N.3    27  ASN27      -0.1225
     84  CA        13.5680    8.9390   21.8470 C.3    27  ASN27       0.1785
     85  C         12.8870    7.5850   21.9870 C.2    27  ASN27       0.2597
     86  O         13.2680    6.6570   21.2630 O.2    27  ASN27      -0.2718
     87  CB        14.9590    8.8590   22.4970 C.3    27  ASN27       0.1169
     88  CG        15.7840   10.1160   22.2720 C.2    27  ASN27       0.2627
     89  OD1       16.4300   10.2710   21.2360 O.2    27  ASN27      -0.2716
     90  ND2       15.7670   11.0210   23.2460 N.am   27  ASN27      -0.0877
     91  N         11.9040    7.4290   22.8710 N.am   28  CYS28      -0.1956
     92  CA        11.2850    6.1290   23.0970 C.3    28  CYS28       0.1843
     93  C         10.1570    5.8940   22.1010 C.2    28  CYS28       0.2626
     94  O          9.2620    6.7340   21.9510 O.2    28  CYS28      -0.2714
     95  CB        10.7600    6.0180   24.5280 C.3    28  CYS28       0.0997
     96  SG        12.0430    6.0430   25.8010 S.3    28  CYS28      -0.0797
     97  N         10.2080    4.7510   21.4220 N.am   29  GLY29      -0.1954
     98  CA         9.1480    4.3500   20.5200 C.3    29  GLY29       0.1869
     99  C          9.2130    5.0040   19.1560 C.2    29  GLY29       0.2309
    100  O         10.0480    4.6350   18.3240 O.2    29  GLY29      -0.2863
    101  N         16.4140    5.1070   25.6800 N.3    44  CYS44      -0.1235
    102  CA        15.9690    4.9070   24.3060 C.3    44  CYS44       0.1677
    103  C         16.8790    5.6120   23.3070 C.2    44  CYS44       0.2270
    104  O         17.0030    5.1600   22.1640 O.2    44  CYS44      -0.2867
    105  CB        14.5290    5.3940   24.1540 C.3    44  CYS44       0.0956
    106  SG        13.3310    4.5720   25.2470 S.3    44  CYS44      -0.0801
    107  N         19.6900    3.3660   22.8080 N.3    47  HIS47      -0.1226
    108  CA        19.1710    2.2280   22.0560 C.3    47  HIS47       0.1752
    109  C         19.1320    2.5160   20.5610 C.2    47  HIS47       0.2595
    110  O         19.5140    1.6670   19.7460 O.2    47  HIS47      -0.2718
    111  CB        17.7770    1.8750   22.5710 C.3    47  HIS47       0.0759
    112  CG        17.1680    0.6760   21.9140 C.ar   47  HIS47       0.0818
    113  ND1       17.7830   -0.5570   21.8980 N.ar   47  HIS47      -0.2268
    114  CD2       15.9910    0.5180   21.2640 C.ar   47  HIS47       0.1154
    115  CE1       17.0130   -1.4210   21.2620 C.ar   47  HIS47       0.1986
    116  NE2       15.9210   -0.7940   20.8650 N.ar   47  HIS47      -0.2212
    117  N         18.6670    3.7070   20.1780 N.am   48  LYS48      -0.1980
    118  CA        18.5970    4.0350   18.7600 C.3    48  LYS48       0.1596
    119  C         19.9820    4.2420   18.1620 C.2    48  LYS48       0.2287
    120  O         20.1890    3.9470   16.9780 O.2    48  LYS48      -0.2864
    121  CB        17.7210    5.2680   18.5450 C.3    48  LYS48       0.0298
    122  CG        16.2900    4.9190   18.1730 C.3    48  LYS48       0.0038
    123  CD        15.3040    5.9780   18.6320 C.3    48  LYS48       0.0206
    124  CE        13.8910    5.6220   18.1950 C.3    48  LYS48       0.1093
    125  NZ        12.9160    6.7040   18.4960 N.3    48  LYS48      -0.1314
    126  N         18.3430   -2.0070   26.4980 N.3    92  VAL92      -0.1245
    127  CA        17.2990   -0.9940   26.6250 C.3    92  VAL92       0.1561
    128  C         16.2430   -1.4340   27.6330 C.2    92  VAL92       0.2260
    129  O         15.7020   -0.6090   28.3790 O.2    92  VAL92      -0.2867
    130  CB        16.6860   -0.6600   25.2500 C.3    92  VAL92       0.0252
    131  CG1       15.7930   -1.7780   24.7490 C.3    92  VAL92       0.0019
    132  CG2       15.9030    0.6330   25.3330 C.3    92  VAL92       0.0019
    133  N         15.4960    0.7320   31.1160 N.3    96  LEU96      -0.1245
    134  CA        14.1690    1.2390   31.4550 C.3    96  LEU96       0.1561
    135  C         13.7400    0.7650   32.8370 C.2    96  LEU96       0.2260
    136  O         13.1400    1.5260   33.6060 O.2    96  LEU96      -0.2867
    137  CB        13.1520    0.8040   30.4000 C.3    96  LEU96       0.0270
    138  CG        13.3310    1.4090   29.0070 C.3    96  LEU96       0.0019
    139  CD1       12.3210    0.8230   28.0320 C.3    96  LEU96       0.0001
    140  CD2       13.2230    2.9230   29.0560 C.3    96  LEU96       0.0001
@<TRIPOS>BOND
     1     7     6    1
     2     6     5    1
     3     6     8    1
     4     1     2    1
     5     5     2    1
     6   120   119    2
     7    15    13    1
     8     2     3    1
     9     9     3   am
    10     9    10    1
    11   119   118    1
    12   122   121    1
    13   122   123    1
    14   124   125    1
    15   124   123    1
    16   100    99    2
    17    13    10    1
    18    13    14    1
    19     3     4    2
    20   121   118    1
    21   118   117    1
    22    10    11    1
    23    99    98    1
    24   110   109    2
    25   117   109   am
    26    11    12    2
    27    98    97    1
    28    23    21    1
    29   109   108    1
    30   116   115   ar
    31   116   114   ar
    32    82    81    2
    33    20    21    1
    34    20    17    1
    35    16    17    1
    36    89    88    2
    37   115   113   ar
    38    86    85    2
    39   114   112   ar
    40    97    93   am
    41    21    22    1
    42    65    64    1
    43    84    85    1
    44    84    83    1
    45    84    87    1
    46   113   112   ar
    47   112   111    1
    48    17    18    1
    49    94    93    2
    50    66    64    1
    51    85    91   am
    52   108   111    1
    53   108   107    1
    54    81    80    1
    55    93    92    1
    56   104   103    2
    57    88    87    1
    58    88    90   am
    59    24    18   am
    60    24    25    1
    61    80    79    1
    62    64    61    1
    63    91    92    1
    64    18    19    2
    65    92    95    1
    66   103   102    1
    67    25    26    1
    68    61    62    1
    69    61    60    1
    70    70    69    2
    71    79    69   am
    72   105   102    1
    73   105   106    1
    74    28    26   am
    75    28    29    1
    76    63    62    2
    77   102   101    1
    78    26    27    2
    79    69    68    1
    80    32    29    1
    81    32    33    1
    82    95    96    1
    83    60    55   am
    84   131   130    1
    85    34    33    1
    86    34    35    1
    87    29    30    1
    88    36    35    1
    89   106    96    1
    90   130   132    1
    91   130   127    1
    92    56    55    2
    93    58    57    1
    94    58    59    1
    95    55    54    1
    96    44    42    1
    97    57    54    1
    98    68    71    1
    99    68    67    1
   100    71    72    1
   101    30    31    2
   102    54    53    1
   103    42    41    1
   104   126   127    1
   105   127   128    1
   106    59    53    1
   107    41    43    1
   108    41    38    1
   109    37    38    1
   110   128   129    2
   111    72    74   ar
   112    72    73   ar
   113   139   138    1
   114    38    39    1
   115    74    76   ar
   116    73    75   ar
   117    45    39   am
   118    45    46    1
   119    52    50    1
   120    49    46    1
   121    49    50    1
   122   138   140    1
   123   138   137    1
   124    39    40    2
   125    46    47    1
   126    50    51    1
   127    76    77   ar
   128    75    77   ar
   129    77    78    1
   130   137   134    1
   131    47    48    2
   132   133   134    1
   133   134   135    1
   134   135   136    2
