@<TRIPOS>MOLECULE
tmp/6ce6A00.pdb
 111 110 0 0 0
SMALL
GASTEIGER

@<TRIPOS>ATOM
      1  N          8.6690    0.2540   12.2440 N.3    36  TRP36      -0.1241
      2  CA         8.3150   -0.9040   11.4300 C.3    36  TRP36       0.1605
      3  C          9.5730   -1.4770   10.8310 C.2    36  TRP36       0.2264
      4  O         10.5300   -0.7520   10.6160 O.2    36  TRP36      -0.2867
      5  CB         7.4140   -0.4310   10.2760 C.3    36  TRP36       0.0550
      6  CG         6.0660    0.0480   10.7380 C.ar   36  TRP36       0.0003
      7  CD1        5.7980    1.1870   11.4040 C.ar   36  TRP36       0.0946
      8  CD2        4.8040   -0.6300   10.5880 C.ar   36  TRP36       0.0152
      9  NE1        4.4660    1.2770   11.6900 N.ar   36  TRP36      -0.2442
     10  CE2        3.8180    0.1830   11.2020 C.ar   36  TRP36       0.0810
     11  CE3        4.4190   -1.8560   10.0400 C.ar   36  TRP36       0.0012
     12  CZ2        2.4730   -0.1800   11.2480 C.ar   36  TRP36       0.0191
     13  CZ3        3.0540   -2.1980   10.0510 C.ar   36  TRP36       0.0001
     14  CH2        2.1090   -1.3530   10.6450 C.ar   36  TRP36       0.0015
     15  N          6.7630    5.0680   11.6470 N.3    47  GLY47      -0.1210
     16  CA         5.4440    5.1750   11.1230 C.3    47  GLY47       0.1956
     17  C          4.9850    6.5660   10.7540 C.2    47  GLY47       0.2612
     18  O          5.6340    7.5820   11.0550 O.2    47  GLY47      -0.2717
     19  N          3.8180    6.6240   10.1630 N.am   48  ARG48      -0.1965
     20  CA         3.2590    7.8480    9.6000 C.3    48  ARG48       0.1729
     21  C          2.9230    8.8950   10.6720 C.2    48  ARG48       0.2616
     22  O          2.9270   10.0630   10.3690 O.2    48  ARG48      -0.2715
     23  CB         1.9820    7.5360    8.7850 C.3    48  ARG48       0.0348
     24  CG         0.8280    6.9440    9.5580 C.3    48  ARG48       0.0492
     25  CD        -0.2320    6.2740    8.6780 C.3    48  ARG48       0.2205
     26  NE        -1.3160    5.7200    9.4990 N.pl3  48  ARG48      -0.0865
     27  CZ        -1.2440    4.6260   10.2830 C.cat  48  ARG48       0.5346
     28  NH1       -2.3090    4.2400   10.9900 N.pl3  48  ARG48       0.1354
     29  NH2       -0.1040    3.9390   10.4310 N.pl3  48  ARG48       0.1354
     30  N          2.6720    8.4850   11.9050 N.am   49  TYR49      -0.1974
     31  CA         2.3660    9.4520   12.9680 C.3    49  TYR49       0.1639
     32  C          3.6160   10.0550   13.6410 C.2    49  TYR49       0.2290
     33  O          3.5040   11.0560   14.3720 O.2    49  TYR49      -0.2864
     34  CB         1.3630    8.8780   14.0010 C.3    49  TYR49       0.0560
     35  CG        -0.0110    8.6410   13.3780 C.ar   49  TYR49      -0.0198
     36  CD1       -0.6560    9.6630   12.6740 C.ar   49  TYR49      -0.0009
     37  CD2       -0.6420    7.4250   13.4820 C.ar   49  TYR49      -0.0009
     38  CE1       -1.8770    9.5060   12.0830 C.ar   49  TYR49       0.0417
     39  CE2       -1.8760    7.2340   12.8810 C.ar   49  TYR49       0.0417
     40  CZ        -2.4980    8.2900   12.1710 C.ar   49  TYR49       0.1957
     41  OH        -3.7120    8.1410   11.5880 O.3    49  TYR49      -0.2866
     42  N          9.0570    5.1060    7.0600 N.3    54  MET54      -0.1230
     43  CA         8.7840    3.8300    6.4000 C.3    54  MET54       0.1702
     44  C          7.9850    4.0640    5.1140 C.2    54  MET54       0.2592
     45  O          8.2860    3.3960    4.1020 O.2    54  MET54      -0.2718
     46  CB         8.1480    2.7810    7.3040 C.3    54  MET54       0.0401
     47  CG         8.0590    1.4070    6.6130 C.3    54  MET54       0.0596
     48  SD         9.6910    0.7530    6.0880 S.3    54  MET54      -0.1393
     49  CE        10.1920   -0.0930    7.6010 C.3    54  MET54       0.0692
     50  N          7.0500    5.0000    5.1180 N.am   55  LEU55      -0.1980
     51  CA         6.3490    5.3750    3.9020 C.3    55  LEU55       0.1596
     52  C          7.3550    5.9040    2.8790 C.2    55  LEU55       0.2287
     53  O          7.2790    5.5260    1.6600 O.2    55  LEU55      -0.2864
     54  CB         5.1860    6.3810    4.1750 C.3    55  LEU55       0.0297
     55  CG         4.4030    6.8990    2.9590 C.3    55  LEU55       0.0022
     56  CD1        3.7240    5.7550    2.2210 C.3    55  LEU55       0.0001
     57  CD2        3.3820    7.9630    3.3510 C.3    55  LEU55       0.0001
     58  N          5.6410   -4.4230    5.3830 N.3    66  VAL66      -0.1245
     59  CA         6.3540   -3.9980    6.5820 C.3    66  VAL66       0.1561
     60  C          5.6330   -4.5580    7.8090 C.2    66  VAL66       0.2260
     61  O          4.4080   -4.7220    7.7830 O.2    66  VAL66      -0.2867
     62  CB         6.4800   -2.4520    6.5930 C.3    66  VAL66       0.0252
     63  CG1        7.3020   -2.0090    5.4040 C.3    66  VAL66       0.0019
     64  CG2        5.1170   -1.7180    6.6040 C.3    66  VAL66       0.0019
     65  N          1.6340   -4.6800    7.0840 N.3    75  TRP75      -0.1241
     66  CA         0.9500   -3.7830    6.1430 C.3    75  TRP75       0.1605
     67  C          1.6120   -3.8750    4.7890 C.2    75  TRP75       0.2264
     68  O          2.8360   -3.8770    4.6690 O.2    75  TRP75      -0.2867
     69  CB         1.0520   -2.3330    6.6150 C.3    75  TRP75       0.0550
     70  CG         0.4090   -1.2960    5.7460 C.ar   75  TRP75       0.0003
     71  CD1        1.0170   -0.4720    4.8420 C.ar   75  TRP75       0.0946
     72  CD2       -0.9830   -0.9770    5.7080 C.ar   75  TRP75       0.0152
     73  NE1        0.0930    0.3660    4.2670 N.ar   75  TRP75      -0.2442
     74  CE2       -1.1490    0.0710    4.7780 C.ar   75  TRP75       0.0810
     75  CE3       -2.1030   -1.4820    6.3830 C.ar   75  TRP75       0.0012
     76  CZ2       -2.4120    0.6550    4.5250 C.ar   75  TRP75       0.0191
     77  CZ3       -3.3770   -0.8960    6.1100 C.ar   75  TRP75       0.0001
     78  CH2       -3.4980    0.1330    5.1780 C.ar   75  TRP75       0.0015
     79  N          1.9400   -1.7140    1.4330 N.3    77  TYR77      -0.1241
     80  CA         1.6940   -0.3390    0.9130 C.3    77  TYR77       0.1605
     81  C          1.0430   -0.2850   -0.4790 C.2    77  TYR77       0.2264
     82  O          0.4650    0.7450   -0.8540 O.2    77  TYR77      -0.2867
     83  CB         2.9980    0.4660    0.8560 C.3    77  TYR77       0.0534
     84  CG         3.5630    0.9270    2.2050 C.ar   77  TYR77      -0.0201
     85  CD1        3.0330    2.0480    2.8790 C.ar   77  TYR77      -0.0009
     86  CD2        4.6020    0.2450    2.8300 C.ar   77  TYR77      -0.0009
     87  CE1        3.5490    2.4690    4.0600 C.ar   77  TYR77       0.0417
     88  CE2        5.1080    0.6770    4.0320 C.ar   77  TYR77       0.0417
     89  CZ         4.5740    1.7960    4.6360 C.ar   77  TYR77       0.1957
     90  OH         5.0740    2.1500    5.8280 O.3    77  TYR77      -0.2866
     91  N         -2.6230   -1.4960    0.3470 N.3    80  GLN80      -0.1245
     92  CA        -3.2080   -0.6180    1.3750 C.3    80  GLN80       0.1566
     93  C         -4.1080   -1.4240    2.2980 C.2    80  GLN80       0.2260
     94  O         -5.2790   -1.0970    2.5200 O.2    80  GLN80      -0.2867
     95  CB        -3.8880    0.6020    0.7660 C.3    80  GLN80       0.0367
     96  CG        -2.9310    1.4380   -0.0100 C.3    80  GLN80       0.0905
     97  CD        -3.6460    2.5880   -0.6330 C.2    80  GLN80       0.2608
     98  OE1       -4.0470    2.5290   -1.7720 O.2    80  GLN80      -0.2717
     99  NE2       -3.8510    3.6060    0.1360 N.am   80  GLN80      -0.0878
    100  N         -3.7490   -4.6280    5.7260 N.3    82  TYR82      -0.1241
    101  CA        -3.0420   -5.6070    6.5070 C.3    82  TYR82       0.1605
    102  C         -3.1930   -6.9870    5.8700 C.2    82  TYR82       0.2264
    103  O         -4.2090   -7.2800    5.2680 O.2    82  TYR82      -0.2867
    104  CB        -3.5640   -5.6430    7.9240 C.3    82  TYR82       0.0534
    105  CG        -3.2410   -4.4000    8.7010 C.ar   82  TYR82      -0.0201
    106  CD1       -1.9420   -4.1630    9.1660 C.ar   82  TYR82      -0.0009
    107  CD2       -4.2430   -3.4600    8.9810 C.ar   82  TYR82      -0.0009
    108  CE1       -1.6700   -3.0130    9.9050 C.ar   82  TYR82       0.0417
    109  CE2       -3.9700   -2.3310    9.7140 C.ar   82  TYR82       0.0417
    110  CZ        -2.6850   -2.1090   10.1420 C.ar   82  TYR82       0.1957
    111  OH        -2.4500   -0.9620   10.8880 O.3    82  TYR82      -0.2866
@<TRIPOS>BOND
     1    98    97    2
     2    82    81    2
     3    97    96    1
     4    97    99   am
     5    81    80    1
     6    96    95    1
     7    91    92    1
     8    95    92    1
     9    83    80    1
    10    83    84    1
    11    80    79    1
    12    92    93    1
    13    53    52    2
    14    84    86   ar
    15    84    85   ar
    16    56    55    1
    17    93    94    2
    18    86    88   ar
    19    85    87   ar
    20    52    51    1
    21    55    57    1
    22    55    54    1
    23    51    54    1
    24    51    50    1
    25    88    89   ar
    26    87    89   ar
    27    45    44    2
    28    73    74   ar
    29    73    71   ar
    30    76    74   ar
    31    76    78   ar
    32    89    90    1
    33    68    67    2
    34    74    72   ar
    35    67    66    1
    36    71    70   ar
    37    44    50   am
    38    44    43    1
    39    78    77   ar
    40   103   102    2
    41    58    59    1
    42    63    62    1
    43    72    70   ar
    44    72    75   ar
    45   100   101    1
    46    70    69    1
    47   102   101    1
    48    48    47    1
    49    48    49    1
    50    77    75   ar
    51    66    69    1
    52    66    65    1
    53    43    42    1
    54    43    46    1
    55   101   104    1
    56    59    62    1
    57    59    60    1
    58    62    64    1
    59    47    46    1
    60    61    60    2
    61   104   105    1
    62    25    26    1
    63    25    24    1
    64   105   107   ar
    65   105   106   ar
    66    23    24    1
    67    23    20    1
    68   107   109   ar
    69   106   108   ar
    70    26    27    2
    71    20    19    1
    72    20    21    1
    73   109   110   ar
    74   108   110   ar
    75    11    13   ar
    76    11     8   ar
    77    13    14   ar
    78   110   111    1
    79    19    17   am
    80     5     6    1
    81     5     2    1
    82    27    29    1
    83    27    28    1
    84    22    21    2
    85     8     6   ar
    86     8    10   ar
    87     4     3    2
    88    14    12   ar
    89    21    30   am
    90     6     7   ar
    91    17    18    2
    92    17    16    1
    93     3     2    1
    94    16    15    1
    95    10    12   ar
    96    10     9   ar
    97     7     9   ar
    98     2     1    1
    99    41    40    1
   100    30    31    1
   101    38    40   ar
   102    38    36   ar
   103    40    39   ar
   104    36    35   ar
   105    39    37   ar
   106    31    32    1
   107    31    34    1
   108    35    37   ar
   109    35    34    1
   110    32    33    2
