@<TRIPOS>MOLECULE
tmp/6ceaA00.pdb
 111 110 0 0 0
SMALL
GASTEIGER

@<TRIPOS>ATOM
      1  N          8.6120    0.4250   12.2910 N.3    35  TRP35      -0.1241
      2  CA         8.2400   -0.7050   11.4730 C.3    35  TRP35       0.1605
      3  C          9.5140   -1.3420   10.9110 C.2    35  TRP35       0.2264
      4  O         10.5110   -0.6730   10.7550 O.2    35  TRP35      -0.2867
      5  CB         7.3340   -0.2060   10.3250 C.3    35  TRP35       0.0550
      6  CG         6.0310    0.3680   10.7800 C.ar   35  TRP35       0.0003
      7  CD1        5.8290    1.5520   11.4550 C.ar   35  TRP35       0.0946
      8  CD2        4.7160   -0.2090   10.5810 C.ar   35  TRP35       0.0152
      9  NE1        4.4990    1.7160   11.7300 N.ar   35  TRP35      -0.2442
     10  CE2        3.7990    0.6590   11.2080 C.ar   35  TRP35       0.0810
     11  CE3        4.2330   -1.4140   10.0370 C.ar   35  TRP35       0.0012
     12  CZ2        2.4440    0.4010   11.2180 C.ar   35  TRP35       0.0191
     13  CZ3        2.9290   -1.6520   10.0390 C.ar   35  TRP35       0.0001
     14  CH2        2.0250   -0.7600   10.6470 C.ar   35  TRP35       0.0015
     15  N          7.0870    5.2850   11.6780 N.3    46  GLY46      -0.1210
     16  CA         5.7920    5.3540   11.0960 C.3    46  GLY46       0.1956
     17  C          5.3600    6.7850   10.7150 C.2    46  GLY46       0.2612
     18  O          6.0110    7.7780   10.9540 O.2    46  GLY46      -0.2717
     19  N          4.2030    6.8600   10.0810 N.am   47  ARG47      -0.1965
     20  CA         3.6610    8.0530    9.5350 C.3    47  ARG47       0.1729
     21  C          3.3720    9.1580   10.5310 C.2    47  ARG47       0.2616
     22  O          3.3700   10.3790   10.1540 O.2    47  ARG47      -0.2715
     23  CB         2.3780    7.7060    8.7220 C.3    47  ARG47       0.0348
     24  CG         1.2160    7.1440    9.5260 C.3    47  ARG47       0.0492
     25  CD         0.2630    6.2660    8.6840 C.3    47  ARG47       0.2205
     26  NE        -0.8130    5.6490    9.4990 N.pl3  47  ARG47      -0.0865
     27  CZ        -0.6660    4.6630   10.3760 C.cat  47  ARG47       0.5346
     28  NH1       -1.7140    4.1850   11.0410 N.pl3  47  ARG47       0.1354
     29  NH2        0.5100    4.0710   10.5530 N.pl3  47  ARG47       0.1354
     30  N          3.1090    8.7900   11.7630 N.am   48  TYR48      -0.1974
     31  CA         2.8230    9.7780   12.8090 C.3    48  TYR48       0.1639
     32  C          4.0800   10.3210   13.4770 C.2    48  TYR48       0.2290
     33  O          3.9920   11.3100   14.2330 O.2    48  TYR48      -0.2864
     34  CB         1.8300    9.2410   13.8420 C.3    48  TYR48       0.0560
     35  CG         0.4720    8.9040   13.2560 C.ar   48  TYR48      -0.0198
     36  CD1       -0.2420    9.8340   12.4450 C.ar   48  TYR48      -0.0009
     37  CD2       -0.0530    7.6960   13.4260 C.ar   48  TYR48      -0.0009
     38  CE1       -1.4520    9.5430   11.8860 C.ar   48  TYR48       0.0417
     39  CE2       -1.2870    7.3640   12.8970 C.ar   48  TYR48       0.0417
     40  CZ        -1.9700    8.2690   12.0850 C.ar   48  TYR48       0.1957
     41  OH        -3.2370    7.8720   11.6300 O.3    48  TYR48      -0.2866
     42  N          9.4040    5.1300    7.0950 N.3    53  MET53      -0.1230
     43  CA         9.0630    3.8580    6.4390 C.3    53  MET53       0.1702
     44  C          8.3010    4.1090    5.1010 C.2    53  MET53       0.2592
     45  O          8.5480    3.4750    4.0700 O.2    53  MET53      -0.2718
     46  CB         8.3220    2.8480    7.3220 C.3    53  MET53       0.0401
     47  CG         8.1990    1.4570    6.6770 C.3    53  MET53       0.0596
     48  SD         9.8050    0.7610    6.1780 S.3    53  MET53      -0.1393
     49  CE        10.1880   -0.1100    7.7340 C.3    53  MET53       0.0692
     50  N          7.3850    5.0510    5.1350 N.am   54  LEU54      -0.1980
     51  CA         6.7640    5.5030    3.8640 C.3    54  LEU54       0.1596
     52  C          7.8110    5.9500    2.8480 C.2    54  LEU54       0.2287
     53  O          7.7570    5.5770    1.6590 O.2    54  LEU54      -0.2864
     54  CB         5.6920    6.5840    4.1230 C.3    54  LEU54       0.0297
     55  CG         4.9700    7.0250    2.8650 C.3    54  LEU54       0.0022
     56  CD1        4.1510    5.9630    2.1510 C.3    54  LEU54       0.0001
     57  CD2        4.1450    8.3040    3.2700 C.3    54  LEU54       0.0001
     58  N          5.4710   -4.1880    5.4250 N.3    65  VAL65      -0.1245
     59  CA         6.1960   -3.8070    6.6270 C.3    65  VAL65       0.1561
     60  C          5.4310   -4.2740    7.8810 C.2    65  VAL65       0.2260
     61  O          4.2100   -4.3950    7.8480 O.2    65  VAL65      -0.2867
     62  CB         6.3950   -2.2670    6.6760 C.3    65  VAL65       0.0252
     63  CG1        7.2570   -1.8420    5.4870 C.3    65  VAL65       0.0019
     64  CG2        5.0620   -1.5190    6.6330 C.3    65  VAL65       0.0019
     65  N          1.4180   -4.2700    7.0510 N.3    74  TRP74      -0.1241
     66  CA         0.7670   -3.3560    6.1000 C.3    74  TRP74       0.1605
     67  C          1.4380   -3.4640    4.7990 C.2    74  TRP74       0.2264
     68  O          2.6580   -3.5340    4.7000 O.2    74  TRP74      -0.2867
     69  CB         0.9360   -1.8990    6.6150 C.3    74  TRP74       0.0550
     70  CG         0.3780   -0.8240    5.7250 C.ar   74  TRP74       0.0003
     71  CD1        1.0150   -0.0880    4.8600 C.ar   74  TRP74       0.0946
     72  CD2       -1.0150   -0.4620    5.6520 C.ar   74  TRP74       0.0152
     73  NE1        0.1380    0.8040    4.2450 N.ar   74  TRP74      -0.2442
     74  CE2       -1.1200    0.5710    4.7340 C.ar   74  TRP74       0.0810
     75  CE3       -2.1550   -0.8900    6.3610 C.ar   74  TRP74       0.0012
     76  CZ2       -2.3510    1.2250    4.5170 C.ar   74  TRP74       0.0191
     77  CZ3       -3.3840   -0.2870    6.0970 C.ar   74  TRP74       0.0001
     78  CH2       -3.4440    0.7200    5.1890 C.ar   74  TRP74       0.0015
     79  N          1.8550   -1.3660    1.3820 N.3    76  TYR76      -0.1241
     80  CA         1.7300    0.0170    0.8770 C.3    76  TYR76       0.1605
     81  C          1.0750    0.0580   -0.5050 C.2    76  TYR76       0.2264
     82  O          0.5510    1.1270   -0.8990 O.2    76  TYR76      -0.2867
     83  CB         3.1040    0.7000    0.8030 C.3    76  TYR76       0.0534
     84  CG         3.6790    1.1230    2.1000 C.ar   76  TYR76      -0.0201
     85  CD1        3.2430    2.3010    2.7500 C.ar   76  TYR76      -0.0009
     86  CD2        4.6850    0.3910    2.7090 C.ar   76  TYR76      -0.0009
     87  CE1        3.7570    2.6630    3.9690 C.ar   76  TYR76       0.0417
     88  CE2        5.2290    0.8060    3.8940 C.ar   76  TYR76       0.0417
     89  CZ         4.7430    1.9100    4.5260 C.ar   76  TYR76       0.1957
     90  OH         5.3360    2.3100    5.7090 O.3    76  TYR76      -0.2866
     91  N         -2.6400   -0.9030    0.2800 N.3    79  GLN79      -0.1245
     92  CA        -3.1580    0.0190    1.2910 C.3    79  GLN79       0.1566
     93  C         -4.1250   -0.7220    2.2440 C.2    79  GLN79       0.2260
     94  O         -5.2700   -0.3410    2.4730 O.2    79  GLN79      -0.2867
     95  CB        -3.7520    1.2790    0.6650 C.3    79  GLN79       0.0367
     96  CG        -2.7350    2.0650   -0.0640 C.3    79  GLN79       0.0905
     97  CD        -3.3690    3.3390   -0.6270 C.2    79  GLN79       0.2608
     98  OE1       -3.7270    3.3880   -1.7800 O.2    79  GLN79      -0.2717
     99  NE2       -3.5400    4.3330    0.2110 N.am   79  GLN79      -0.0878
    100  N         -3.9340   -3.9470    5.6800 N.3    81  TYR81      -0.1241
    101  CA        -3.3050   -4.9700    6.5080 C.3    81  TYR81       0.1605
    102  C         -3.5240   -6.3540    5.9200 C.2    81  TYR81       0.2264
    103  O         -4.5230   -6.5810    5.2820 O.2    81  TYR81      -0.2867
    104  CB        -3.8480   -4.9490    7.9360 C.3    81  TYR81       0.0534
    105  CG        -3.4590   -3.7240    8.7410 C.ar   81  TYR81      -0.0201
    106  CD1       -2.1960   -3.5770    9.2280 C.ar   81  TYR81      -0.0009
    107  CD2       -4.3910   -2.7270    8.9350 C.ar   81  TYR81      -0.0009
    108  CE1       -1.8720   -2.4110    9.9690 C.ar   81  TYR81       0.0417
    109  CE2       -4.0910   -1.5680    9.6200 C.ar   81  TYR81       0.0417
    110  CZ        -2.8210   -1.4650   10.1160 C.ar   81  TYR81       0.1957
    111  OH        -2.4690   -0.3370   10.8400 O.3    81  TYR81      -0.2866
@<TRIPOS>BOND
     1    98    97    2
     2    82    81    2
     3    97    96    1
     4    97    99   am
     5    81    80    1
     6    96    95    1
     7    91    92    1
     8    95    92    1
     9    83    80    1
    10    83    84    1
    11    80    79    1
    12    92    93    1
    13    53    52    2
    14    84    86   ar
    15    84    85   ar
    16    56    55    1
    17    93    94    2
    18    86    88   ar
    19    85    87   ar
    20    52    51    1
    21    55    57    1
    22    55    54    1
    23    51    54    1
    24    51    50    1
    25    88    89   ar
    26    87    89   ar
    27    45    44    2
    28    73    74   ar
    29    73    71   ar
    30    76    74   ar
    31    76    78   ar
    32    89    90    1
    33    68    67    2
    34    74    72   ar
    35    67    66    1
    36    71    70   ar
    37    44    50   am
    38    44    43    1
    39    78    77   ar
    40   103   102    2
    41    58    59    1
    42    63    62    1
    43    72    70   ar
    44    72    75   ar
    45   100   101    1
    46    70    69    1
    47   102   101    1
    48    77    75   ar
    49    66    69    1
    50    66    65    1
    51    48    47    1
    52    48    49    1
    53    43    42    1
    54    43    46    1
    55   101   104    1
    56    59    62    1
    57    59    60    1
    58    64    62    1
    59    47    46    1
    60    61    60    2
    61   104   105    1
    62    25    26    1
    63    25    24    1
    64    23    24    1
    65    23    20    1
    66   105   107   ar
    67   105   106   ar
    68   107   109   ar
    69   106   108   ar
    70    26    27    2
    71    20    19    1
    72    20    21    1
    73   109   110   ar
    74   108   110   ar
    75    11    13   ar
    76    11     8   ar
    77    13    14   ar
    78    19    17   am
    79   110   111    1
    80    22    21    2
    81     5     6    1
    82     5     2    1
    83    27    29    1
    84    27    28    1
    85    21    30   am
    86     8     6   ar
    87     8    10   ar
    88    14    12   ar
    89    17    18    2
    90    17    16    1
    91     4     3    2
    92     6     7   ar
    93     3     2    1
    94    16    15    1
    95    10    12   ar
    96    10     9   ar
    97     7     9   ar
    98     2     1    1
    99    41    40    1
   100    30    31    1
   101    38    40   ar
   102    38    36   ar
   103    40    39   ar
   104    36    35   ar
   105    31    32    1
   106    31    34    1
   107    39    37   ar
   108    35    37   ar
   109    35    34    1
   110    32    33    2
