@<TRIPOS>MOLECULE
tmp/6cecA00.pdb
 99 97 0 0 0
SMALL
GASTEIGER

@<TRIPOS>ATOM
      1  N          8.8050    0.1950   12.4770 N.3    36  TRP36      -0.1241
      2  CA         8.4190   -0.9110   11.6040 C.3    36  TRP36       0.1605
      3  C          9.6900   -1.4910   11.0020 C.2    36  TRP36       0.2264
      4  O         10.7130   -0.8000   10.8910 O.2    36  TRP36      -0.2867
      5  CB         7.5300   -0.4340   10.4680 C.3    36  TRP36       0.0550
      6  CG         6.2380    0.1670   10.8550 C.ar   36  TRP36       0.0003
      7  CD1        6.0350    1.3760   11.4570 C.ar   36  TRP36       0.0946
      8  CD2        4.9260   -0.4120   10.6920 C.ar   36  TRP36       0.0152
      9  NE1        4.6990    1.5880   11.6680 N.ar   36  TRP36      -0.2442
     10  CE2        3.9990    0.5190   11.1940 C.ar   36  TRP36       0.0810
     11  CE3        4.4310   -1.6100   10.1470 C.ar   36  TRP36       0.0012
     12  CZ2        2.6170    0.2900   11.1540 C.ar   36  TRP36       0.0191
     13  CZ3        3.0700   -1.8070   10.0850 C.ar   36  TRP36       0.0001
     14  CH2        2.1880   -0.8940   10.5900 C.ar   36  TRP36       0.0015
     15  N          7.1810    5.0120   11.8700 N.3    47  GLY47      -0.1210
     16  CA         5.8430    5.1500   11.3060 C.3    47  GLY47       0.1956
     17  C          5.3930    6.5530   10.9290 C.2    47  GLY47       0.2611
     18  O          6.0090    7.5570   11.2710 O.2    47  GLY47      -0.2717
     19  N          4.2330    6.5890   10.2530 N.am   48  ARG48      -0.1979
     20  CA         3.6990    7.8370    9.7100 C.3    48  ARG48       0.1597
     21  C          3.4070    8.9090   10.7650 C.2    48  ARG48       0.2287
     22  O          3.5620   10.0960   10.4760 O.2    48  ARG48      -0.2864
     23  CB         2.4030    7.5520    8.8740 C.3    48  ARG48       0.0334
     24  CG         1.1810    7.0960    9.6630 C.3    48  ARG48       0.0492
     25  CD         0.1650    6.2510    8.8510 C.3    48  ARG48       0.2205
     26  NE        -0.9110    5.6510    9.6620 N.pl3  48  ARG48      -0.0865
     27  CZ        -0.7980    4.6030   10.5050 C.cat  48  ARG48       0.5346
     28  NH1       -1.8500    4.1370   11.1770 N.pl3  48  ARG48       0.1354
     29  NH2        0.3590    3.9920   10.6910 N.pl3  48  ARG48       0.1354
     30  N          9.4660    5.0720    7.3210 N.3    54  MET54      -0.1230
     31  CA         9.1630    3.8250    6.6040 C.3    54  MET54       0.1702
     32  C          8.3870    4.1020    5.3180 C.2    54  MET54       0.2592
     33  O          8.6470    3.4710    4.2860 O.2    54  MET54      -0.2718
     34  CB         8.4630    2.7520    7.4600 C.3    54  MET54       0.0401
     35  CG         8.3240    1.3820    6.7660 C.3    54  MET54       0.0596
     36  SD         9.9480    0.7000    6.3280 S.3    54  MET54      -0.1393
     37  CE        10.4090   -0.0980    7.8480 C.3    54  MET54       0.0692
     38  N          7.4700    5.0870    5.3450 N.am   55  LEU55      -0.1980
     39  CA         6.7770    5.4820    4.1260 C.3    55  LEU55       0.1596
     40  C          7.7810    6.0170    3.0980 C.2    55  LEU55       0.2287
     41  O          7.7250    5.6620    1.9130 O.2    55  LEU55      -0.2864
     42  CB         5.6600    6.4970    4.4750 C.3    55  LEU55       0.0297
     43  CG         4.8390    7.0250    3.3070 C.3    55  LEU55       0.0022
     44  CD1        4.0870    5.9770    2.5360 C.3    55  LEU55       0.0001
     45  CD2        3.8660    8.0470    3.8930 C.3    55  LEU55       0.0001
     46  N          5.5830   -4.2420    5.5110 N.3    66  VAL66      -0.1245
     47  CA         6.3140   -3.8130    6.7000 C.3    66  VAL66       0.1561
     48  C          5.5700   -4.3290    7.9520 C.2    66  VAL66       0.2260
     49  O          4.3400   -4.4340    7.9470 O.2    66  VAL66      -0.2867
     50  CB         6.5190   -2.2610    6.6940 C.3    66  VAL66       0.0252
     51  CG1        7.3730   -1.8160    5.5020 C.3    66  VAL66       0.0019
     52  CG2        5.2410   -1.4630    6.7120 C.3    66  VAL66       0.0019
     53  N          1.5680   -4.3620    7.2100 N.3    75  TRP75      -0.1241
     54  CA         0.9270   -3.4240    6.3230 C.3    75  TRP75       0.1605
     55  C          1.5280   -3.5160    4.9480 C.2    75  TRP75       0.2264
     56  O          2.7610   -3.5550    4.8040 O.2    75  TRP75      -0.2867
     57  CB         1.0760   -1.9590    6.8270 C.3    75  TRP75       0.0550
     58  CG         0.4610   -0.8920    6.0170 C.ar   75  TRP75       0.0003
     59  CD1        1.0920   -0.0160    5.1650 C.ar   75  TRP75       0.0946
     60  CD2       -0.9400   -0.5720    5.9380 C.ar   75  TRP75       0.0152
     61  NE1        0.1930    0.8270    4.5790 N.ar   75  TRP75      -0.2442
     62  CE2       -1.0620    0.5500    5.0640 C.ar   75  TRP75       0.0810
     63  CE3       -2.0970   -1.0580    6.5830 C.ar   75  TRP75       0.0012
     64  CZ2       -2.3160    1.1380    4.7510 C.ar   75  TRP75       0.0191
     65  CZ3       -3.3330   -0.4530    6.2840 C.ar   75  TRP75       0.0001
     66  CH2       -3.4190    0.6310    5.3850 C.ar   75  TRP75       0.0015
     67  N          1.8790   -1.3480    1.6090 N.3    77  TYR77      -0.1241
     68  CA         1.7030    0.0410    1.1350 C.3    77  TYR77       0.1605
     69  C          0.9920    0.1240   -0.2120 C.2    77  TYR77       0.2264
     70  O          0.4200    1.1630   -0.5330 O.2    77  TYR77      -0.2867
     71  CB         3.0450    0.7730    1.0120 C.3    77  TYR77       0.0534
     72  CG         3.6840    1.1700    2.3220 C.ar   77  TYR77      -0.0201
     73  CD1        3.1950    2.2480    3.0830 C.ar   77  TYR77      -0.0009
     74  CD2        4.7960    0.4900    2.8170 C.ar   77  TYR77      -0.0009
     75  CE1        3.7800    2.6090    4.3110 C.ar   77  TYR77       0.0417
     76  CE2        5.3670    0.8160    4.0450 C.ar   77  TYR77       0.0417
     77  CZ         4.8790    1.8940    4.7700 C.ar   77  TYR77       0.1957
     78  OH         5.4570    2.2230    5.9490 O.3    77  TYR77      -0.2866
     79  N         -2.6710   -0.9600    0.5480 N.3    80  GLN80      -0.1245
     80  CA        -3.1920   -0.0250    1.5750 C.3    80  GLN80       0.1566
     81  C         -4.1100   -0.7690    2.5170 C.2    80  GLN80       0.2260
     82  O         -5.2710   -0.4230    2.7500 O.2    80  GLN80      -0.2867
     83  CB        -3.8580    1.2060    0.9700 C.3    80  GLN80       0.0367
     84  CG        -2.9950    1.9010   -0.0560 C.3    80  GLN80       0.0905
     85  CD        -3.5160    3.2930   -0.4150 C.2    80  GLN80       0.2608
     86  OE1       -4.0820    3.4890   -1.4810 O.2    80  GLN80      -0.2717
     87  NE2       -3.3250    4.2430    0.4840 N.am   80  GLN80      -0.0878
     88  N         -3.8110   -4.0510    5.9280 N.3    82  TYR82      -0.1241
     89  CA        -3.1550   -5.0660    6.6760 C.3    82  TYR82       0.1605
     90  C         -3.3280   -6.4250    6.0350 C.2    82  TYR82       0.2264
     91  O         -4.3950   -6.7310    5.4500 O.2    82  TYR82      -0.2867
     92  CB        -3.6900   -5.0920    8.1000 C.3    82  TYR82       0.0534
     93  CG        -3.3190   -3.9030    8.9130 C.ar   82  TYR82      -0.0201
     94  CD1       -2.0330   -3.7510    9.4150 C.ar   82  TYR82      -0.0009
     95  CD2       -4.2500   -2.9550    9.2070 C.ar   82  TYR82      -0.0009
     96  CE1       -1.6980   -2.6570   10.1920 C.ar   82  TYR82       0.0417
     97  CE2       -3.8980   -1.8430    9.9650 C.ar   82  TYR82       0.0417
     98  CZ        -2.6370   -1.7310   10.4360 C.ar   82  TYR82       0.1957
     99  OH        -2.3050   -0.6340   11.2200 O.3    82  TYR82      -0.2866
@<TRIPOS>BOND
     1    86    85    2
     2    70    69    2
     3    85    84    1
     4    85    87   am
     5    69    68    1
     6    84    83    1
     7    79    80    1
     8    83    80    1
     9    71    68    1
    10    71    72    1
    11    68    67    1
    12    80    81    1
    13    41    40    2
    14    72    74   ar
    15    72    73   ar
    16    81    82    2
    17    44    43    1
    18    74    76   ar
    19    73    75   ar
    20    40    39    1
    21    43    45    1
    22    43    42    1
    23    76    77   ar
    24    39    42    1
    25    39    38    1
    26    33    32    2
    27    75    77   ar
    28    61    62   ar
    29    61    59   ar
    30    64    62   ar
    31    64    66   ar
    32    77    78    1
    33    56    55    2
    34    55    54    1
    35    62    60   ar
    36    59    58   ar
    37    32    38   am
    38    32    31    1
    39    66    65   ar
    40    91    90    2
    41    51    50    1
    42    46    47    1
    43    88    89    1
    44    60    58   ar
    45    60    63   ar
    46    58    57    1
    47    90    89    1
    48    65    63   ar
    49    54    57    1
    50    54    53    1
    51    36    35    1
    52    36    37    1
    53    31    30    1
    54    31    34    1
    55    89    92    1
    56    50    47    1
    57    50    52    1
    58    47    48    1
    59    35    34    1
    60    49    48    2
    61    92    93    1
    62    25    26    1
    63    25    24    1
    64    23    24    1
    65    23    20    1
    66    93    95   ar
    67    93    94   ar
    68    95    97   ar
    69    94    96   ar
    70    26    27    2
    71    20    19    1
    72    20    21    1
    73    97    98   ar
    74    13    11   ar
    75    13    14   ar
    76    11     8   ar
    77    96    98   ar
    78    19    17   am
    79    98    99    1
    80     5     6    1
    81     5     2    1
    82    22    21    2
    83    27    29    1
    84    27    28    1
    85    14    12   ar
    86     8     6   ar
    87     8    10   ar
    88     6     7   ar
    89     4     3    2
    90    17    18    2
    91    17    16    1
    92     3     2    1
    93    12    10   ar
    94    10     9   ar
    95    16    15    1
    96     7     9   ar
    97     2     1    1
