@<TRIPOS>MOLECULE
tmp/6cedA00.pdb
 99 97 0 0 0
SMALL
GASTEIGER

@<TRIPOS>ATOM
      1  N          8.7620    0.1850   12.3920 N.3    35  TRP35      -0.1241
      2  CA         8.4380   -0.9530   11.5460 C.3    35  TRP35       0.1605
      3  C          9.7020   -1.5010   10.9560 C.2    35  TRP35       0.2264
      4  O         10.6790   -0.7800   10.8120 O.2    35  TRP35      -0.2867
      5  CB         7.5540   -0.4840   10.3970 C.3    35  TRP35       0.0550
      6  CG         6.2490    0.0840   10.7950 C.ar   35  TRP35       0.0003
      7  CD1        6.0390    1.3140   11.3830 C.ar   35  TRP35       0.0946
      8  CD2        4.9300   -0.4990   10.6450 C.ar   35  TRP35       0.0152
      9  NE1        4.7060    1.5280   11.6340 N.ar   35  TRP35      -0.2442
     10  CE2        3.9930    0.4500   11.1770 C.ar   35  TRP35       0.0810
     11  CE3        4.4590   -1.6830   10.1270 C.ar   35  TRP35       0.0012
     12  CZ2        2.6100    0.2270   11.1660 C.ar   35  TRP35       0.0191
     13  CZ3        3.0750   -1.9190   10.1230 C.ar   35  TRP35       0.0001
     14  CH2        2.1760   -0.9680   10.6540 C.ar   35  TRP35       0.0015
     15  N          6.9770    4.9920   11.7530 N.3    46  GLY46      -0.1210
     16  CA         5.6490    5.1010   11.2360 C.3    46  GLY46       0.1956
     17  C          5.1830    6.4810   10.8590 C.2    46  GLY46       0.2611
     18  O          5.8150    7.4730   11.1610 O.2    46  GLY46      -0.2717
     19  N          4.0170    6.5000   10.2150 N.am   47  ARG47      -0.1979
     20  CA         3.4280    7.6930    9.6530 C.3    47  ARG47       0.1597
     21  C          3.2150    8.7930   10.6770 C.2    47  ARG47       0.2287
     22  O          3.4730    9.9810   10.3760 O.2    47  ARG47      -0.2864
     23  CB         2.0750    7.3470    8.9710 C.3    47  ARG47       0.0334
     24  CG         1.0380    6.7180    9.8850 C.3    47  ARG47       0.0492
     25  CD         0.0400    5.8750    9.0990 C.3    47  ARG47       0.2205
     26  NE        -1.0530    5.2710    9.8890 N.pl3  47  ARG47      -0.0865
     27  CZ        -0.8870    4.2780   10.7560 C.cat  47  ARG47       0.5346
     28  NH1       -1.9240    3.7650   11.4270 N.pl3  47  ARG47       0.1354
     29  NH2        0.3280    3.8040   10.9540 N.pl3  47  ARG47       0.1354
     30  N          9.3210    5.0850    7.2390 N.3    53  MET53      -0.1230
     31  CA         9.0560    3.8290    6.5500 C.3    53  MET53       0.1702
     32  C          8.2760    4.0770    5.2530 C.2    53  MET53       0.2592
     33  O          8.5610    3.4130    4.2270 O.2    53  MET53      -0.2718
     34  CB         8.3610    2.7660    7.4220 C.3    53  MET53       0.0401
     35  CG         8.3020    1.4120    6.7280 C.3    53  MET53       0.0596
     36  SD         9.8920    0.7340    6.2500 S.3    53  MET53      -0.1393
     37  CE        10.3540   -0.0730    7.7380 C.3    53  MET53       0.0692
     38  N          7.3360    5.0220    5.2930 N.am   54  LEU54      -0.1980
     39  CA         6.6000    5.3920    4.0910 C.3    54  LEU54       0.1596
     40  C          7.5910    5.9540    3.0670 C.2    54  LEU54       0.2287
     41  O          7.4850    5.6320    1.8530 O.2    54  LEU54      -0.2864
     42  CB         5.4980    6.4440    4.4640 C.3    54  LEU54       0.0297
     43  CG         4.6920    6.9400    3.2750 C.3    54  LEU54       0.0022
     44  CD1        4.0330    5.8190    2.5200 C.3    54  LEU54       0.0001
     45  CD2        3.6650    7.9710    3.7660 C.3    54  LEU54       0.0001
     46  N          5.6810   -4.3530    5.4730 N.3    65  VAL65      -0.1245
     47  CA         6.4040   -3.8850    6.6530 C.3    65  VAL65       0.1561
     48  C          5.6710   -4.4550    7.8760 C.2    65  VAL65       0.2260
     49  O          4.4550   -4.5750    7.8730 O.2    65  VAL65      -0.2867
     50  CB         6.5650   -2.3450    6.6990 C.3    65  VAL65       0.0252
     51  CG1        7.4330   -1.9080    5.5360 C.3    65  VAL65       0.0019
     52  CG2        5.1980   -1.5970    6.6600 C.3    65  VAL65       0.0019
     53  N          1.6790   -4.5630    7.1390 N.3    74  TRP74      -0.1241
     54  CA         1.0380   -3.6490    6.2680 C.3    74  TRP74       0.1605
     55  C          1.6530   -3.7170    4.8940 C.2    74  TRP74       0.2264
     56  O          2.8880   -3.7530    4.7400 O.2    74  TRP74      -0.2867
     57  CB         1.1600   -2.2010    6.7740 C.3    74  TRP74       0.0550
     58  CG         0.5610   -1.1550    5.9430 C.ar   74  TRP74       0.0003
     59  CD1        1.2090   -0.2970    5.0990 C.ar   74  TRP74       0.0946
     60  CD2       -0.8400   -0.8280    5.8560 C.ar   74  TRP74       0.0152
     61  NE1        0.2980    0.5620    4.5260 N.ar   74  TRP74      -0.2442
     62  CE2       -0.9640    0.2570    4.9790 C.ar   74  TRP74       0.0810
     63  CE3       -1.9710   -1.3120    6.4750 C.ar   74  TRP74       0.0012
     64  CZ2       -2.2180    0.8570    4.6740 C.ar   74  TRP74       0.0191
     65  CZ3       -3.2160   -0.7170    6.1750 C.ar   74  TRP74       0.0001
     66  CH2       -3.3190    0.3570    5.3000 C.ar   74  TRP74       0.0015
     67  N          1.9420   -1.5380    1.5630 N.3    76  TYR76      -0.1241
     68  CA         1.7050   -0.1630    1.1160 C.3    76  TYR76       0.1605
     69  C          0.9760   -0.0830   -0.2450 C.2    76  TYR76       0.2264
     70  O          0.3220    0.9250   -0.5320 O.2    76  TYR76      -0.2867
     71  CB         3.0100    0.6520    1.0030 C.3    76  TYR76       0.0534
     72  CG         3.6660    1.0510    2.3080 C.ar   76  TYR76      -0.0201
     73  CD1        3.1320    2.0950    3.0640 C.ar   76  TYR76      -0.0009
     74  CD2        4.8250    0.4000    2.7980 C.ar   76  TYR76      -0.0009
     75  CE1        3.7210    2.4830    4.2480 C.ar   76  TYR76       0.0417
     76  CE2        5.3750    0.7600    4.0180 C.ar   76  TYR76       0.0417
     77  CZ         4.8350    1.8010    4.7220 C.ar   76  TYR76       0.1957
     78  OH         5.4100    2.1370    5.9030 O.3    76  TYR76      -0.2866
     79  N         -2.6280   -1.2110    0.4500 N.3    79  GLN79      -0.1245
     80  CA        -3.1570   -0.3140    1.4870 C.3    79  GLN79       0.1566
     81  C         -4.0520   -1.1170    2.4240 C.2    79  GLN79       0.2260
     82  O         -5.1970   -0.7530    2.7570 O.2    79  GLN79      -0.2867
     83  CB        -3.8680    0.9190    0.9100 C.3    79  GLN79       0.0367
     84  CG        -3.1760    1.5510   -0.2690 C.3    79  GLN79       0.0905
     85  CD        -4.0790    2.6490   -0.8800 C.2    79  GLN79       0.2608
     86  OE1       -4.7530    2.4470   -1.8870 O.2    79  GLN79      -0.2717
     87  NE2       -4.1440    3.7630   -0.2120 N.am   79  GLN79      -0.0878
     88  N         -3.7450   -4.3590    5.7920 N.3    81  TYR81      -0.1241
     89  CA        -3.0130   -5.3570    6.5910 C.3    81  TYR81       0.1605
     90  C         -3.1700   -6.7130    5.9510 C.2    81  TYR81       0.2264
     91  O         -4.2150   -6.9970    5.3260 O.2    81  TYR81      -0.2867
     92  CB        -3.5280   -5.3690    8.0210 C.3    81  TYR81       0.0534
     93  CG        -3.1520   -4.1490    8.7630 C.ar   81  TYR81      -0.0201
     94  CD1       -1.8600   -4.0080    9.2470 C.ar   81  TYR81      -0.0009
     95  CD2       -4.1050   -3.1600    9.0610 C.ar   81  TYR81      -0.0009
     96  CE1       -1.5020   -2.8650    9.9760 C.ar   81  TYR81       0.0417
     97  CE2       -3.7340   -1.9980    9.7350 C.ar   81  TYR81       0.0417
     98  CZ        -2.4750   -1.9000   10.2180 C.ar   81  TYR81       0.1957
     99  OH        -2.1600   -0.7510   10.9000 O.3    81  TYR81      -0.2866
@<TRIPOS>BOND
     1    86    85    2
     2    85    84    1
     3    85    87   am
     4    70    69    2
     5    84    83    1
     6    69    68    1
     7    79    80    1
     8    83    80    1
     9    71    68    1
    10    71    72    1
    11    68    67    1
    12    80    81    1
    13    41    40    2
    14    72    74   ar
    15    72    73   ar
    16    81    82    2
    17    44    43    1
    18    74    76   ar
    19    73    75   ar
    20    40    39    1
    21    43    45    1
    22    43    42    1
    23    76    77   ar
    24    39    42    1
    25    39    38    1
    26    33    32    2
    27    75    77   ar
    28    61    62   ar
    29    61    59   ar
    30    64    62   ar
    31    64    66   ar
    32    77    78    1
    33    56    55    2
    34    55    54    1
    35    62    60   ar
    36    59    58   ar
    37    32    38   am
    38    32    31    1
    39    66    65   ar
    40    91    90    2
    41    46    47    1
    42    51    50    1
    43    88    89    1
    44    60    58   ar
    45    60    63   ar
    46    58    57    1
    47    90    89    1
    48    65    63   ar
    49    36    35    1
    50    36    37    1
    51    54    57    1
    52    54    53    1
    53    31    30    1
    54    31    34    1
    55    89    92    1
    56    47    50    1
    57    47    48    1
    58    52    50    1
    59    35    34    1
    60    49    48    2
    61    92    93    1
    62    93    95   ar
    63    93    94   ar
    64    23    20    1
    65    23    24    1
    66    95    97   ar
    67    25    24    1
    68    25    26    1
    69    94    96   ar
    70    20    19    1
    71    20    21    1
    72    97    98   ar
    73    26    27    2
    74    96    98   ar
    75    13    11   ar
    76    13    14   ar
    77    11     8   ar
    78    19    17   am
    79    98    99    1
    80    22    21    2
    81     5     6    1
    82     5     2    1
    83     8     6   ar
    84     8    10   ar
    85    14    12   ar
    86    27    29    1
    87    27    28    1
    88     6     7   ar
    89     4     3    2
    90    17    18    2
    91    17    16    1
    92     3     2    1
    93    12    10   ar
    94    10     9   ar
    95    16    15    1
    96     7     9   ar
    97     2     1    1
