@<TRIPOS>MOLECULE
tmp/6ceeA00.pdb
 99 97 0 0 0
SMALL
GASTEIGER

@<TRIPOS>ATOM
      1  N          8.8590    0.1620   12.4170 N.3    36  TRP36      -0.1241
      2  CA         8.4930   -0.9560   11.5790 C.3    36  TRP36       0.1605
      3  C          9.7720   -1.5340   10.9920 C.2    36  TRP36       0.2264
      4  O         10.7680   -0.8130   10.8460 O.2    36  TRP36      -0.2867
      5  CB         7.6130   -0.4890   10.4080 C.3    36  TRP36       0.0550
      6  CG         6.3300    0.1210   10.7910 C.ar   36  TRP36       0.0003
      7  CD1        6.1400    1.3510   11.3790 C.ar   36  TRP36       0.0946
      8  CD2        5.0200   -0.4460   10.6350 C.ar   36  TRP36       0.0152
      9  NE1        4.8030    1.5580   11.6010 N.ar   36  TRP36      -0.2442
     10  CE2        4.0900    0.4780   11.1450 C.ar   36  TRP36       0.0810
     11  CE3        4.5500   -1.6600   10.1410 C.ar   36  TRP36       0.0012
     12  CZ2        2.7130    0.2340   11.1200 C.ar   36  TRP36       0.0191
     13  CZ3        3.1910   -1.8930   10.1130 C.ar   36  TRP36       0.0001
     14  CH2        2.2930   -0.9590   10.5910 C.ar   36  TRP36       0.0015
     15  N          7.0670    5.0030   11.8350 N.3    47  GLY47      -0.1210
     16  CA         5.7270    5.1450   11.3090 C.3    47  GLY47       0.1956
     17  C          5.3070    6.5450   10.9300 C.2    47  GLY47       0.2611
     18  O          5.9360    7.5370   11.2830 O.2    47  GLY47      -0.2717
     19  N          4.1380    6.5890   10.2880 N.am   48  ARG48      -0.1979
     20  CA         3.6030    7.8460    9.7560 C.3    48  ARG48       0.1597
     21  C          3.3260    8.8970   10.8260 C.2    48  ARG48       0.2287
     22  O          3.4170   10.1110   10.5200 O.2    48  ARG48      -0.2864
     23  CB         2.3320    7.5280    8.9270 C.3    48  ARG48       0.0334
     24  CG         1.1170    7.0260    9.7230 C.3    48  ARG48       0.0492
     25  CD         0.1750    6.0360    8.9410 C.3    48  ARG48       0.2205
     26  NE        -0.8420    5.3430    9.7830 N.pl3  48  ARG48      -0.0865
     27  CZ        -0.5790    4.4270   10.7530 C.cat  48  ARG48       0.5346
     28  NH1       -1.5860    3.8640   11.4310 N.pl3  48  ARG48       0.1354
     29  NH2        0.6920    4.0750   11.1000 N.pl3  48  ARG48       0.1354
     30  N          9.4250    5.0260    7.3090 N.3    54  MET54      -0.1230
     31  CA         9.0950    3.7930    6.5760 C.3    54  MET54       0.1702
     32  C          8.2980    4.0740    5.2980 C.2    54  MET54       0.2592
     33  O          8.5590    3.4350    4.2780 O.2    54  MET54      -0.2718
     34  CB         8.3900    2.7400    7.4520 C.3    54  MET54       0.0401
     35  CG         8.2980    1.3770    6.7370 C.3    54  MET54       0.0596
     36  SD         9.9290    0.6980    6.2930 S.3    54  MET54      -0.1393
     37  CE        10.3160   -0.1770    7.7970 C.3    54  MET54       0.0692
     38  N          7.3850    5.0340    5.3410 N.am   55  LEU55      -0.1980
     39  CA         6.7010    5.4770    4.1280 C.3    55  LEU55       0.1596
     40  C          7.7320    5.9850    3.0960 C.2    55  LEU55       0.2287
     41  O          7.6270    5.6570    1.8960 O.2    55  LEU55      -0.2864
     42  CB         5.6780    6.5660    4.4460 C.3    55  LEU55       0.0297
     43  CG         4.8790    7.0580    3.2420 C.3    55  LEU55       0.0022
     44  CD1        4.1200    5.9200    2.5770 C.3    55  LEU55       0.0001
     45  CD2        3.9420    8.1420    3.7330 C.3    55  LEU55       0.0001
     46  N          5.6410   -4.2850    5.5010 N.3    66  VAL66      -0.1245
     47  CA         6.3610   -3.8740    6.7090 C.3    66  VAL66       0.1561
     48  C          5.6470   -4.3910    7.9360 C.2    66  VAL66       0.2260
     49  O          4.4430   -4.5000    7.9370 O.2    66  VAL66      -0.2867
     50  CB         6.5930   -2.3390    6.7380 C.3    66  VAL66       0.0252
     51  CG1        7.4280   -1.8980    5.5550 C.3    66  VAL66       0.0019
     52  CG2        5.2790   -1.5490    6.7280 C.3    66  VAL66       0.0019
     53  N          1.6410   -4.4120    7.1930 N.3    75  TRP75      -0.1241
     54  CA         1.0090   -3.4870    6.2830 C.3    75  TRP75       0.1605
     55  C          1.6400   -3.5340    4.9350 C.2    75  TRP75       0.2264
     56  O          2.8690   -3.5630    4.8070 O.2    75  TRP75      -0.2867
     57  CB         1.1590   -2.0200    6.8270 C.3    75  TRP75       0.0550
     58  CG         0.5720   -0.9240    5.9860 C.ar   75  TRP75       0.0003
     59  CD1        1.2330   -0.0900    5.1180 C.ar   75  TRP75       0.0946
     60  CD2       -0.8170   -0.5670    5.9050 C.ar   75  TRP75       0.0152
     61  NE1        0.3590    0.7580    4.5250 N.ar   75  TRP75      -0.2442
     62  CE2       -0.9060    0.5080    4.9930 C.ar   75  TRP75       0.0810
     63  CE3       -1.9840   -1.0310    6.5250 C.ar   75  TRP75       0.0012
     64  CZ2       -2.1350    1.1520    4.7010 C.ar   75  TRP75       0.0191
     65  CZ3       -3.1960   -0.4110    6.1960 C.ar   75  TRP75       0.0001
     66  CH2       -3.2510    0.6630    5.2860 C.ar   75  TRP75       0.0015
     67  N          1.9500   -1.3470    1.6110 N.3    77  TYR77      -0.1241
     68  CA         1.7660    0.0080    1.1280 C.3    77  TYR77       0.1605
     69  C          1.0570    0.0690   -0.2200 C.2    77  TYR77       0.2264
     70  O          0.4530    1.1050   -0.5350 O.2    77  TYR77      -0.2867
     71  CB         3.1050    0.7260    1.0180 C.3    77  TYR77       0.0534
     72  CG         3.7080    1.1210    2.3490 C.ar   77  TYR77      -0.0201
     73  CD1        3.2340    2.2360    3.0620 C.ar   77  TYR77      -0.0009
     74  CD2        4.7750    0.4210    2.8990 C.ar   77  TYR77      -0.0009
     75  CE1        3.7840    2.5970    4.2860 C.ar   77  TYR77       0.0417
     76  CE2        5.3120    0.7550    4.1110 C.ar   77  TYR77       0.0417
     77  CZ         4.8440    1.8490    4.7980 C.ar   77  TYR77       0.1957
     78  OH         5.4180    2.1780    5.9860 O.3    77  TYR77      -0.2866
     79  N         -2.6260   -1.0450    0.5350 N.3    80  GLN80      -0.1245
     80  CA        -3.1890   -0.1030    1.5220 C.3    80  GLN80       0.1566
     81  C         -4.0580   -0.8690    2.5120 C.2    80  GLN80       0.2260
     82  O         -5.2100   -0.5040    2.7930 O.2    80  GLN80      -0.2867
     83  CB        -3.9650    1.0260    0.8390 C.3    80  GLN80       0.0367
     84  CG        -3.1880    1.6700   -0.2900 C.3    80  GLN80       0.0905
     85  CD        -3.8380    2.9470   -0.8480 C.2    80  GLN80       0.2608
     86  OE1       -4.1730    3.0090   -2.0300 O.2    80  GLN80      -0.2717
     87  NE2       -4.0190    3.9490    0.0000 N.am   80  GLN80      -0.0878
     88  N         -3.7550   -4.1280    5.9250 N.3    82  TYR82      -0.1241
     89  CA        -3.0860   -5.1440    6.6760 C.3    82  TYR82       0.1605
     90  C         -3.2780   -6.4940    6.0550 C.2    82  TYR82       0.2264
     91  O         -4.3520   -6.7780    5.4450 O.2    82  TYR82      -0.2867
     92  CB        -3.5650   -5.1520    8.1290 C.3    82  TYR82       0.0534
     93  CG        -3.1810   -3.9130    8.8620 C.ar   82  TYR82      -0.0201
     94  CD1       -1.8760   -3.7520    9.3100 C.ar   82  TYR82      -0.0009
     95  CD2       -4.1060   -2.9110    9.0930 C.ar   82  TYR82      -0.0009
     96  CE1       -1.5060   -2.5880    9.9850 C.ar   82  TYR82       0.0417
     97  CE2       -3.7190   -1.7370    9.7400 C.ar   82  TYR82       0.0417
     98  CZ        -2.4300   -1.6150   10.1660 C.ar   82  TYR82       0.1957
     99  OH        -2.0520   -0.4630   10.8450 O.3    82  TYR82      -0.2866
@<TRIPOS>BOND
     1    86    85    2
     2    85    84    1
     3    85    87   am
     4    70    69    2
     5    84    83    1
     6    69    68    1
     7    79    80    1
     8    83    80    1
     9    71    68    1
    10    71    72    1
    11    68    67    1
    12    80    81    1
    13    41    40    2
    14    72    74   ar
    15    72    73   ar
    16    81    82    2
    17    44    43    1
    18    74    76   ar
    19    73    75   ar
    20    40    39    1
    21    43    45    1
    22    43    42    1
    23    76    77   ar
    24    39    42    1
    25    39    38    1
    26    33    32    2
    27    75    77   ar
    28    61    62   ar
    29    61    59   ar
    30    64    62   ar
    31    64    66   ar
    32    77    78    1
    33    56    55    2
    34    55    54    1
    35    62    60   ar
    36    59    58   ar
    37    66    65   ar
    38    32    38   am
    39    32    31    1
    40    91    90    2
    41    46    47    1
    42    51    50    1
    43    60    58   ar
    44    60    63   ar
    45    88    89    1
    46    58    57    1
    47    90    89    1
    48    65    63   ar
    49    54    57    1
    50    54    53    1
    51    36    35    1
    52    36    37    1
    53    31    30    1
    54    31    34    1
    55    89    92    1
    56    47    50    1
    57    47    48    1
    58    52    50    1
    59    35    34    1
    60    48    49    2
    61    92    93    1
    62    93    95   ar
    63    93    94   ar
    64    23    24    1
    65    23    20    1
    66    25    24    1
    67    25    26    1
    68    95    97   ar
    69    94    96   ar
    70    97    98   ar
    71    20    19    1
    72    20    21    1
    73    26    27    2
    74    96    98   ar
    75    13    11   ar
    76    13    14   ar
    77    11     8   ar
    78    98    99    1
    79    19    17   am
    80     5     6    1
    81     5     2    1
    82    22    21    2
    83    14    12   ar
    84     8     6   ar
    85     8    10   ar
    86    27    29    1
    87    27    28    1
    88     6     7   ar
    89     4     3    2
    90    17    18    2
    91    17    16    1
    92     3     2    1
    93    12    10   ar
    94    10     9   ar
    95    16    15    1
    96     7     9   ar
    97     2     1    1
