@<TRIPOS>MOLECULE
tmp/6cefA00.pdb
 102 102 0 0 0
SMALL
GASTEIGER

@<TRIPOS>ATOM
      1  N          8.6970    0.3890   12.3880 N.3    35  TRP35      -0.1241
      2  CA         8.3110   -0.7540   11.5290 C.3    35  TRP35       0.1605
      3  C          9.5760   -1.4000   10.9470 C.2    35  TRP35       0.2264
      4  O         10.5990   -0.7360   10.8350 O.2    35  TRP35      -0.2867
      5  CB         7.4250   -0.2740   10.4050 C.3    35  TRP35       0.0550
      6  CG         6.1000    0.3810   10.8690 C.ar   35  TRP35       0.0003
      7  CD1        5.9340    1.5700   11.5570 C.ar   35  TRP35       0.0946
      8  CD2        4.7830   -0.1730   10.6930 C.ar   35  TRP35       0.0152
      9  NE1        4.6000    1.7620   11.8320 N.ar   35  TRP35      -0.2442
     10  CE2        3.8650    0.7230   11.3030 C.ar   35  TRP35       0.0810
     11  CE3        4.2920   -1.3540   10.1100 C.ar   35  TRP35       0.0012
     12  CZ2        2.5100    0.4930   11.2840 C.ar   35  TRP35       0.0191
     13  CZ3        2.9950   -1.5710   10.0860 C.ar   35  TRP35       0.0001
     14  CH2        2.0800   -0.6690   10.6760 C.ar   35  TRP35       0.0015
     15  N          7.1590    5.2660   11.7120 N.3    46  GLY46      -0.1210
     16  CA         5.8040    5.3880   11.1880 C.3    46  GLY46       0.1956
     17  C          5.3920    6.7750   10.7830 C.2    46  GLY46       0.2612
     18  O          6.0510    7.7390   11.0240 O.2    46  GLY46      -0.2717
     19  N          4.2430    6.8070   10.1310 N.am   47  ARG47      -0.1965
     20  CA         3.6770    8.0150    9.5630 C.3    47  ARG47       0.1729
     21  C          3.4250    9.1320   10.5520 C.2    47  ARG47       0.2616
     22  O          3.5110   10.3230   10.1520 O.2    47  ARG47      -0.2715
     23  CB         2.4100    7.6920    8.7630 C.3    47  ARG47       0.0348
     24  CG         1.3030    7.1280    9.6070 C.3    47  ARG47       0.0492
     25  CD         0.2550    6.3210    8.8070 C.3    47  ARG47       0.2205
     26  NE        -0.7990    5.7030    9.6700 N.pl3  47  ARG47      -0.0865
     27  CZ        -0.6670    4.6600   10.4980 C.cat  47  ARG47       0.5346
     28  NH1       -1.7130    4.2340   11.1810 N.pl3  47  ARG47       0.1354
     29  NH2        0.4800    4.0220   10.6600 N.pl3  47  ARG47       0.1354
     30  N          3.1140    8.7980   11.8020 N.am   48  TYR48      -0.1974
     31  CA         2.8350    9.8140   12.8190 C.3    48  TYR48       0.1639
     32  C          4.1150   10.3720   13.4600 C.2    48  TYR48       0.2290
     33  O          4.0260   11.3450   14.2230 O.2    48  TYR48      -0.2864
     34  CB         1.8800    9.3210   13.8530 C.3    48  TYR48       0.0560
     35  CG         0.5130    8.9500   13.2290 C.ar   48  TYR48      -0.0198
     36  CD1       -0.1930    9.8750   12.4210 C.ar   48  TYR48      -0.0009
     37  CD2       -0.0510    7.7090   13.4520 C.ar   48  TYR48      -0.0009
     38  CE1       -1.3880    9.5580   11.8450 C.ar   48  TYR48       0.0417
     39  CE2       -1.2680    7.3800   12.8730 C.ar   48  TYR48       0.0417
     40  CZ        -1.9430    8.3020   12.0830 C.ar   48  TYR48       0.1957
     41  OH        -3.1710    8.0010   11.5140 O.3    48  TYR48      -0.2866
     42  N          9.4330    5.1130    7.1630 N.3    53  MET53      -0.1230
     43  CA         9.0730    3.8310    6.4850 C.3    53  MET53       0.1702
     44  C          8.2910    4.0910    5.1730 C.2    53  MET53       0.2592
     45  O          8.5580    3.4120    4.1580 O.2    53  MET53      -0.2718
     46  CB         8.3500    2.8220    7.3600 C.3    53  MET53       0.0401
     47  CG         8.2170    1.4700    6.7040 C.3    53  MET53       0.0596
     48  SD         9.8030    0.7070    6.2560 S.3    53  MET53      -0.1393
     49  CE        10.2460   -0.1770    7.7590 C.3    53  MET53       0.0692
     50  N          7.4120    5.0730    5.1780 N.am   54  LEU54      -0.1980
     51  CA         6.7640    5.5050    3.9340 C.3    54  LEU54       0.1596
     52  C          7.7960    5.9710    2.9210 C.2    54  LEU54       0.2287
     53  O          7.7500    5.6010    1.7360 O.2    54  LEU54      -0.2864
     54  CB         5.7210    6.6080    4.1980 C.3    54  LEU54       0.0297
     55  CG         5.0310    7.2230    2.9980 C.3    54  LEU54       0.0022
     56  CD1        4.2080    6.1130    2.3110 C.3    54  LEU54       0.0001
     57  CD2        4.1320    8.3850    3.4790 C.3    54  LEU54       0.0001
     58  N          5.3970   -4.1700    5.4610 N.3    65  VAL65      -0.1245
     59  CA         6.1470   -3.7920    6.6560 C.3    65  VAL65       0.1561
     60  C          5.4020   -4.3150    7.9060 C.2    65  VAL65       0.2260
     61  O          4.1880   -4.3920    7.8940 O.2    65  VAL65      -0.2867
     62  CB         6.3910   -2.2620    6.7280 C.3    65  VAL65       0.0252
     63  CG1        7.3080   -1.8380    5.5240 C.3    65  VAL65       0.0019
     64  CG2        5.0710   -1.5050    6.6650 C.3    65  VAL65       0.0019
     65  N          1.3950   -4.2880    7.0930 N.3    74  TRP74      -0.1241
     66  CA         0.7690   -3.3420    6.1690 C.3    74  TRP74       0.1605
     67  C          1.4250   -3.4610    4.8440 C.2    74  TRP74       0.2264
     68  O          2.6470   -3.5570    4.7710 O.2    74  TRP74      -0.2867
     69  CB         0.9510   -1.8990    6.6380 C.3    74  TRP74       0.0550
     70  CG         0.3530   -0.8610    5.7160 C.ar   74  TRP74       0.0003
     71  CD1        1.0330   -0.0540    4.8880 C.ar   74  TRP74       0.0946
     72  CD2       -1.0420   -0.4400    5.6370 C.ar   74  TRP74       0.0152
     73  NE1        0.1960    0.8280    4.2830 N.ar   74  TRP74      -0.2442
     74  CE2       -1.0790    0.6460    4.7520 C.ar   74  TRP74       0.0810
     75  CE3       -2.2350   -0.8270    6.2830 C.ar   74  TRP74       0.0012
     76  CZ2       -2.2520    1.3060    4.4340 C.ar   74  TRP74       0.0191
     77  CZ3       -3.4280   -0.1630    5.9390 C.ar   74  TRP74       0.0001
     78  CH2       -3.4180    0.9060    5.0470 C.ar   74  TRP74       0.0015
     79  N          1.8440   -1.3350    1.4760 N.3    76  TYR76      -0.1241
     80  CA         1.7240    0.0140    0.9000 C.3    76  TYR76       0.1605
     81  C          1.0530    0.0670   -0.4610 C.2    76  TYR76       0.2264
     82  O          0.5360    1.1240   -0.8210 O.2    76  TYR76      -0.2867
     83  CB         3.1050    0.6880    0.8140 C.3    76  TYR76       0.0534
     84  CG         3.6710    1.1190    2.1210 C.ar   76  TYR76      -0.0201
     85  CD1        3.1700    2.3010    2.7770 C.ar   76  TYR76      -0.0009
     86  CD2        4.6880    0.3930    2.7310 C.ar   76  TYR76      -0.0009
     87  CE1        3.7030    2.7030    3.9870 C.ar   76  TYR76       0.0417
     88  CE2        5.2190    0.7690    3.9110 C.ar   76  TYR76       0.0417
     89  CZ         4.7430    1.9280    4.5460 C.ar   76  TYR76       0.1957
     90  OH         5.3210    2.3150    5.7460 O.3    76  TYR76      -0.2866
     91  N         -3.9500   -3.9500    5.7380 N.3    81  TYR81      -0.1241
     92  CA        -3.2980   -4.9370    6.5930 C.3    81  TYR81       0.1605
     93  C         -3.5250   -6.3140    6.0090 C.2    81  TYR81       0.2264
     94  O         -4.5790   -6.5520    5.4400 O.2    81  TYR81      -0.2867
     95  CB        -3.8870   -4.9250    7.9950 C.3    81  TYR81       0.0534
     96  CG        -3.5070   -3.6370    8.7150 C.ar   81  TYR81      -0.0201
     97  CD1       -2.2190   -3.4630    9.1830 C.ar   81  TYR81      -0.0009
     98  CD2       -4.4290   -2.6100    8.9120 C.ar   81  TYR81      -0.0009
     99  CE1       -1.8460   -2.2850    9.8590 C.ar   81  TYR81       0.0417
    100  CE2       -4.0250   -1.3870    9.5500 C.ar   81  TYR81       0.0417
    101  CZ        -2.7190   -1.2910    9.9920 C.ar   81  TYR81       0.1957
    102  OH        -2.2890   -0.1360   10.5940 O.3    81  TYR81      -0.2866
@<TRIPOS>BOND
     1    82    81    2
     2    81    80    1
     3    83    80    1
     4    83    84    1
     5    80    79    1
     6    53    52    2
     7    84    86   ar
     8    84    85   ar
     9    56    55    1
    10    86    88   ar
    11    85    87   ar
    12    52    51    1
    13    55    57    1
    14    55    54    1
    15    88    89   ar
    16    51    54    1
    17    51    50    1
    18    87    89   ar
    19    45    44    2
    20    73    74   ar
    21    73    71   ar
    22    76    74   ar
    23    76    78   ar
    24    89    90    1
    25    74    72   ar
    26    68    67    2
    27    67    66    1
    28    71    70   ar
    29    78    77   ar
    30    44    50   am
    31    44    43    1
    32    94    93    2
    33    58    59    1
    34    63    62    1
    35    72    70   ar
    36    72    75   ar
    37    70    69    1
    38    91    92    1
    39    77    75   ar
    40    93    92    1
    41    66    69    1
    42    66    65    1
    43    48    47    1
    44    48    49    1
    45    43    42    1
    46    43    46    1
    47    92    95    1
    48    59    62    1
    49    59    60    1
    50    64    62    1
    51    47    46    1
    52    61    60    2
    53    95    96    1
    54    96    98   ar
    55    96    97   ar
    56    23    20    1
    57    23    24    1
    58    25    24    1
    59    25    26    1
    60    98   100   ar
    61    97    99   ar
    62   100   101   ar
    63    20    19    1
    64    20    21    1
    65    26    27    2
    66    99   101   ar
    67   101   102    1
    68    13    11   ar
    69    13    14   ar
    70    11     8   ar
    71    19    17   am
    72    22    21    2
    73     5     6    1
    74     5     2    1
    75    27    29    1
    76    27    28    1
    77    21    30   am
    78    14    12   ar
    79     8     6   ar
    80     8    10   ar
    81    17    18    2
    82    17    16    1
    83     4     3    2
    84     6     7   ar
    85     3     2    1
    86    16    15    1
    87    12    10   ar
    88    10     9   ar
    89    41    40    1
    90     2     1    1
    91     7     9   ar
    92    30    31    1
    93    38    40   ar
    94    38    36   ar
    95    40    39   ar
    96    36    35   ar
    97    31    32    1
    98    31    34    1
    99    39    37   ar
   100    35    37   ar
   101    35    34    1
   102    32    33    2
