@<TRIPOS>MOLECULE
tmp/6cehA00.pdb
 136 132 0 0 0
SMALL
GASTEIGER

@<TRIPOS>ATOM
      1  N         -9.6490    7.4170   81.3480 N.3    91  GLN91      -0.1245
      2  CA        -9.3830    6.2770   80.5350 C.3    91  GLN91       0.1566
      3  C         -9.6440    5.0130   81.2990 C.2    91  GLN91       0.2260
      4  O         -9.6760    5.0480   82.5220 O.2    91  GLN91      -0.2867
      5  CB        -7.9520    6.2470   80.0270 C.3    91  GLN91       0.0367
      6  CG        -6.8720    6.3640   81.1130 C.3    91  GLN91       0.0905
      7  CD        -6.0780    5.1110   81.3210 C.2    91  GLN91       0.2608
      8  OE1       -6.6130    4.0240   81.4040 O.2    91  GLN91      -0.2717
      9  NE2       -4.7660    5.3030   81.4810 N.am   91  GLN91      -0.0878
     10  N         -8.1230    0.7480   81.1270 N.3    93  HIS93      -0.1241
     11  CA        -7.2300   -0.2240   80.5420 C.3    93  HIS93       0.1621
     12  C         -7.2900   -1.4820   81.3980 C.2    93  HIS93       0.2264
     13  O         -7.9260   -1.5000   82.4250 O.2    93  HIS93      -0.2867
     14  CB        -5.8010    0.2860   80.4850 C.3    93  HIS93       0.0745
     15  CG        -5.2580    0.5810   81.8390 C.ar   93  HIS93       0.0817
     16  ND1       -5.4470    1.7900   82.4450 N.ar   93  HIS93      -0.2268
     17  CD2       -4.6150   -0.2120   82.7310 C.ar   93  HIS93       0.1154
     18  CE1       -4.8980    1.7280   83.6630 C.ar   93  HIS93       0.1986
     19  NE2       -4.3910    0.5190   83.8550 N.ar   93  HIS93      -0.2212
     20  N         -5.0040   -5.2230   82.7420 N.3    95  HIS95      -0.1241
     21  CA        -3.8010   -6.0060   82.9130 C.3    95  HIS95       0.1621
     22  C         -4.1860   -7.4580   82.8500 C.2    95  HIS95       0.2264
     23  O         -5.2690   -7.8170   83.3230 O.2    95  HIS95      -0.2867
     24  CB        -3.1540   -5.7490   84.2510 C.3    95  HIS95       0.0745
     25  CG        -2.8690   -4.3090   84.5160 C.ar   95  HIS95       0.0817
     26  ND1       -1.6110   -3.7530   84.3460 N.ar   95  HIS95      -0.2268
     27  CD2       -3.6810   -3.3040   84.9110 C.ar   95  HIS95       0.1154
     28  CE1       -1.6740   -2.4480   84.6220 C.ar   95  HIS95       0.1986
     29  NE2       -2.9250   -2.1330   84.9480 N.ar   95  HIS95      -0.2212
     30  N         -8.9570   -1.4210   85.0410 N.3   118  HIS118     -0.1241
     31  CA        -8.7210   -0.1880   85.8000 C.3   118  HIS118      0.1621
     32  C         -9.3940    0.9930   85.1010 C.2   118  HIS118      0.2264
     33  O         -8.9890    1.3420   84.0100 O.2   118  HIS118     -0.2867
     34  CB        -7.2250    0.1130   85.9310 C.3   118  HIS118      0.0745
     35  CG        -6.5250   -0.8530   86.7960 C.ar  118  HIS118      0.0817
     36  ND1       -5.1600   -1.0630   86.7520 N.ar  118  HIS118     -0.2268
     37  CD2       -7.0290   -1.6880   87.7350 C.ar  118  HIS118      0.1154
     38  CE1       -4.8630   -1.9670   87.6850 C.ar  118  HIS118      0.1986
     39  NE2       -5.9780   -2.3400   88.3090 N.ar  118  HIS118     -0.2212
     40  N         -9.7420    4.7910   85.3410 N.3   120  VAL120     -0.1245
     41  CA        -8.8790    5.8200   85.9620 C.3   120  VAL120      0.1561
     42  C         -9.5560    7.1670   85.9710 C.2   120  VAL120      0.2260
     43  O        -10.0500    7.6380   84.9240 O.2   120  VAL120     -0.2867
     44  CB        -7.5480    5.9180   85.1890 C.3   120  VAL120      0.0252
     45  CG1       -6.6340    6.9430   85.8290 C.3   120  VAL120      0.0019
     46  CG2       -6.8740    4.5630   84.9930 C.3   120  VAL120      0.0019
     47  N         -4.8340   16.2620   84.8870 N.3   129  PHE129     -0.1241
     48  CA        -4.3100   14.9890   85.3310 C.3   129  PHE129      0.1605
     49  C         -2.8980   15.1060   85.7920 C.2   129  PHE129      0.2264
     50  O         -2.5270   14.5140   86.7720 O.2   129  PHE129     -0.2867
     51  CB        -4.4940   13.9840   84.1700 C.3   129  PHE129      0.0534
     52  CG        -3.9570   12.6150   84.4290 C.ar  129  PHE129     -0.0203
     53  CD1       -2.6120   12.2850   84.1490 C.ar  129  PHE129     -0.0042
     54  CD2       -4.7560   11.6530   85.0260 C.ar  129  PHE129     -0.0042
     55  CE1       -2.1350   11.0150   84.4530 C.ar  129  PHE129     -0.0003
     56  CE2       -4.2880   10.3820   85.3000 C.ar  129  PHE129     -0.0003
     57  CZ        -2.9750   10.0660   85.0130 C.ar  129  PHE129     -0.0000
     58  N         -1.6460   13.8840   89.6320 N.3   133  VAL133     -0.1245
     59  CA        -0.7570   12.7690   90.0000 C.3   133  VAL133      0.1561
     60  C          0.3260   13.1770   90.9820 C.2   133  VAL133      0.2260
     61  O          0.9980   12.3130   91.5530 O.2   133  VAL133     -0.2867
     62  CB        -0.1230   12.0280   88.7900 C.3   133  VAL133      0.0252
     63  CG1       -1.2070   11.4130   87.9340 C.3   133  VAL133      0.0019
     64  CG2        0.8250   12.9400   87.9590 C.3   133  VAL133      0.0019
     65  N         -8.8120    5.0120   91.2410 N.3   141  VAL141     -0.1245
     66  CA        -8.8610    3.9380   90.2690 C.3   141  VAL141      0.1561
     67  C         -9.8420    2.9170   90.7770 C.2   141  VAL141      0.2260
     68  O         -9.7470    2.4090   91.8910 O.2   141  VAL141     -0.2867
     69  CB        -7.4850    3.3530   89.9270 C.3   141  VAL141      0.0252
     70  CG1       -7.6420    2.2960   88.7640 C.3   141  VAL141      0.0019
     71  CG2       -6.5690    4.4740   89.4750 C.3   141  VAL141      0.0019
     72  N          0.0840    4.4110   91.4880 N.3   196  LEU196     -0.1231
     73  CA         0.0770    3.8790   90.1370 C.3   196  LEU196      0.1693
     74  C          0.8050    2.5300   90.1740 C.2   196  LEU196      0.2593
     75  O          1.8280    2.3900   90.8960 O.2   196  LEU196     -0.2718
     76  CB         0.8120    4.7840   89.1800 C.3   196  LEU196      0.0284
     77  CG         0.2400    6.2110   89.0690 C.3   196  LEU196      0.0019
     78  CD1        1.1110    7.1060   88.1930 C.3   196  LEU196      0.0001
     79  CD2       -1.1630    6.1820   88.5390 C.3   196  LEU196      0.0001
     80  N          0.3790    1.5800   89.3690 N.am  197  THR197     -0.1939
     81  CA         1.0500    0.2590   89.3110 C.3   197  THR197      0.2028
     82  C          2.0530    0.1150   88.1820 C.2   197  THR197      0.2643
     83  O          2.6630   -0.9170   88.0190 O.2   197  THR197     -0.2714
     84  CB         0.0600   -0.8890   89.2010 C.3   197  THR197      0.1808
     85  OG1       -0.5490   -0.8200   87.8910 O.3   197  THR197     -0.2208
     86  CG2       -1.0180   -0.8710   90.2890 C.3   197  THR197      0.0379
     87  N          2.2610    1.2000   87.4480 N.am  198  THR198     -0.1937
     88  CA         3.3800    1.2850   86.4630 C.3   198  THR198      0.2013
     89  C          4.2030    2.4800   86.8200 C.2   198  THR198      0.2484
     90  O          3.7020    3.4380   87.4230 O.2   198  THR198     -0.2729
     91  CB         2.9260    1.4080   84.9920 C.3   198  THR198      0.1807
     92  OG1        2.3630    2.7010   84.7810 O.3   198  THR198     -0.2208
     93  CG2        1.9460    0.3680   84.6620 C.3   198  THR198      0.0379
     94  N          5.4670    2.5160   86.3730 N.am  199  PRO199     -0.2715
     95  CA         6.1760    3.8000   86.3410 C.3   199  PRO199      0.1521
     96  C          5.2860    4.9180   85.8100 C.2   199  PRO199      0.2440
     97  O          4.5780    4.7510   84.7910 O.2   199  PRO199     -0.2731
     98  CB         7.4450    3.4970   85.5250 C.3   199  PRO199      0.0310
     99  CG         7.6820    2.0100   85.7940 C.3   199  PRO199      0.0237
    100  CD         6.2580    1.4300   85.7640 C.3   199  PRO199      0.0939
    101  N          5.2910    6.0760   86.4570 N.am  200  PRO200     -0.2727
    102  CA         6.2370    6.5120   87.5070 C.3   200  PRO200      0.1402
    103  C          5.8890    6.1040   88.9490 C.2   200  PRO200      0.2269
    104  O          6.5900    6.5680   89.8780 O.2   200  PRO200     -0.2865
    105  CB         6.1740    8.0670   87.3510 C.3   200  PRO200      0.0296
    106  CG         4.7770    8.3130   86.8840 C.3   200  PRO200      0.0237
    107  CD         4.4880    7.2110   85.9250 C.3   200  PRO200      0.0939
    108  N          3.6900    6.7750   91.1120 N.3   202  LEU202     -0.1245
    109  CA         3.3650    7.8790   92.0250 C.3   202  LEU202      0.1561
    110  C          2.3330    7.4900   93.0330 C.2   202  LEU202      0.2260
    111  O          1.3550    6.7580   92.7110 O.2   202  LEU202     -0.2867
    112  CB         2.9410    9.1080   91.2330 C.3   202  LEU202      0.0270
    113  CG         4.0180    9.7080   90.2910 C.3   202  LEU202      0.0019
    114  CD1        3.4270   10.7700   89.3300 C.3   202  LEU202      0.0001
    115  CD2        5.1760   10.2780   91.1120 C.3   202  LEU202      0.0001
    116  N         -3.0000    7.5240   94.4440 N.3   205  VAL205     -0.1245
    117  CA        -4.2230    6.8080   94.1190 C.3   205  VAL205      0.1561
    118  C         -5.0090    6.3620   95.3620 C.2   205  VAL205      0.2260
    119  O         -4.4600    5.7290   96.2690 O.2   205  VAL205     -0.2867
    120  CB        -3.9100    5.5710   93.2300 C.3   205  VAL205      0.0252
    121  CG1       -5.2050    4.8560   92.8840 C.3   205  VAL205      0.0019
    122  CG2       -3.0950    5.9550   91.9970 C.3   205  VAL205      0.0019
    123  N         -7.4880    3.6060   95.7850 N.3   207  TRP207     -0.1241
    124  CA        -7.9310    2.3520   95.1330 C.3   207  TRP207      0.1605
    125  C         -9.2750    1.9680   95.6510 C.2   207  TRP207      0.2264
    126  O         -9.4680    1.9040   96.8500 O.2   207  TRP207     -0.2867
    127  CB        -6.9130    1.2240   95.3500 C.3   207  TRP207      0.0550
    128  CG        -5.7610    1.3470   94.3720 C.ar  207  TRP207      0.0003
    129  CD1       -4.5150    1.9020   94.5640 C.ar  207  TRP207      0.0946
    130  CD2       -5.7980    0.9320   93.0130 C.ar  207  TRP207      0.0152
    131  NE1       -3.8030    1.8900   93.4020 N.ar  207  TRP207     -0.2442
    132  CE2       -4.5370    1.2560   92.4310 C.ar  207  TRP207      0.0810
    133  CE3       -6.7640    0.2970   92.2160 C.ar  207  TRP207      0.0012
    134  CZ2       -4.2720    1.0200   91.0910 C.ar  207  TRP207      0.0191
    135  CZ3       -6.4680    0.0180   90.9480 C.ar  207  TRP207      0.0001
    136  CH2       -5.2520    0.4080   90.3760 C.ar  207  TRP207      0.0015
@<TRIPOS>BOND
     1     5     2    1
     2     5     6    1
     3    14    11    1
     4    14    15    1
     5     2     3    1
     6     2     1    1
     7    11    10    1
     8    11    12    1
     9     6     7    1
    10     3     4    2
    11     7     8    2
    12     7     9   am
    13    12    13    2
    14    15    16   ar
    15    15    17   ar
    16    16    18   ar
    17    17    19   ar
    18    20    21    1
    19    22    21    1
    20    22    23    2
    21    21    24    1
    22    18    19   ar
    23    33    32    2
    24    53    52   ar
    25    53    55   ar
    26    51    52    1
    27    51    48    1
    28    24    25    1
    29    26    25   ar
    30    26    28   ar
    31    52    54   ar
    32    55    57   ar
    33    25    27   ar
    34    28    29   ar
    35    93    91    1
    36    92    91    1
    37    97    96    2
    38    47    48    1
    39    27    29   ar
    40    43    42    2
    41    91    88    1
    42    46    44    1
    43    57    56   ar
    44    54    56   ar
    45    30    31    1
    46    32    31    1
    47    44    45    1
    48    44    41    1
    49    48    49    1
    50    40    41    1
    51    98    99    1
    52    98    95    1
    53   100    99    1
    54   100    94    1
    55    49    50    2
    56    31    34    1
    57    96    95    1
    58    96   101   am
    59   107   101    1
    60   107   106    1
    61    34    35    1
    62    41    42    1
    63    95    94    1
    64    94    89   am
    65   101   102    1
    66    88    89    1
    67    88    87    1
    68    36    35   ar
    69    36    38   ar
    70    35    37   ar
    71    89    90    2
    72   106   105    1
    73   105   102    1
    74    87    82   am
    75   102   103    1
    76    38    39   ar
    77    37    39   ar
    78    85    84    1
    79    63    62    1
    80    64    62    1
    81    83    82    2
    82    82    81    1
    83    78    77    1
    84    79    77    1
    85    70    69    1
    86    62    59    1
    87   103   104    2
    88    77    76    1
    89    76    73    1
    90    84    81    1
    91    84    86    1
    92    81    80    1
    93   114   113    1
    94    80    74   am
    95    71    69    1
    96    58    59    1
    97    69    66    1
    98    59    60    1
    99    73    74    1
   100    73    72    1
   101    74    75    2
   102    66    67    1
   103    66    65    1
   104   113   115    1
   105   113   112    1
   106   136   135   ar
   107   136   134   ar
   108    67    68    2
   109   135   133   ar
   110    60    61    2
   111   134   132   ar
   112   108   109    1
   113   112   109    1
   114   122   120    1
   115   109   110    1
   116   133   130   ar
   117   132   130   ar
   118   132   131   ar
   119   111   110    2
   120   121   120    1
   121   130   128   ar
   122   120   117    1
   123   131   129   ar
   124   117   116    1
   125   117   118    1
   126   128   129   ar
   127   128   127    1
   128   124   127    1
   129   124   125    1
   130   124   123    1
   131   118   119    2
   132   125   126    2
