@<TRIPOS>MOLECULE
tmp/6cehA01.pdb
 100 103 0 0 0
SMALL
GASTEIGER

@<TRIPOS>ATOM
      1  N         15.5950    7.8800   78.1450 N.3     1  SER1       -0.1217
      2  CA        14.1400    7.6620   77.8870 C.3     1  SER1        0.1889
      3  C         13.5910    6.4570   78.6590 C.2     1  SER1        0.2288
      4  O         14.3270    5.5690   79.0970 O.2     1  SER1       -0.2866
      5  CB        13.9100    7.4520   76.4010 C.3     1  SER1        0.2089
      6  OG        14.4370    6.2600   75.9270 O.3     1  SER1       -0.2183
      7  N         12.4100    2.9860   79.3760 N.3     3  HIS3       -0.1226
      8  CA        12.6160    1.6450   78.8140 C.3     3  HIS3        0.1752
      9  C         12.1950    0.5620   79.7590 C.2     3  HIS3        0.2596
     10  O         12.6200   -0.5690   79.6040 O.2     3  HIS3       -0.2718
     11  CB        14.0720    1.4120   78.3960 C.3     3  HIS3        0.0759
     12  CG        14.3850    2.1300   77.1620 C.ar    3  HIS3        0.0818
     13  ND1       13.5550    2.0370   76.0650 N.ar    3  HIS3       -0.2268
     14  CD2       15.2950    3.0860   76.8750 C.ar    3  HIS3        0.1154
     15  CE1       13.9880    2.8540   75.1250 C.ar    3  HIS3        0.1986
     16  NE2       15.0450    3.4990   75.5870 N.ar    3  HIS3       -0.2212
     17  N         11.3360    0.8860   80.7100 N.am    4  TRP4       -0.1976
     18  CA        10.7590   -0.1160   81.5720 C.3     4  TRP4        0.1640
     19  C          9.7130   -0.8940   80.7750 C.2     4  TRP4        0.2290
     20  O          9.1620   -0.4220   79.7930 O.2     4  TRP4       -0.2864
     21  CB        10.1130    0.5680   82.7480 C.3     4  TRP4        0.0576
     22  CG         8.8930    1.4290   82.4390 C.ar    4  TRP4        0.0006
     23  CD1        8.8700    2.7560   82.1370 C.ar    4  TRP4        0.0946
     24  CD2        7.5540    0.9790   82.3080 C.ar    4  TRP4        0.0152
     25  NE1        7.6040    3.1770   81.8720 N.ar    4  TRP4       -0.2442
     26  CE2        6.7540    2.1170   82.0010 C.ar    4  TRP4        0.0810
     27  CE3        6.9260   -0.2360   82.5750 C.ar    4  TRP4        0.0012
     28  CZ2        5.3640    2.0370   81.8810 C.ar    4  TRP4        0.0191
     29  CZ3        5.5360   -0.3150   82.4300 C.ar    4  TRP4        0.0001
     30  CH2        4.7930    0.8140   82.0760 C.ar    4  TRP4        0.0015
     31  N         14.2200   -8.4620   81.6020 N.3     9  HIS9       -0.1226
     32  CA        15.2790   -7.4920   81.6460 C.3     9  HIS9        0.1752
     33  C         14.8380   -6.0780   82.0070 C.2     9  HIS9        0.2596
     34  O         15.6790   -5.2190   82.2880 O.2     9  HIS9       -0.2718
     35  CB        16.1640   -7.6390   80.3870 C.3     9  HIS9        0.0759
     36  CG        16.6970   -9.0530   80.2440 C.ar    9  HIS9        0.0818
     37  ND1       17.7020   -9.5710   81.0650 N.ar    9  HIS9       -0.2268
     38  CD2       16.3700  -10.0610   79.3780 C.ar    9  HIS9        0.1154
     39  CE1       17.9600  -10.8260   80.7130 C.ar    9  HIS9        0.1986
     40  NE2       17.1590  -11.1560   79.7080 N.ar    9  HIS9       -0.2212
     41  N         13.5330   -5.7930   82.0400 N.am   10  ASN10      -0.1974
     42  CA        13.0740   -4.4200   82.2800 C.3    10  ASN10       0.1688
     43  C         11.7770   -4.4260   83.0710 C.2    10  ASN10       0.2292
     44  O         11.1230   -3.3900   83.1390 O.2    10  ASN10      -0.2864
     45  CB        12.8390   -3.6600   80.9410 C.3    10  ASN10       0.1181
     46  CG        11.7970   -4.3360   80.0470 C.2    10  ASN10       0.2629
     47  OD1       11.2060   -5.3290   80.4170 O.2    10  ASN10      -0.2716
     48  ND2       11.5340   -3.7510   78.8780 N.am   10  ASN10      -0.0877
     49  N         13.1720   -4.4980   88.1800 N.3    14  HIS14      -0.1226
     50  CA        14.1460   -3.5190   87.7530 C.3    14  HIS14       0.1752
     51  C         13.6920   -2.0870   87.9940 C.2    14  HIS14       0.2596
     52  O         14.5210   -1.1450   87.9230 O.2    14  HIS14      -0.2718
     53  CB        14.4950   -3.6520   86.2570 C.3    14  HIS14       0.0759
     54  CG        15.2710   -4.8690   85.9130 C.ar   14  HIS14       0.0818
     55  ND1       16.6550   -4.8820   85.9390 N.ar   14  HIS14      -0.2268
     56  CD2       14.8700   -6.0890   85.4950 C.ar   14  HIS14       0.1154
     57  CE1       17.0690   -6.0670   85.5470 C.ar   14  HIS14       0.1986
     58  NE2       16.0100   -6.8330   85.3130 N.ar   14  HIS14      -0.2212
     59  N         12.3670   -1.8730   88.0980 N.am   15  TRP15      -0.1976
     60  CA        11.8360   -0.5320   88.1160 C.3    15  TRP15       0.1640
     61  C         12.4140    0.4300   89.1200 C.2    15  TRP15       0.2290
     62  O         12.6020    1.6190   88.7940 O.2    15  TRP15      -0.2864
     63  CB        10.2930   -0.5520   88.2800 C.3    15  TRP15       0.0576
     64  CG         9.5470   -1.2410   87.1560 C.ar   15  TRP15       0.0006
     65  CD1       10.0460   -1.6260   85.9620 C.ar   15  TRP15       0.0946
     66  CD2        8.1700   -1.5630   87.1220 C.ar   15  TRP15       0.0152
     67  NE1        9.0830   -2.2090   85.1710 N.ar   15  TRP15      -0.2442
     68  CE2        7.9090   -2.1620   85.8560 C.ar   15  TRP15       0.0810
     69  CE3        7.1210   -1.3790   88.0330 C.ar   15  TRP15       0.0012
     70  CZ2        6.6370   -2.6100   85.5100 C.ar   15  TRP15       0.0191
     71  CZ3        5.8560   -1.8060   87.7070 C.ar   15  TRP15       0.0001
     72  CH2        5.6160   -2.3700   86.4420 C.ar   15  TRP15       0.0015
     73  N         15.3220    1.0680   90.0540 N.3    17  LYS17      -0.1231
     74  CA        16.5610    1.7460   89.6760 C.3    17  LYS17       0.1693
     75  C         16.3400    3.0790   88.9990 C.2    17  LYS17       0.2592
     76  O         17.1480    3.9870   89.1310 O.2    17  LYS17      -0.2718
     77  CB        17.3900    0.8360   88.8000 C.3    17  LYS17       0.0285
     78  CG        17.9350   -0.3540   89.5170 C.3    17  LYS17       0.0035
     79  CD        18.7380   -1.2910   88.6410 C.3    17  LYS17       0.0206
     80  CE        17.8530   -2.1850   87.8280 C.3    17  LYS17       0.1093
     81  NZ        18.5430   -3.0000   86.7810 N.3    17  LYS17      -0.1314
     82  N         15.2400    3.2110   88.2520 N.am   18  ASP18      -0.1960
     83  CA        14.8540    4.4980   87.6680 C.3    18  ASP18       0.1840
     84  C         13.6970    5.2100   88.3510 C.2    18  ASP18       0.2622
     85  O         13.5010    6.3950   88.1290 O.2    18  ASP18      -0.2715
     86  CB        14.6290    4.3530   86.1660 C.3    18  ASP18       0.1450
     87  CG        15.9360    4.0690   85.4480 C.2    18  ASP18       0.3671
     88  OD1       16.3140    2.8660   85.3070 O.co2  18  ASP18      -0.2456
     89  OD2       16.6130    5.0680   85.1030 O.co2  18  ASP18      -0.2456
     90  N         12.9830    4.4980   89.2150 N.am   19  PHE19      -0.1974
     91  CA        11.7890    4.9630   89.8960 C.3    19  PHE19       0.1639
     92  C         11.8800    4.4900   91.3200 C.2    19  PHE19       0.2290
     93  O         11.2390    3.5190   91.7020 O.2    19  PHE19      -0.2864
     94  CB        10.4890    4.4500   89.1900 C.3    19  PHE19       0.0560
     95  CG        10.4100    4.8330   87.7380 C.ar   19  PHE19      -0.0200
     96  CD1        9.9910    6.0800   87.3200 C.ar   19  PHE19      -0.0042
     97  CD2       10.8900    3.9190   86.7780 C.ar   19  PHE19      -0.0042
     98  CE1       10.0570    6.4330   85.9640 C.ar   19  PHE19      -0.0003
     99  CE2       10.9170    4.2380   85.4680 C.ar   19  PHE19      -0.0003
    100  CZ        10.4920    5.5060   85.0340 C.ar   19  PHE19      -0.0000
@<TRIPOS>BOND
     1    15    16   ar
     2    15    13   ar
     3    16    14   ar
     4     6     5    1
     5    13    12   ar
     6     5     2    1
     7    14    12   ar
     8    12    11    1
     9     2     1    1
    10     2     3    1
    11    11     8    1
    12     3     4    2
    13     8     7    1
    14     8     9    1
    15    48    46   am
    16    38    40   ar
    17    38    36   ar
    18    10     9    2
    19    40    39   ar
    20     9    17   am
    21    20    19    2
    22    46    47    2
    23    46    45    1
    24    36    35    1
    25    36    37   ar
    26    35    32    1
    27    17    18    1
    28    39    37   ar
    29    19    18    1
    30    45    42    1
    31    18    21    1
    32    31    32    1
    33    32    33    1
    34    25    26   ar
    35    25    23   ar
    36    28    26   ar
    37    28    30   ar
    38    26    24   ar
    39    33    41   am
    40    33    34    2
    41    41    42    1
    42    30    29   ar
    43    23    22   ar
    44    42    43    1
    45    24    22   ar
    46    24    27   ar
    47    29    27   ar
    48    22    21    1
    49    43    44    2
    50   100    99   ar
    51   100    98   ar
    52    89    87   ar
    53    67    68   ar
    54    67    65   ar
    55    88    87   ar
    56    58    56   ar
    57    58    57   ar
    58    87    86    1
    59    99    97   ar
    60    56    54   ar
    61    70    68   ar
    62    70    72   ar
    63    57    55   ar
    64    68    66   ar
    65    54    55   ar
    66    54    53    1
    67    65    64   ar
    68    98    96   ar
    69    86    83    1
    70    53    50    1
    71    72    71   ar
    72    97    95   ar
    73    81    80    1
    74    66    64   ar
    75    66    69   ar
    76    64    63    1
    77    96    95   ar
    78    83    82    1
    79    83    84    1
    80    71    69   ar
    81    95    94    1
    82    50    51    1
    83    50    49    1
    84    80    79    1
    85    52    51    2
    86    51    59   am
    87    59    60    1
    88    60    63    1
    89    60    61    1
    90    85    84    2
    91    82    75   am
    92    84    90   am
    93    79    78    1
    94    62    61    2
    95    77    78    1
    96    77    74    1
    97    75    76    2
    98    75    74    1
    99    94    91    1
   100    90    91    1
   101    74    73    1
   102    91    92    1
   103    92    93    2
