@<TRIPOS>MOLECULE
tmp/6cenA01.pdb
 227 230 0 0 0
SMALL
GASTEIGER

@<TRIPOS>ATOM
      1  N         22.1480   38.1780   47.3290 N.3    13  PRO13      -0.2103
      2  CA        23.4980   37.6480   47.2120 C.3    13  PRO13       0.1489
      3  C         24.5060   38.7350   46.8410 C.2    13  PRO13       0.2417
      4  O         24.1110   39.7410   46.2370 O.2    13  PRO13      -0.2734
      5  CB        23.3970   36.6330   46.0680 C.3    13  PRO13       0.0282
      6  CG        21.9570   36.3020   45.9460 C.3    13  PRO13       0.0208
      7  CD        21.1830   37.4640   46.4820 C.3    13  PRO13       0.0893
      8  N         25.7900   38.5230   47.1660 N.am   14  PRO14      -0.2729
      9  CA        26.8100   39.4270   46.6920 C.3    14  PRO14       0.1401
     10  C         26.8040   39.5330   45.1720 C.2    14  PRO14       0.2269
     11  O         26.3550   38.6070   44.4820 O.2    14  PRO14      -0.2865
     12  CB        28.1280   38.8120   47.1740 C.3    14  PRO14       0.0296
     13  CG        27.7770   37.7610   48.1500 C.3    14  PRO14       0.0237
     14  CD        26.3310   37.4510   48.0240 C.3    14  PRO14       0.0939
     15  N         21.7890   27.2520   56.1950 N.3    97  ARG97      -0.1231
     16  CA        23.1600   26.7760   56.3890 C.3    97  ARG97       0.1694
     17  C         23.9690   26.5440   55.1180 C.2    97  ARG97       0.2592
     18  O         25.1430   26.1720   55.1970 O.2    97  ARG97      -0.2718
     19  CB        23.1020   25.4910   57.1940 C.3    97  ARG97       0.0321
     20  CG        22.6670   25.7390   58.6230 C.3    97  ARG97       0.0489
     21  CD        23.8760   26.0240   59.5070 C.3    97  ARG97       0.2205
     22  NE        24.1750   24.8310   60.2920 N.pl3  97  ARG97      -0.0865
     23  CZ        25.2960   24.5910   60.9650 C.cat  97  ARG97       0.5346
     24  NH1       25.3850   23.4590   61.6540 N.pl3  97  ARG97       0.1354
     25  NH2       26.3260   25.4320   60.9420 N.pl3  97  ARG97       0.1354
     26  N         23.3470   26.7680   53.9690 N.am   98  ARG98      -0.1966
     27  CA        23.9600   26.5140   52.6690 C.3    98  ARG98       0.1729
     28  C         23.9080   27.7810   51.8020 C.2    98  ARG98       0.2617
     29  O         23.9980   27.7180   50.5860 O.2    98  ARG98      -0.2715
     30  CB        23.3100   25.3090   51.9830 C.3    98  ARG98       0.0348
     31  CG        23.4610   24.0110   52.7840 C.3    98  ARG98       0.0492
     32  CD        22.7240   22.8290   52.1810 C.3    98  ARG98       0.2205
     33  NE        21.2880   23.0650   52.2690 N.pl3  98  ARG98      -0.0865
     34  CZ        20.4840   23.4120   51.2760 C.cat  98  ARG98       0.5346
     35  NH1       20.8970   23.3800   50.0190 N.pl3  98  ARG98       0.1354
     36  NH2       19.2090   23.7150   51.5290 N.pl3  98  ARG98       0.1354
     37  N         23.8040   28.9370   52.4480 N.am   99  GLY99      -0.1940
     38  CA        23.8280   30.2100   51.7390 C.3    99  GLY99       0.2014
     39  C         22.6150   30.3620   50.8570 C.2    99  GLY99       0.2638
     40  O         21.5180   29.9120   51.1970 O.2    99  GLY99      -0.2714
     41  N         22.8270   30.9710   49.6950 N.am  100  TRP100     -0.1973
     42  CA        21.7960   31.0870   48.6910 C.3   100  TRP100      0.1640
     43  C         21.7450   29.7930   47.8700 C.2   100  TRP100      0.2290
     44  O         22.7660   29.1400   47.6800 O.2   100  TRP100     -0.2864
     45  CB        22.0900   32.2810   47.7870 C.3   100  TRP100      0.0576
     46  CG        22.0670   33.5360   48.5830 C.ar  100  TRP100      0.0006
     47  CD1       23.1340   34.1610   49.1640 C.ar  100  TRP100      0.0946
     48  CD2       20.9210   34.2970   48.9180 C.ar  100  TRP100      0.0152
     49  NE1       22.7170   35.2670   49.8340 N.ar  100  TRP100     -0.2442
     50  CE2       21.3620   35.3870   49.6970 C.ar  100  TRP100      0.0810
     51  CE3       19.5670   34.1750   48.6320 C.ar  100  TRP100      0.0012
     52  CZ2       20.4960   36.3480   50.1940 C.ar  100  TRP100      0.0191
     53  CZ3       18.6820   35.1530   49.1360 C.ar  100  TRP100      0.0001
     54  CH2       19.1590   36.2200   49.9010 C.ar  100  TRP100      0.0015
     55  N         26.1350   25.1770   33.0020 N.3   117  TYR117     -0.1241
     56  CA        27.0860   25.7570   33.9730 C.3   117  TYR117      0.1605
     57  C         28.0130   26.6980   33.2170 C.2   117  TYR117      0.2264
     58  O         28.8900   26.2490   32.4990 O.2   117  TYR117     -0.2867
     59  CB        27.8820   24.6720   34.7330 C.3   117  TYR117      0.0534
     60  CG        28.5110   25.1600   35.9900 C.ar  117  TYR117     -0.0201
     61  CD1       27.7950   25.1520   37.1860 C.ar  117  TYR117     -0.0009
     62  CD2       29.8220   25.6390   36.0080 C.ar  117  TYR117     -0.0009
     63  CE1       28.3440   25.6430   38.3570 C.ar  117  TYR117      0.0417
     64  CE2       30.4020   26.1170   37.1790 C.ar  117  TYR117      0.0417
     65  CZ        29.6750   26.0980   38.3560 C.ar  117  TYR117      0.1957
     66  OH        30.1890   26.5990   39.5230 O.3   117  TYR117     -0.2866
     67  N         34.5210   31.4260   51.5660 N.3   140  THR140     -0.1203
     68  CA        34.0910   30.0410   51.7640 C.3   140  THR140      0.1994
     69  C         33.1740   29.4770   50.6610 C.2   140  THR140      0.2618
     70  O         32.7810   28.3110   50.7190 O.2   140  THR140     -0.2717
     71  CB        33.4220   29.8930   53.1250 C.3   140  THR140      0.1784
     72  OG1       32.2420   30.6960   53.1560 O.3   140  THR140     -0.2211
     73  CG2       34.4060   30.3500   54.2370 C.3   140  THR140      0.0376
     74  N         32.8820   30.3010   49.6570 N.am  141  ASN141     -0.1960
     75  CA        32.0890   29.9040   48.5120 C.3   141  ASN141      0.1819
     76  C         33.0020   29.7600   47.3120 C.2   141  ASN141      0.2621
     77  O         33.7390   30.6800   46.9900 O.2   141  ASN141     -0.2715
     78  CB        31.0170   30.9490   48.2550 C.3   141  ASN141      0.1195
     79  CG        29.9070   30.8720   49.2800 C.2   141  ASN141      0.2630
     80  OD1       29.0250   30.0480   49.1710 O.2   141  ASN141     -0.2716
     81  ND2       29.9720   31.7140   50.2910 N.am  141  ASN141     -0.0877
     82  N         32.9400   28.5940   46.6770 N.am  142  PHE142     -0.1960
     83  CA        33.7380   28.2780   45.5030 C.3   142  PHE142      0.1771
     84  C         32.8430   27.8220   44.3830 C.2   142  PHE142      0.2619
     85  O         31.8690   27.1180   44.6360 O.2   142  PHE142     -0.2715
     86  CB        34.7760   27.2510   45.8600 C.3   142  PHE142      0.0574
     87  CG        35.7870   27.7840   46.8150 C.ar  142  PHE142     -0.0200
     88  CD1       35.5550   27.7190   48.1780 C.ar  142  PHE142     -0.0042
     89  CD2       36.9340   28.4320   46.3550 C.ar  142  PHE142     -0.0042
     90  CE1       36.4780   28.2430   49.0860 C.ar  142  PHE142     -0.0003
     91  CE2       37.8520   28.9590   47.2630 C.ar  142  PHE142     -0.0003
     92  CZ        37.6180   28.8700   48.6210 C.ar  142  PHE142     -0.0000
     93  N         33.1390   28.2910   43.1620 N.am  143  TYR143     -0.1974
     94  CA        32.2820   28.0890   41.9890 C.3   143  TYR143      0.1639
     95  C         33.0660   27.4980   40.8080 C.2   143  TYR143      0.2290
     96  O         32.6400   27.6270   39.6550 O.2   143  TYR143     -0.2864
     97  CB        31.6520   29.4250   41.5530 C.3   143  TYR143      0.0560
     98  CG        30.9100   30.1590   42.6400 C.ar  143  TYR143     -0.0198
     99  CD1       31.5900   30.8630   43.6020 C.ar  143  TYR143     -0.0009
    100  CD2       29.5030   30.1730   42.6850 C.ar  143  TYR143     -0.0009
    101  CE1       30.9130   31.5280   44.6090 C.ar  143  TYR143      0.0417
    102  CE2       28.8060   30.8350   43.6880 C.ar  143  TYR143      0.0417
    103  CZ        29.4970   31.5140   44.6580 C.ar  143  TYR143      0.1957
    104  OH        28.8190   32.1890   45.6820 O.3   143  TYR143     -0.2866
    105  N         22.7560   28.7300   37.4750 N.3   162  SER162     -0.1202
    106  CA        23.4250   27.4990   37.9310 C.3   162  SER162      0.2020
    107  C         24.4590   27.6930   39.0310 C.2   162  SER162      0.2619
    108  O         24.6940   26.7450   39.8030 O.2   162  SER162     -0.2717
    109  CB        24.0650   26.7340   36.7570 C.3   162  SER162      0.2103
    110  OG        25.1080   27.5010   36.1790 O.3   162  SER162     -0.2182
    111  N         25.0200   28.9100   39.1750 N.am  163  ARG163     -0.1965
    112  CA        26.0440   29.1840   40.1820 C.3   163  ARG163      0.1729
    113  C         25.4580   29.0680   41.5910 C.2   163  ARG163      0.2616
    114  O         26.2030   28.9640   42.5700 O.2   163  ARG163     -0.2715
    115  CB        26.6750   30.5700   40.0090 C.3   163  ARG163      0.0348
    116  CG        25.7710   31.7140   40.4270 C.3   163  ARG163      0.0492
    117  CD        26.3390   33.0250   39.9750 C.3   163  ARG163      0.2205
    118  NE        27.5630   33.3650   40.6760 N.pl3 163  ARG163     -0.0865
    119  CZ        27.5940   33.9360   41.8740 C.cat 163  ARG163      0.5346
    120  NH1       26.4840   34.0890   42.5870 N.pl3 163  ARG163      0.1354
    121  NH2       28.7490   34.2760   42.3990 N.pl3 163  ARG163      0.1354
    122  N         24.1320   29.1610   41.6730 N.am  164  PHE164     -0.1960
    123  CA        23.4300   29.0440   42.9470 C.3   164  PHE164      0.1771
    124  C         23.0580   27.6460   43.3560 C.2   164  PHE164      0.2619
    125  O         22.5860   27.4640   44.4700 O.2   164  PHE164     -0.2715
    126  CB        22.1790   29.9430   42.9580 C.3   164  PHE164      0.0574
    127  CG        22.4990   31.4140   42.9720 C.ar  164  PHE164     -0.0200
    128  CD1       22.9950   32.0090   44.1210 C.ar  164  PHE164     -0.0042
    129  CD2       22.3830   32.1870   41.8330 C.ar  164  PHE164     -0.0042
    130  CE1       23.2930   33.3520   44.1570 C.ar  164  PHE164     -0.0003
    131  CE2       22.6820   33.5300   41.8640 C.ar  164  PHE164     -0.0003
    132  CZ        23.1480   34.1110   43.0160 C.ar  164  PHE164     -0.0000
    133  N         23.2580   26.6470   42.5070 N.am  165  MET165     -0.1963
    134  CA        22.8530   25.2890   42.8490 C.3   165  MET165      0.1736
    135  C         23.7870   24.6910   43.8710 C.2   165  MET165      0.2616
    136  O         25.0040   24.6370   43.6720 O.2   165  MET165     -0.2715
    137  CB        22.7950   24.4290   41.5900 C.3   165  MET165      0.0427
    138  CG        21.5510   24.7760   40.7800 C.3   165  MET165      0.0599
    139  SD        21.4500   23.9540   39.1970 S.3   165  MET165     -0.1393
    140  CE        21.3880   22.2390   39.7210 C.3   165  MET165      0.0692
    141  N         23.2220   24.2940   45.0030 N.am  166  ASN166     -0.1958
    142  CA        24.0100   23.6850   46.0540 C.3   166  ASN166      0.1819
    143  C         24.3580   22.2180   45.8320 C.2   166  ASN166      0.2621
    144  O         23.7260   21.4990   45.0270 O.2   166  ASN166     -0.2715
    145  CB        23.3300   23.9070   47.3860 C.3   166  ASN166      0.1195
    146  CG        23.4850   25.3260   47.8640 C.2   166  ASN166      0.2630
    147  OD1       24.5760   25.8890   47.7760 O.2   166  ASN166     -0.2716
    148  ND2       22.4150   25.9170   48.3780 N.am  166  ASN166     -0.0877
    149  N         25.3750   21.7800   46.5760 N.am  167  HIS167     -0.1973
    150  CA        25.7850   20.3670   46.6110 C.3   167  HIS167      0.1656
    151  C         24.8030   19.5350   47.3990 C.2   167  HIS167      0.2291
    152  O         24.3960   19.9430   48.4790 O.2   167  HIS167     -0.2864
    153  CB        27.1610   20.1960   47.2560 C.3   167  HIS167      0.0771
    154  CG        27.4770   18.7800   47.5940 C.ar  167  HIS167      0.0820
    155  ND1       27.9330   17.8860   46.6550 N.ar  167  HIS167     -0.2267
    156  CD2       27.3040   18.0740   48.7330 C.ar  167  HIS167      0.1154
    157  CE1       28.0610   16.6940   47.2130 C.ar  167  HIS167      0.1986
    158  NE2       27.6740   16.7830   48.4700 N.ar  167  HIS167     -0.2212
    159  N         23.1710   19.3640   42.8500 N.3   202  PHE202     -0.1241
    160  CA        23.9600   18.3390   42.1710 C.3   202  PHE202      0.1605
    161  C         25.1110   17.8870   43.0640 C.2   202  PHE202      0.2264
    162  O         25.4560   18.5750   44.0520 O.2   202  PHE202     -0.2867
    163  CB        24.3700   18.8110   40.7840 C.3   202  PHE202      0.0534
    164  CG        25.3990   19.9230   40.7430 C.ar  202  PHE202     -0.0203
    165  CD1       25.0310   21.2400   41.0090 C.ar  202  PHE202     -0.0042
    166  CD2       26.7060   19.6700   40.3480 C.ar  202  PHE202     -0.0042
    167  CE1       25.9440   22.2710   40.8890 C.ar  202  PHE202     -0.0003
    168  CE2       27.6340   20.7100   40.2240 C.ar  202  PHE202     -0.0003
    169  CZ        27.2530   22.0120   40.4980 C.ar  202  PHE202     -0.0000
    170  N         28.7800   17.8200   43.6220 N.3   204  TYR204     -0.1241
    171  CA        29.9820   18.5540   43.2020 C.3   204  TYR204      0.1605
    172  C         31.1690   17.6560   42.8560 C.2   204  TYR204      0.2264
    173  O         32.0180   18.0660   42.1000 O.2   204  TYR204     -0.2867
    174  CB        30.4120   19.5290   44.2820 C.3   204  TYR204      0.0534
    175  CG        29.5470   20.7740   44.4720 C.ar  204  TYR204     -0.0201
    176  CD1       28.3210   20.9420   43.8350 C.ar  204  TYR204     -0.0009
    177  CD2       29.9360   21.7410   45.3940 C.ar  204  TYR204     -0.0009
    178  CE1       27.5380   22.0820   44.0620 C.ar  204  TYR204      0.0417
    179  CE2       29.1730   22.8630   45.6380 C.ar  204  TYR204      0.0417
    180  CZ        27.9790   23.0440   44.9710 C.ar  204  TYR204      0.1957
    181  OH        27.2580   24.1920   45.2450 O.3   204  TYR204     -0.2866
    182  N         35.1100   20.8760   54.0890 N.3   212  THR212     -0.1203
    183  CA        34.0120   21.7470   54.5650 C.3   212  THR212      0.1994
    184  C         32.8440   20.8560   54.9840 C.2   212  THR212      0.2618
    185  O         32.6290   19.8070   54.3920 O.2   212  THR212     -0.2717
    186  CB        33.4780   22.6550   53.4290 C.3   212  THR212      0.1784
    187  OG1       34.5460   23.4010   52.8400 O.3   212  THR212     -0.2211
    188  CG2       32.4000   23.6380   53.9110 C.3   212  THR212      0.0376
    189  N         32.0720   21.2950   55.9720 N.am  213  GLU213     -0.1965
    190  CA        30.9260   20.5320   56.4450 C.3   213  GLU213      0.1733
    191  C         29.7720   20.5860   55.4270 C.2   213  GLU213      0.2616
    192  O         29.4900   21.6400   54.8650 O.2   213  GLU213     -0.2715
    193  CB        30.4870   21.1040   57.7890 C.3   213  GLU213      0.0429
    194  CG        29.3180   20.4310   58.4880 C.3   213  GLU213      0.1163
    195  CD        29.1200   20.9700   59.9040 C.2   213  GLU213      0.3649
    196  OE1       29.8450   21.9060   60.2930 O.co2 213  GLU213     -0.2457
    197  OE2       28.2430   20.4600   60.6320 O.co2 213  GLU213     -0.2457
    198  N         29.0900   19.4600   55.2290 N.am  214  CYS214     -0.1954
    199  CA        27.9300   19.4020   54.3430 C.3   214  CYS214      0.1843
    200  C         26.6450   19.4490   55.1460 C.2   214  CYS214      0.2625
    201  O         26.5040   18.7050   56.1230 O.2   214  CYS214     -0.2714
    202  CB        27.9470   18.1410   53.4700 C.3   214  CYS214      0.0997
    203  SG        26.6090   18.0850   52.2560 S.3   214  CYS214     -0.0797
    204  N         25.7090   20.3000   54.7310 N.am  215  HIS215     -0.1959
    205  CA        24.3720   20.3980   55.3230 C.3   215  HIS215      0.1787
    206  C         23.2520   19.9930   54.3880 C.2   215  HIS215      0.2620
    207  O         22.1080   20.4830   54.4870 O.2   215  HIS215     -0.2715
    208  CB        24.1510   21.7970   55.9080 C.3   215  HIS215      0.0785
    209  CG        25.1520   22.1580   56.9500 C.ar  215  HIS215      0.0821
    210  ND1       25.1420   21.5860   58.2020 N.ar  215  HIS215     -0.2267
    211  CD2       26.1900   23.0240   56.9390 C.ar  215  HIS215      0.1154
    212  CE1       26.1470   22.0670   58.9070 C.ar  215  HIS215      0.1986
    213  NE2       26.7940   22.9450   58.1670 N.ar  215  HIS215     -0.2212
    214  N         23.5430   19.0530   53.4720 N.am  216  CYS216     -0.1968
    215  CA        22.5440   18.7050   52.4700 C.3   216  CYS216      0.1712
    216  C         21.3240   18.0020   53.0370 C.2   216  CYS216      0.2296
    217  O         20.2520   18.0380   52.4480 O.2   216  CYS216     -0.2864
    218  CB        23.1390   17.8710   51.3170 C.3   216  CYS216      0.0983
    219  SG        23.4620   16.1250   51.6880 S.3   216  CYS216     -0.0798
    220  N         31.5860   18.2110   52.3600 N.3   225  LEU225     -0.1245
    221  CA        31.1290   18.8090   51.1690 C.3   225  LEU225      0.1561
    222  C         31.8440   18.2010   49.9850 C.2   225  LEU225      0.2260
    223  O         33.0500   17.9040   50.0360 O.2   225  LEU225     -0.2867
    224  CB        31.3380   20.3170   51.2630 C.3   225  LEU225      0.0270
    225  CG        30.7040   21.1260   50.1720 C.3   225  LEU225      0.0019
    226  CD1       29.1970   21.0260   50.2810 C.3   225  LEU225      0.0001
    227  CD2       31.1750   22.5680   50.2860 C.3   225  LEU225      0.0001
@<TRIPOS>BOND
     1    58    57    2
     2    55    56    1
     3    57    56    1
     4    56    59    1
     5    59    60    1
     6    60    62   ar
     7    60    61   ar
     8    62    64   ar
     9   110   109    1
    10   109   106    1
    11    64    65   ar
    12    61    63   ar
    13   105   106    1
    14   106   107    1
    15    65    63   ar
    16    65    66    1
    17   107   111   am
    18   107   108    2
    19   111   112    1
    20   139   140    1
    21   139   138    1
    22    96    95    2
    23   117   116    1
    24   117   118    1
    25   115   112    1
    26   115   116    1
    27   112   113    1
    28   168   166   ar
    29   168   169   ar
    30   166   164   ar
    31   169   167   ar
    32   118   119    2
    33   164   163    1
    34   164   165   ar
    35   138   137    1
    36   163   160    1
    37    95    94    1
    38   167   165   ar
    39    97    94    1
    40    97    98    1
    41   137   134    1
    42   113   122   am
    43   113   114    2
    44   122   123    1
    45   129   131   ar
    46   129   127   ar
    47   131   132   ar
    48   119   121    1
    49   119   120    1
    50    94    93    1
    51   173   172    2
    52   160   159    1
    53   160   161    1
    54   133   134    1
    55   133   124   am
    56    98   100   ar
    57    98    99   ar
    58   100   102   ar
    59   134   135    1
    60   172   171    1
    61   123   126    1
    62   123   124    1
    63   126   127    1
    64   127   128   ar
    65   132   130   ar
    66   161   162    2
    67    93    84   am
    68   171   170    1
    69   171   174    1
    70   124   125    2
    71    99   101   ar
    72   136   135    2
    73   102   103   ar
    74   176   178   ar
    75   176   175   ar
    76   135   141   am
    77   178   180   ar
    78   128   130   ar
    79   174   175    1
    80    84    85    2
    81    84    83    1
    82   175   177   ar
    83    11    10    2
    84   101   103   ar
    85   103   104    1
    86   180   181    1
    87   180   179   ar
    88   141   142    1
    89   144   143    2
    90    10     9    1
    91   177   179   ar
    92    83    86    1
    93    83    82    1
    94   143   142    1
    95   143   149   am
    96    86    87    1
    97     6     5    1
    98     6     7    1
    99   142   145    1
   100     5     2    1
   101     4     3    2
   102    89    87   ar
   103    89    91   ar
   104     7     1    1
   105   149   150    1
   106   150   153    1
   107   150   151    1
   108   155   157   ar
   109   155   154   ar
   110    82    76   am
   111     9     8    1
   112     9    12    1
   113    87    88   ar
   114     3     8   am
   115     3     2    1
   116    77    76    2
   117     8    14    1
   118    12    13    1
   119     2     1    1
   120   157   158   ar
   121   153   154    1
   122    91    92   ar
   123    76    75    1
   124   145   146    1
   125   151   152    2
   126   154   156   ar
   127    44    43    2
   128   147   146    2
   129    45    46    1
   130    45    42    1
   131   146   148   am
   132    43    42    1
   133    14    13    1
   134    88    90   ar
   135    78    75    1
   136    78    79    1
   137   158   156   ar
   138    75    74    1
   139    46    48   ar
   140    46    47   ar
   141    92    90   ar
   142    51    48   ar
   143    51    53   ar
   144    42    41    1
   145    48    50   ar
   146    53    54   ar
   147    47    49   ar
   148    80    79    2
   149    79    81   am
   150    74    69   am
   151    41    39   am
   152    50    49   ar
   153    50    52   ar
   154    54    52   ar
   155   222   223    2
   156   222   221    1
   157    35    34    1
   158   225   226    1
   159   225   227    1
   160   225   224    1
   161    29    28    2
   162    69    70    2
   163    69    68    1
   164    39    40    2
   165    39    38    1
   166   221   224    1
   167   221   220    1
   168    34    36    1
   169    34    33    2
   170   218   219    1
   171   218   215    1
   172    67    68    1
   173    38    37    1
   174    68    71    1
   175    28    37   am
   176    28    27    1
   177    30    27    1
   178    30    31    1
   179    32    33    1
   180    32    31    1
   181   203   202    1
   182   217   216    2
   183   215   216    1
   184   215   214    1
   185    27    26    1
   186   187   186    1
   187    71    72    1
   188    71    73    1
   189   186   188    1
   190   186   183    1
   191   202   199    1
   192   214   206   am
   193    26    17   am
   194   182   183    1
   195   199   200    1
   196   199   198    1
   197   206   207    2
   198   206   205    1
   199   185   184    2
   200   183   184    1
   201   204   200   am
   202   204   205    1
   203   192   191    2
   204   184   189   am
   205    17    18    2
   206    17    16    1
   207   200   201    2
   208   198   191   am
   209   205   208    1
   210   191   190    1
   211   208   209    1
   212   189   190    1
   213    15    16    1
   214    16    19    1
   215   190   193    1
   216   211   209   ar
   217   211   213   ar
   218   209   210   ar
   219    19    20    1
   220   193   194    1
   221   213   212   ar
   222   210   212   ar
   223   194   195    1
   224    20    21    1
   225    21    22    1
   226   195   196   ar
   227   195   197   ar
   228    22    23    2
   229    25    23    1
   230    23    24    1
