@<TRIPOS>MOLECULE
tmp/6cenA00.pdb
 215 211 0 0 0
SMALL
GASTEIGER

@<TRIPOS>ATOM
      1  N         26.1350   25.1770   33.0020 N.3   117  TYR117     -0.1241
      2  CA        27.0860   25.7570   33.9730 C.3   117  TYR117      0.1605
      3  C         28.0130   26.6980   33.2170 C.2   117  TYR117      0.2264
      4  O         28.8900   26.2490   32.4990 O.2   117  TYR117     -0.2867
      5  CB        27.8820   24.6720   34.7330 C.3   117  TYR117      0.0534
      6  CG        28.5110   25.1600   35.9900 C.ar  117  TYR117     -0.0201
      7  CD1       27.7950   25.1520   37.1860 C.ar  117  TYR117     -0.0009
      8  CD2       29.8220   25.6390   36.0080 C.ar  117  TYR117     -0.0009
      9  CE1       28.3440   25.6430   38.3570 C.ar  117  TYR117      0.0417
     10  CE2       30.4020   26.1170   37.1790 C.ar  117  TYR117      0.0417
     11  CZ        29.6750   26.0980   38.3560 C.ar  117  TYR117      0.1957
     12  OH        30.1890   26.5990   39.5230 O.3   117  TYR117     -0.2866
     13  N         43.1250   29.1170   38.1210 N.3   127  CYS127     -0.1235
     14  CA        42.2340   28.4880   39.1260 C.3   127  CYS127      0.1677
     15  C         42.9000   28.4560   40.5040 C.2   127  CYS127      0.2270
     16  O         42.3260   28.9000   41.5140 O.2   127  CYS127     -0.2867
     17  CB        41.8440   27.0830   38.6860 C.3   127  CYS127      0.0956
     18  SG        40.8570   26.2140   39.9220 S.3   127  CYS127     -0.0801
     19  N         41.8530   30.4580   44.0230 N.3   131  ILE131     -0.1245
     20  CA        41.6220   29.7200   45.2490 C.3   131  ILE131      0.1561
     21  C         42.5230   30.2290   46.3880 C.2   131  ILE131      0.2260
     22  O         42.0450   30.4190   47.5040 O.2   131  ILE131     -0.2867
     23  CB        41.7510   28.1990   45.0210 C.3   131  ILE131      0.0252
     24  CG1       40.5690   27.7250   44.1490 C.3   131  ILE131      0.0019
     25  CG2       41.7940   27.4500   46.3420 C.3   131  ILE131      0.0019
     26  CD1       40.5980   26.2720   43.7290 C.3   131  ILE131      0.0001
     27  N         41.2170   31.9440   49.8550 N.3   135  HIS135     -0.1241
     28  CA        41.6640   31.5480   51.2140 C.3   135  HIS135      0.1621
     29  C         42.2810   32.7000   52.0180 C.2   135  HIS135      0.2264
     30  O         41.9990   32.8480   53.2110 O.2   135  HIS135     -0.2867
     31  CB        42.6240   30.3600   51.1600 C.3   135  HIS135      0.0745
     32  CG        41.9560   29.0810   50.7820 C.ar  135  HIS135      0.0817
     33  ND1       40.7920   28.6480   51.3820 N.ar  135  HIS135     -0.2268
     34  CD2       42.2680   28.1510   49.8500 C.ar  135  HIS135      0.1154
     35  CE1       40.4210   27.5010   50.8420 C.ar  135  HIS135      0.1986
     36  NE2       41.3010   27.1780   49.9120 N.ar  135  HIS135     -0.2212
     37  N         32.9400   28.5940   46.6770 N.3   142  PHE142     -0.1227
     38  CA        33.7380   28.2780   45.5030 C.3   142  PHE142      0.1736
     39  C         32.8430   27.8220   44.3830 C.2   142  PHE142      0.2595
     40  O         31.8690   27.1180   44.6360 O.2   142  PHE142     -0.2718
     41  CB        34.7760   27.2510   45.8600 C.3   142  PHE142      0.0547
     42  CG        35.7870   27.7840   46.8150 C.ar  142  PHE142     -0.0202
     43  CD1       35.5550   27.7190   48.1780 C.ar  142  PHE142     -0.0042
     44  CD2       36.9340   28.4320   46.3550 C.ar  142  PHE142     -0.0042
     45  CE1       36.4780   28.2430   49.0860 C.ar  142  PHE142     -0.0003
     46  CE2       37.8520   28.9590   47.2630 C.ar  142  PHE142     -0.0003
     47  CZ        37.6180   28.8700   48.6210 C.ar  142  PHE142     -0.0000
     48  N         33.1390   28.2910   43.1620 N.am  143  TYR143     -0.1962
     49  CA        32.2820   28.0890   41.9890 C.3   143  TYR143      0.1771
     50  C         33.0660   27.4980   40.8080 C.2   143  TYR143      0.2619
     51  O         32.6400   27.6270   39.6550 O.2   143  TYR143     -0.2715
     52  CB        31.6520   29.4250   41.5530 C.3   143  TYR143      0.0574
     53  CG        30.9100   30.1590   42.6400 C.ar  143  TYR143     -0.0198
     54  CD1       31.5900   30.8630   43.6020 C.ar  143  TYR143     -0.0009
     55  CD2       29.5030   30.1730   42.6850 C.ar  143  TYR143     -0.0009
     56  CE1       30.9130   31.5280   44.6090 C.ar  143  TYR143      0.0417
     57  CE2       28.8060   30.8350   43.6880 C.ar  143  TYR143      0.0417
     58  CZ        29.4970   31.5140   44.6580 C.ar  143  TYR143      0.1957
     59  OH        28.8190   32.1890   45.6820 O.3   143  TYR143     -0.2866
     60  N         34.1840   26.8280   41.1140 N.am  144  MET144     -0.1963
     61  CA        35.1140   26.2890   40.1040 C.3   144  MET144      0.1736
     62  C         34.7260   24.8920   39.7030 C.2   144  MET144      0.2616
     63  O         34.5320   24.0660   40.5680 O.2   144  MET144     -0.2715
     64  CB        36.5180   26.1450   40.6860 C.3   144  MET144      0.0427
     65  CG        37.0980   27.3780   41.2690 C.3   144  MET144      0.0599
     66  SD        37.5920   28.4360   39.9350 S.3   144  MET144     -0.1393
     67  CE        38.8520   29.3250   40.8090 C.3   144  MET144      0.0692
     68  N         34.6630   24.6090   38.4040 N.am  145  LEU145     -0.1963
     69  CA        34.3640   23.2640   37.9160 C.3   145  LEU145      0.1728
     70  C         35.3200   22.9160   36.7790 C.2   145  LEU145      0.2617
     71  O         35.4440   23.6800   35.8230 O.2   145  LEU145     -0.2715
     72  CB        32.8970   23.1830   37.4610 C.3   145  LEU145      0.0311
     73  CG        32.3190   21.8810   36.8860 C.3   145  LEU145      0.0022
     74  CD1       30.8310   21.7440   37.2060 C.3   145  LEU145      0.0001
     75  CD2       32.5380   21.7950   35.3910 C.3   145  LEU145      0.0001
     76  N         35.9940   21.7600   36.8960 N.am  146  THR146     -0.1937
     77  CA        36.9090   21.2880   35.8450 C.3   146  THR146      0.2028
     78  C         36.1430   20.7060   34.6750 C.2   146  THR146      0.2642
     79  O         35.3220   19.8180   34.8480 O.2   146  THR146     -0.2714
     80  CB        37.8420   20.2120   36.4270 C.3   146  THR146      0.1808
     81  OG1       38.5740   20.7900   37.5030 O.3   146  THR146     -0.2208
     82  CG2       38.8090   19.7010   35.4090 C.3   146  THR146      0.0379
     83  N         36.4100   21.2010   33.4690 N.am  147  VAL147     -0.1977
     84  CA        35.8370   20.6180   32.2600 C.3   147  VAL147      0.1596
     85  C         36.8600   19.6240   31.7200 C.2   147  VAL147      0.2287
     86  O         36.5350   18.4550   31.4940 O.2   147  VAL147     -0.2864
     87  CB        35.4940   21.6810   31.1970 C.3   147  VAL147      0.0276
     88  CG1       34.7880   21.0280   30.0270 C.3   147  VAL147      0.0022
     89  CG2       34.6150   22.7830   31.7950 C.3   147  VAL147      0.0022
     90  N         38.8390   25.2460   33.2200 N.3   152  ILE152     -0.1245
     91  CA        38.0090   25.2570   34.4310 C.3   152  ILE152      0.1561
     92  C         37.0030   26.3950   34.2780 C.2   152  ILE152      0.2260
     93  O         37.3730   27.4870   33.8400 O.2   152  ILE152     -0.2867
     94  CB        38.8850   25.4560   35.6710 C.3   152  ILE152      0.0252
     95  CG1       39.7650   24.2110   35.8700 C.3   152  ILE152      0.0019
     96  CG2       38.0450   25.6900   36.9150 C.3   152  ILE152      0.0019
     97  CD1       41.1830   24.5140   36.2550 C.3   152  ILE152      0.0001
     98  N         23.2580   26.6470   42.5070 N.3   165  MET165     -0.1245
     99  CA        22.8530   25.2890   42.8490 C.3   165  MET165      0.1570
    100  C         23.7870   24.6910   43.8710 C.2   165  MET165      0.2261
    101  O         25.0040   24.6370   43.6720 O.2   165  MET165     -0.2867
    102  CB        22.7950   24.4290   41.5900 C.3   165  MET165      0.0387
    103  CG        21.5510   24.7760   40.7800 C.3   165  MET165      0.0595
    104  SD        21.4500   23.9540   39.1970 S.3   165  MET165     -0.1393
    105  CE        21.3880   22.2390   39.7210 C.3   165  MET165      0.0692
    106  N         22.5990   16.3190   37.7730 N.3   174  GLU174     -0.1231
    107  CA        24.0070   15.9570   37.6130 C.3   174  GLU174      0.1699
    108  C         24.5980   16.7740   36.5060 C.2   174  GLU174      0.2593
    109  O         23.8870   17.2420   35.6340 O.2   174  GLU174     -0.2718
    110  CB        24.2010   14.4460   37.2820 C.3   174  GLU174      0.0402
    111  CG        23.6700   14.0020   35.9230 C.3   174  GLU174      0.1161
    112  CD        24.0360   12.5700   35.5410 C.2   174  GLU174      0.3649
    113  OE1       24.7440   11.8680   36.3010 O.co2 174  GLU174     -0.2457
    114  OE2       23.5710   12.1350   34.4760 O.co2 174  GLU174     -0.2457
    115  N         25.9100   16.9580   36.5520 N.am  175  THR175     -0.1939
    116  CA        26.6310   17.6360   35.4660 C.3   175  THR175      0.2028
    117  C         26.9880   16.6020   34.3880 C.2   175  THR175      0.2642
    118  O         27.2550   15.4250   34.6950 O.2   175  THR175     -0.2714
    119  CB        27.9220   18.2950   35.9620 C.3   175  THR175      0.1808
    120  OG1       28.6080   17.3730   36.8100 O.3   175  THR175     -0.2208
    121  CG2       27.5990   19.5510   36.7640 C.3   175  THR175      0.0379
    122  N         26.9830   17.0500   33.1380 N.am  176  GLN176     -0.1963
    123  CA        27.4570   16.2490   32.0030 C.3   176  GLN176      0.1733
    124  C         28.2430   17.1430   31.0730 C.2   176  GLN176      0.2616
    125  O         27.8820   18.2990   30.8680 O.2   176  GLN176     -0.2715
    126  CB        26.3040   15.6520   31.2110 C.3   176  GLN176      0.0408
    127  CG        25.4170   14.7250   32.0010 C.3   176  GLN176      0.0908
    128  CD        24.2600   14.1920   31.1880 C.2   176  GLN176      0.2608
    129  OE1       24.1880   14.4270   29.9870 O.2   176  GLN176     -0.2717
    130  NE2       23.3350   13.4550   31.8430 N.am  176  GLN176     -0.0878
    131  N         29.2820   16.5630   30.4810 N.am  177  LYS177     -0.1977
    132  CA        30.1360   17.2180   29.5170 C.3   177  LYS177      0.1596
    133  C         29.5780   16.9400   28.1360 C.2   177  LYS177      0.2287
    134  O         29.4250   15.7750   27.7380 O.2   177  LYS177     -0.2864
    135  CB        31.5480   16.6360   29.6410 C.3   177  LYS177      0.0298
    136  CG        32.5400   17.2570   28.6920 C.3   177  LYS177      0.0038
    137  CD        33.9980   17.0960   29.1360 C.3   177  LYS177      0.0206
    138  CE        34.4080   15.6900   29.5260 C.3   177  LYS177      0.1093
    139  NZ        35.6920   15.7570   30.2980 N.3   177  LYS177     -0.1314
    140  N         29.2250   22.3960   29.7950 N.3   186  VAL186     -0.1245
    141  CA        28.7430   21.6000   30.9030 C.3   186  VAL186      0.1561
    142  C         27.2670   21.8840   31.1220 C.2   186  VAL186      0.2260
    143  O         26.8490   23.0460   31.3140 O.2   186  VAL186     -0.2867
    144  CB        29.5350   21.8980   32.1810 C.3   186  VAL186      0.0252
    145  CG1       29.0470   21.0160   33.3350 C.3   186  VAL186      0.0019
    146  CG2       31.0280   21.6980   31.9690 C.3   186  VAL186      0.0019
    147  N         23.1710   19.3640   42.8500 N.3   202  PHE202     -0.1227
    148  CA        23.9600   18.3390   42.1710 C.3   202  PHE202      0.1736
    149  C         25.1110   17.8870   43.0640 C.2   202  PHE202      0.2595
    150  O         25.4560   18.5750   44.0520 O.2   202  PHE202     -0.2718
    151  CB        24.3700   18.8110   40.7840 C.3   202  PHE202      0.0547
    152  CG        25.3990   19.9230   40.7430 C.ar  202  PHE202     -0.0202
    153  CD1       25.0310   21.2400   41.0090 C.ar  202  PHE202     -0.0042
    154  CD2       26.7060   19.6700   40.3480 C.ar  202  PHE202     -0.0042
    155  CE1       25.9440   22.2710   40.8890 C.ar  202  PHE202     -0.0003
    156  CE2       27.6340   20.7100   40.2240 C.ar  202  PHE202     -0.0003
    157  CZ        27.2530   22.0120   40.4980 C.ar  202  PHE202     -0.0000
    158  N         25.6890   16.7370   42.7420 N.am  203  ASN203     -0.1960
    159  CA        26.9000   16.3040   43.4350 C.3   203  ASN203      0.1819
    160  C         28.1170   17.0010   42.8250 C.2   203  ASN203      0.2621
    161  O         28.4180   16.8290   41.6640 O.2   203  ASN203     -0.2715
    162  CB        27.0010   14.7860   43.3930 C.3   203  ASN203      0.1195
    163  CG        28.1060   14.2380   44.2690 C.2   203  ASN203      0.2630
    164  OD1       29.0360   14.9310   44.6310 O.2   203  ASN203     -0.2716
    165  ND2       28.0030   12.9540   44.6030 N.am  203  ASN203     -0.0877
    166  N         28.7800   17.8200   43.6220 N.am  204  TYR204     -0.1960
    167  CA        29.9820   18.5540   43.2020 C.3   204  TYR204      0.1771
    168  C         31.1690   17.6560   42.8560 C.2   204  TYR204      0.2620
    169  O         32.0180   18.0660   42.1000 O.2   204  TYR204     -0.2715
    170  CB        30.4120   19.5290   44.2820 C.3   204  TYR204      0.0574
    171  CG        29.5470   20.7740   44.4720 C.ar  204  TYR204     -0.0198
    172  CD1       28.3210   20.9420   43.8350 C.ar  204  TYR204     -0.0009
    173  CD2       29.9360   21.7410   45.3940 C.ar  204  TYR204     -0.0009
    174  CE1       27.5380   22.0820   44.0620 C.ar  204  TYR204      0.0417
    175  CE2       29.1730   22.8630   45.6380 C.ar  204  TYR204      0.0417
    176  CZ        27.9790   23.0440   44.9710 C.ar  204  TYR204      0.1957
    177  OH        27.2580   24.1920   45.2450 O.3   204  TYR204     -0.2866
    178  N         31.2240   16.4460   43.4200 N.am  205  ASN205     -0.1958
    179  CA        32.3500   15.5330   43.1790 C.3   205  ASN205      0.1819
    180  C         33.6600   16.2610   43.4160 C.2   205  ASN205      0.2621
    181  O         34.5880   16.1650   42.6150 O.2   205  ASN205     -0.2715
    182  CB        32.3090   14.9630   41.7640 C.3   205  ASN205      0.1195
    183  CG        31.0070   14.2350   41.4430 C.2   205  ASN205      0.2630
    184  OD1       30.3980   14.4490   40.3890 O.2   205  ASN205     -0.2716
    185  ND2       30.6080   13.3520   42.3140 N.am  205  ASN205     -0.0877
    186  N         33.7030   17.0120   44.5140 N.am  206  LEU206     -0.1963
    187  CA        34.7250   18.0180   44.7260 C.3   206  LEU206      0.1728
    188  C         36.0990   17.3700   44.8840 C.2   206  LEU206      0.2616
    189  O         36.2220   16.3780   45.6090 O.2   206  LEU206     -0.2715
    190  CB        34.3730   18.8340   45.9680 C.3   206  LEU206      0.0311
    191  CG        34.9130   20.2270   46.1150 C.3   206  LEU206      0.0022
    192  CD1       34.2210   21.1930   45.1560 C.3   206  LEU206      0.0001
    193  CD2       34.7040   20.6950   47.5420 C.3   206  LEU206      0.0001
    194  N         37.0820   17.8880   44.1450 N.am  207  ASP207     -0.1957
    195  CA        38.5110   17.6680   44.4120 C.3   207  ASP207      0.1840
    196  C         38.9760   18.7950   45.3300 C.2   207  ASP207      0.2622
    197  O         39.0770   19.9500   44.9040 O.2   207  ASP207     -0.2715
    198  CB        39.3110   17.6610   43.0970 C.3   207  ASP207      0.1450
    199  CG        40.8240   17.4220   43.2960 C.2   207  ASP207      0.3671
    200  OD1       41.3460   17.5070   44.4390 O.co2 207  ASP207     -0.2456
    201  OD2       41.5050   17.1660   42.2750 O.co2 207  ASP207     -0.2456
    202  N         39.2760   18.4650   46.5860 N.am  208  CYS208     -0.1954
    203  CA        39.6480   19.4860   47.5720 C.3   208  CYS208      0.1843
    204  C         41.0670   20.0550   47.4400 C.2   208  CYS208      0.2625
    205  O         41.3620   21.0870   48.0600 O.2   208  CYS208     -0.2714
    206  CB        39.4200   18.9720   48.9820 C.3   208  CYS208      0.0997
    207  SG        37.6570   18.9400   49.3380 S.3   208  CYS208     -0.0797
    208  N         41.9240   19.3940   46.6540 N.am  209  LEU209     -0.1977
    209  CA        43.2950   19.8650   46.3660 C.3   209  LEU209      0.1596
    210  C         44.1580   19.9320   47.6280 C.2   209  LEU209      0.2287
    211  O         44.0500   19.0740   48.5010 O.2   209  LEU209     -0.2864
    212  CB        43.2870   21.2350   45.6680 C.3   209  LEU209      0.0297
    213  CG        42.4080   21.4010   44.4190 C.3   209  LEU209      0.0022
    214  CD1       42.4220   22.8540   43.9730 C.3   209  LEU209      0.0001
    215  CD2       42.8550   20.4860   43.2800 C.3   209  LEU209      0.0001
@<TRIPOS>BOND
     1   134   133    2
     2   133   132    1
     3   136   137    1
     4   136   135    1
     5   137   138    1
     6   132   135    1
     7   132   131    1
     8   138   139    1
     9   140   141    1
    10   129   128    2
    11    88    87    1
    12   131   124   am
    13   125   124    2
    14   141   142    1
    15   141   144    1
    16   124   123    1
    17   142   143    2
    18   128   130   am
    19   128   127    1
    20    87    89    1
    21    87    84    1
    22   126   127    1
    23   126   123    1
    24    86    85    2
    25    85    84    1
    26   146   144    1
    27   123   122    1
    28   144   145    1
    29    84    83    1
    30     4     3    2
    31     1     2    1
    32   122   117   am
    33     3     2    1
    34    90    91    1
    35    83    78   am
    36    93    92    2
    37     2     5    1
    38    92    91    1
    39   117   118    2
    40   117   116    1
    41    91    94    1
    42   114   112   ar
    43    78    79    2
    44    78    77    1
    45     5     6    1
    46    75    73    1
    47    82    80    1
    48   116   119    1
    49   116   115    1
    50   112   111    1
    51   112   113   ar
    52   109   108    2
    53    94    95    1
    54    94    96    1
    55    71    70    2
    56    77    80    1
    57    77    76    1
    58    95    97    1
    59   111   110    1
    60   119   121    1
    61   119   120    1
    62     6     8   ar
    63     6     7   ar
    64     8    10   ar
    65    80    81    1
    66   108   115   am
    67   108   107    1
    68    70    76   am
    69    70    69    1
    70    73    74    1
    71    73    72    1
    72    10    11   ar
    73     7     9   ar
    74   110   107    1
    75    72    69    1
    76   107   106    1
    77    69    68    1
    78    13    14    1
    79    11     9   ar
    80    11    12    1
    81    68    62   am
    82    17    14    1
    83    17    18    1
    84    14    15    1
    85   104   105    1
    86   104   103    1
    87    51    50    2
    88    62    61    1
    89    62    63    2
    90    66    67    1
    91    66    65    1
    92    61    64    1
    93    61    60    1
    94   156   154   ar
    95   156   157   ar
    96   154   152   ar
    97   184   183    2
    98   157   155   ar
    99    15    16    2
   100    64    65    1
   101   152   151    1
   102   152   153   ar
   103   103   102    1
   104   151   148    1
   105    50    60   am
   106    50    49    1
   107   155   153   ar
   108   183   182    1
   109   183   185   am
   110    52    49    1
   111    52    53    1
   112   102    99    1
   113   161   160    2
   114   182   179    1
   115    49    48    1
   116   169   168    2
   117   148   147    1
   118   148   149    1
   119   201   199   ar
   120    98    99    1
   121   181   180    2
   122    53    55   ar
   123    53    54   ar
   124    55    57   ar
   125   158   149   am
   126   158   159    1
   127   160   159    1
   128   160   166   am
   129    99   100    1
   130   168   167    1
   131   168   178   am
   132   149   150    2
   133   198   199    1
   134   198   195    1
   135    48    39   am
   136   179   180    1
   137   179   178    1
   138   167   166    1
   139   167   170    1
   140   215   213    1
   141   199   200   ar
   142   162   159    1
   143   162   163    1
   144   180   186   am
   145    54    56   ar
   146   101   100    2
   147    57    58   ar
   148    26    24    1
   149   172   174   ar
   150   172   171   ar
   151   214   213    1
   152    19    20    1
   153   174   176   ar
   154   194   195    1
   155   194   188   am
   156    24    23    1
   157   163   165   am
   158   163   164    2
   159   170   171    1
   160    39    40    2
   161    39    38    1
   162   195   196    1
   163   213   212    1
   164   171   173   ar
   165   186   187    1
   166    56    58   ar
   167    58    59    1
   168   187   188    1
   169   187   190    1
   170   188   189    2
   171   197   196    2
   172   176   177    1
   173   176   175   ar
   174    23    20    1
   175    23    25    1
   176   192   191    1
   177    20    21    1
   178   196   202   am
   179   173   175   ar
   180    38    41    1
   181    38    37    1
   182   212   209    1
   183    41    42    1
   184   190   191    1
   185   191   193    1
   186    44    42   ar
   187    44    46   ar
   188   209   208    1
   189   209   210    1
   190    21    22    2
   191   202   203    1
   192   208   204   am
   193    42    43   ar
   194    46    47   ar
   195   204   203    1
   196   204   205    2
   197   203   206    1
   198   210   211    2
   199    43    45   ar
   200    47    45   ar
   201   206   207    1
   202    34    36   ar
   203    34    32   ar
   204    27    28    1
   205    36    35   ar
   206    32    31    1
   207    32    33   ar
   208    35    33   ar
   209    31    28    1
   210    28    29    1
   211    29    30    2
