@<TRIPOS>MOLECULE
tmp/6ceqC00.pdb
 238 227 0 0 0
SMALL
GASTEIGER

@<TRIPOS>ATOM
      1  N         94.1380   39.3030    6.9270 N.3    10  MET10      -0.1230
      2  CA        95.2210   38.8120    7.7650 C.3    10  MET10       0.1702
      3  C         95.0930   39.4960    9.1240 C.2    10  MET10       0.2592
      4  O         94.8250   40.7000    9.1830 O.2    10  MET10      -0.2718
      5  CB        96.5530   39.1410    7.0750 C.3    10  MET10       0.0401
      6  CG        97.8050   38.6460    7.7010 C.3    10  MET10       0.0596
      7  SD        99.0720   38.8150    6.4200 S.3    10  MET10      -0.1393
      8  CE        98.7140   40.3900    5.6880 C.3    10  MET10       0.0692
      9  N         95.2360   38.7400   10.2150 N.am   11  MET11      -0.1965
     10  CA        95.1280   39.2980   11.5600 C.3    11  MET11       0.1736
     11  C         96.4140   39.0580   12.3440 C.2    11  MET11       0.2616
     12  O         97.0450   38.0070   12.2080 O.2    11  MET11      -0.2715
     13  CB        93.9400   38.6940   12.3210 C.3    11  MET11       0.0427
     14  CG        92.5840   38.9860   11.6970 C.3    11  MET11       0.0599
     15  SD        91.3920   37.6620   11.9960 S.3    11  MET11      -0.1393
     16  CE        91.7840   37.1790   13.6700 C.3    11  MET11       0.0692
     17  N         96.7920   40.0300   13.1690 N.am   12  ALA12      -0.1977
     18  CA        97.9490   39.8830   14.0460 C.3    12  ALA12       0.1597
     19  C         97.5950   40.3890   15.4350 C.2    12  ALA12       0.2287
     20  O         96.6020   41.0920   15.6230 O.2    12  ALA12      -0.2864
     21  CB        99.1740   40.6330   13.4930 C.3    12  ALA12       0.0319
     22  N        101.5040   37.2330   13.5000 N.3    18  ILE18      -0.1245
     23  CA       100.3640   36.9040   12.6560 C.3    18  ILE18       0.1561
     24  C         99.5620   35.7840   13.3010 C.2    18  ILE18       0.2260
     25  O        100.1000   34.7200   13.6360 O.2    18  ILE18      -0.2867
     26  CB       100.8330   36.5120   11.2480 C.3    18  ILE18       0.0252
     27  CG1      101.5050   37.7120   10.5670 C.3    18  ILE18       0.0019
     28  CG2       99.6530   36.0020   10.4300 C.3    18  ILE18       0.0019
     29  CD1      102.1710   37.3880    9.2230 C.3    18  ILE18       0.0001
     30  N         98.3870   34.4940   -1.9220 N.3    29  LEU29      -0.1245
     31  CA        99.8130   34.5010   -1.6140 C.3    29  LEU29       0.1561
     32  C        100.5040   33.2370   -2.1120 C.2    29  LEU29       0.2260
     33  O        101.6930   33.2760   -2.4460 O.2    29  LEU29      -0.2867
     34  CB       100.0320   34.6810   -0.1140 C.3    29  LEU29       0.0270
     35  CG        99.5410   36.0100    0.4600 C.3    29  LEU29       0.0019
     36  CD1       99.8290   36.1160    1.9540 C.3    29  LEU29       0.0001
     37  CD2      100.1310   37.1990   -0.3000 C.3    29  LEU29       0.0001
     38  N        106.6540   36.7900   -4.4950 N.3    36  LEU36      -0.1245
     39  CA       106.8880   37.0390   -3.0780 C.3    36  LEU36       0.1561
     40  C        108.1790   36.3910   -2.5960 C.2    36  LEU36       0.2260
     41  O        108.9110   36.9900   -1.7990 O.2    36  LEU36      -0.2867
     42  CB       105.6970   36.5330   -2.2690 C.3    36  LEU36       0.0270
     43  CG       104.4670   37.4040   -2.5100 C.3    36  LEU36       0.0019
     44  CD1      103.2120   36.7700   -1.9270 C.3    36  LEU36       0.0001
     45  CD2      104.7090   38.7810   -1.9240 C.3    36  LEU36       0.0001
     46  N        111.2290   37.9550   -0.7210 N.3    40  PHE40      -0.1241
     47  CA       111.4820   37.3650    0.5940 C.3    40  PHE40       0.1605
     48  C        111.8320   35.8870    0.4170 C.2    40  PHE40       0.2264
     49  O        110.9950   35.0130    0.6300 O.2    40  PHE40      -0.2867
     50  CB       110.2680   37.5230    1.5150 C.3    40  PHE40       0.0534
     51  CG       109.7280   38.9210    1.5600 C.ar   40  PHE40      -0.0203
     52  CD1      108.5440   39.2410    0.9120 C.ar   40  PHE40      -0.0042
     53  CD2      110.3660   39.9010    2.2960 C.ar   40  PHE40      -0.0042
     54  CE1      108.0330   40.5170    0.9690 C.ar   40  PHE40      -0.0003
     55  CE2      109.8690   41.1830    2.3420 C.ar   40  PHE40      -0.0003
     56  CZ       108.6930   41.4930    1.6830 C.ar   40  PHE40      -0.0000
     57  N        109.9250   32.8140    1.6150 N.3    43  PHE43      -0.1241
     58  CA       108.4840   33.0030    1.7620 C.3    43  PHE43       0.1605
     59  C        107.7090   31.7400    1.3980 C.2    43  PHE43       0.2264
     60  O        107.8780   31.1780    0.3100 O.2    43  PHE43      -0.2867
     61  CB       108.0050   34.1680    0.8960 C.3    43  PHE43       0.0534
     62  CG       106.5560   34.5040    1.0970 C.ar   43  PHE43      -0.0203
     63  CD1      106.1750   35.3750    2.1060 C.ar   43  PHE43      -0.0042
     64  CD2      105.5730   33.9320    0.3010 C.ar   43  PHE43      -0.0042
     65  CE1      104.8400   35.6820    2.3110 C.ar   43  PHE43      -0.0003
     66  CE2      104.2360   34.2350    0.5010 C.ar   43  PHE43      -0.0003
     67  CZ       103.8740   35.1140    1.5090 C.ar   43  PHE43      -0.0000
     68  N        102.8070   31.3750    7.3940 N.3    48  LEU48      -0.1245
     69  CA       102.8340   32.7370    7.9130 C.3    48  LEU48       0.1561
     70  C        102.2940   32.8400    9.3340 C.2    48  LEU48       0.2260
     71  O        102.6990   33.7420   10.0750 O.2    48  LEU48      -0.2867
     72  CB       102.0510   33.6660    6.9870 C.3    48  LEU48       0.0270
     73  CG       102.7320   33.9010    5.6360 C.3    48  LEU48       0.0019
     74  CD1      101.8970   34.8040    4.7370 C.3    48  LEU48       0.0001
     75  CD2      104.1150   34.4750    5.8340 C.3    48  LEU48       0.0001
     76  N        105.4480   40.2170   11.8900 N.3    53  ILE53      -0.1245
     77  CA       105.3420   41.0440   10.6870 C.3    53  ILE53       0.1561
     78  C        106.6110   41.8530   10.4160 C.2    53  ILE53       0.2260
     79  O        106.7950   42.3390    9.2950 O.2    53  ILE53      -0.2867
     80  CB       104.1020   41.9670   10.7440 C.3    53  ILE53       0.0252
     81  CG1      104.2340   42.9740   11.8690 C.3    53  ILE53       0.0019
     82  CG2      102.8260   41.1560   10.9130 C.3    53  ILE53       0.0019
     83  CD1      103.1400   43.9770   11.9300 C.3    53  ILE53       0.0001
     84  N        108.8330   41.3940    7.1960 N.3    56  PHE56      -0.1227
     85  CA       108.4690   41.8640    5.8690 C.3    56  PHE56       0.1736
     86  C        108.5330   43.3720    5.7010 C.2    56  PHE56       0.2595
     87  O        108.2770   43.8610    4.5970 O.2    56  PHE56      -0.2718
     88  CB       107.0630   41.3630    5.5250 C.3    56  PHE56       0.0547
     89  CG       106.8960   39.8930    5.7300 C.ar   56  PHE56      -0.0202
     90  CD1      107.4490   38.9920    4.8370 C.ar   56  PHE56      -0.0042
     91  CD2      106.1890   39.4030    6.8120 C.ar   56  PHE56      -0.0042
     92  CE1      107.3100   37.6380    5.0230 C.ar   56  PHE56      -0.0003
     93  CE2      106.0430   38.0380    6.9990 C.ar   56  PHE56      -0.0003
     94  CZ       106.6000   37.1580    6.1030 C.ar   56  PHE56      -0.0000
     95  N        108.8600   44.1220    6.7480 N.am   57  HIS57      -0.1961
     96  CA       108.7750   45.5770    6.7170 C.3    57  HIS57       0.1787
     97  C        110.1700   46.1870    6.7370 C.2    57  HIS57       0.2620
     98  O        111.0060   45.7990    7.5580 O.2    57  HIS57      -0.2715
     99  CB       107.9480   46.0840    7.8950 C.3    57  HIS57       0.0785
    100  CG       106.5360   45.6000    7.8720 C.ar   57  HIS57       0.0821
    101  ND1      105.7840   45.4280    9.0170 N.ar   57  HIS57      -0.2267
    102  CD2      105.7380   45.2380    6.8400 C.ar   57  HIS57       0.1154
    103  CE1      104.5830   44.9900    8.6880 C.ar   57  HIS57       0.1986
    104  NE2      104.5310   44.8600    7.3740 N.ar   57  HIS57      -0.2212
    105  N        110.4120   47.1530    5.8440 N.am   58  LYS58      -0.1977
    106  CA       111.7590   47.7040    5.7210 C.3    58  LYS58       0.1596
    107  C        112.1620   48.4740    6.9750 C.2    58  LYS58       0.2287
    108  O        113.2950   48.3440    7.4500 O.2    58  LYS58      -0.2864
    109  CB       111.8580   48.6130    4.4910 C.3    58  LYS58       0.0298
    110  CG       110.7730   49.6830    4.3910 C.3    58  LYS58       0.0038
    111  CD       111.0960   50.7310    3.3240 C.3    58  LYS58       0.0206
    112  CE       109.8930   51.6370    3.0530 C.3    58  LYS58       0.1093
    113  NZ       110.2120   52.7440    2.0990 N.3    58  LYS58      -0.1314
    114  N        108.1140   51.5630   12.0170 N.3    62  HIS62      -0.1226
    115  CA       107.0390   52.3390   11.4000 C.3    62  HIS62       0.1752
    116  C        105.7110   51.6250   11.5730 C.2    62  HIS62       0.2595
    117  O        104.7350   52.1970   12.0850 O.2    62  HIS62      -0.2718
    118  CB       107.3550   52.5670    9.9140 C.3    62  HIS62       0.0759
    119  CG       106.2270   53.1720    9.1340 C.ar   62  HIS62       0.0818
    120  ND1      105.6680   54.3900    9.4490 N.ar   62  HIS62      -0.2268
    121  CD2      105.5610   52.7220    8.0430 C.ar   62  HIS62       0.1154
    122  CE1      104.7020   54.6650    8.5910 C.ar   62  HIS62       0.1986
    123  NE2      104.6170   53.6700    7.7270 N.ar   62  HIS62      -0.2212
    124  N        105.6730   50.3550   11.2720 N.am   63  GLN63      -0.1979
    125  CA       104.4340   49.5950   11.3700 C.3    63  GLN63       0.1601
    126  C        104.0620   49.3210   12.8060 C.2    63  GLN63       0.2287
    127  O        102.9300   49.2380   13.1260 O.2    63  GLN63      -0.2864
    128  CB       104.5270   48.2850   10.5760 C.3    63  GLN63       0.0394
    129  CG       104.3090   48.4640    9.1130 C.3    63  GLN63       0.0908
    130  CD       105.5320   48.8470    8.3570 C.2    63  GLN63       0.2608
    131  OE1      106.5650   49.0910    8.9140 O.2    63  GLN63      -0.2717
    132  NE2      105.4080   48.8630    7.0570 N.am   63  GLN63      -0.0878
    133  N        102.0800   52.0210   14.0420 N.3    66  ILE66      -0.1231
    134  CA       100.7180   52.0240   13.5180 C.3    66  ILE66       0.1692
    135  C         99.8540   51.0280   14.2810 C.2    66  ILE66       0.2591
    136  O         98.7200   51.3400   14.6690 O.2    66  ILE66      -0.2718
    137  CB       100.7200   51.7300   12.0050 C.3    66  ILE66       0.0266
    138  CG1      101.4230   52.8590   11.2420 C.3    66  ILE66       0.0019
    139  CG2       99.2860   51.5510   11.4970 C.3    66  ILE66       0.0020
    140  CD1      101.7220   52.5320    9.7980 C.3    66  ILE66       0.0001
    141  N        100.3660   49.8150   14.5050 N.am   67  ILE67      -0.1980
    142  CA        99.5580   48.7340   15.0710 C.3    67  ILE67       0.1595
    143  C         99.6930   48.5590   16.5780 C.2    67  ILE67       0.2287
    144  O         98.9480   47.7500   17.1540 O.2    67  ILE67      -0.2864
    145  CB        99.8550   47.3770   14.4000 C.3    67  ILE67       0.0276
    146  CG1      101.2030   46.8370   14.8710 C.3    67  ILE67       0.0022
    147  CG2       99.7980   47.5010   12.8890 C.3    67  ILE67       0.0022
    148  CD1      101.3380   45.3550   14.7230 C.3    67  ILE67       0.0001
    149  N         93.8750   52.7320    9.3380 N.3    75  PHE75      -0.1241
    150  CA        94.9830   53.2240    8.5390 C.3    75  PHE75       0.1605
    151  C         94.8230   52.6920    7.1240 C.2    75  PHE75       0.2264
    152  O         94.5270   51.5070    6.9380 O.2    75  PHE75      -0.2867
    153  CB        96.3200   52.7710    9.1330 C.3    75  PHE75       0.0534
    154  CG        97.5190   53.2760    8.3900 C.ar   75  PHE75      -0.0203
    155  CD1       98.1910   54.4070    8.8300 C.ar   75  PHE75      -0.0042
    156  CD2       98.0000   52.6060    7.2760 C.ar   75  PHE75      -0.0042
    157  CE1       99.3070   54.8720    8.1600 C.ar   75  PHE75      -0.0003
    158  CE2       99.1080   53.0740    6.5970 C.ar   75  PHE75      -0.0003
    159  CZ        99.7640   54.2060    7.0420 C.ar   75  PHE75      -0.0000
    160  N         96.6040   52.9070    2.9950 N.3    77  SER77      -0.1202
    161  CA        97.7490   53.3030    2.1830 C.3    77  SER77       0.2020
    162  C         97.8460   52.3660    0.9900 C.2    77  SER77       0.2619
    163  O         97.2200   51.3040    0.9490 O.2    77  SER77      -0.2717
    164  CB        99.0580   53.2960    2.9750 C.3    77  SER77       0.2103
    165  OG        99.5050   51.9760    3.2230 O.3    77  SER77      -0.2182
    166  N         98.6370   52.7900    0.0140 N.am   78  MET78      -0.1965
    167  CA        99.0180   51.9740   -1.1280 C.3    78  MET78       0.1736
    168  C        100.4070   51.4090   -0.8730 C.2    78  MET78       0.2616
    169  O        101.3110   52.1500   -0.4760 O.2    78  MET78      -0.2715
    170  CB        99.0200   52.8270   -2.3960 C.3    78  MET78       0.0427
    171  CG        97.6650   53.0120   -3.0360 C.3    78  MET78       0.0599
    172  SD        97.8180   53.0630   -4.8310 S.3    78  MET78      -0.1393
    173  CE        98.3690   54.7550   -5.0600 C.3    78  MET78       0.0692
    174  N        100.5740   50.1000   -1.0600 N.am   79  ILE79      -0.1963
    175  CA       101.8510   49.4580   -0.7900 C.3    79  ILE79       0.1727
    176  C        102.2730   48.6320   -1.9940 C.2    79  ILE79       0.2616
    177  O        101.4400   48.0760   -2.7240 O.2    79  ILE79      -0.2715
    178  CB       101.8220   48.5750    0.4850 C.3    79  ILE79       0.0290
    179  CG1      100.9310   47.3450    0.2940 C.3    79  ILE79       0.0022
    180  CG2      101.3570   49.3800    1.6940 C.3    79  ILE79       0.0023
    181  CD1      101.1200   46.2910    1.3830 C.3    79  ILE79       0.0001
    182  N        103.5810   48.5630   -2.2090 N.am   80  LYS80      -0.1963
    183  CA       104.1750   47.6720   -3.1880 C.3    80  LYS80       0.1728
    184  C        104.8940   46.5640   -2.4350 C.2    80  LYS80       0.2616
    185  O        105.7360   46.8360   -1.5720 O.2    80  LYS80      -0.2715
    186  CB       105.1180   48.4390   -4.1180 C.3    80  LYS80       0.0311
    187  CG       104.3730   49.5000   -4.9260 C.3    80  LYS80       0.0038
    188  CD       105.2550   50.2310   -5.9240 C.3    80  LYS80       0.0206
    189  CE       104.4340   51.2570   -6.7000 C.3    80  LYS80       0.1093
    190  NZ       105.2570   52.0810   -7.6310 N.3    80  LYS80      -0.1314
    191  N        104.5470   45.3230   -2.7450 N.am   81  VAL81      -0.1963
    192  CA       105.1230   44.1530   -2.0970 C.3    81  VAL81       0.1727
    193  C        105.8310   43.3890   -3.2010 C.2    81  VAL81       0.2616
    194  O        105.1920   42.6590   -3.9690 O.2    81  VAL81      -0.2715
    195  CB       104.0680   43.2900   -1.3970 C.3    81  VAL81       0.0290
    196  CG1      104.7330   42.1870   -0.5890 C.3    81  VAL81       0.0023
    197  CG2      103.1900   44.1510   -0.5100 C.3    81  VAL81       0.0023
    198  N        107.1450   43.5670   -3.2980 N.am   82  GLY82      -0.1955
    199  CA       107.8410   43.1070   -4.4830 C.3    82  GLY82       0.1869
    200  C        107.2450   43.8060   -5.6840 C.2    82  GLY82       0.2309
    201  O        107.0600   45.0270   -5.6880 O.2    82  GLY82      -0.2863
    202  N         95.7970   48.9820    0.9240 N.3    88  LEU88      -0.1245
    203  CA        95.8300   48.4180    2.2710 C.3    88  LEU88       0.1561
    204  C         94.8620   49.1460    3.1920 C.2    88  LEU88       0.2260
    205  O         94.7910   50.3770    3.1830 O.2    88  LEU88      -0.2867
    206  CB        97.2530   48.5040    2.8440 C.3    88  LEU88       0.0270
    207  CG        97.5120   48.1000    4.2970 C.3    88  LEU88       0.0019
    208  CD1       98.9020   47.4790    4.4060 C.3    88  LEU88       0.0001
    209  CD2       97.3940   49.2840    5.2510 C.3    88  LEU88       0.0001
    210  N         93.9230   48.8920    7.4210 N.3    90  CYS90      -0.1235
    211  CA        94.2430   48.3060    8.7150 C.3    90  CYS90       0.1677
    212  C         93.2500   48.8300    9.7450 C.2    90  CYS90       0.2270
    213  O         93.1240   50.0460    9.9220 O.2    90  CYS90      -0.2867
    214  CB        95.6820   48.6490    9.0940 C.3    90  CYS90       0.0956
    215  SG        96.2800   47.8410   10.5630 S.3    90  CYS90      -0.0801
    216  N         95.7880   44.3630   15.0070 N.3   103  PRO103     -0.2116
    217  CA        95.2570   44.8470   13.7300 C.3   103  PRO103      0.1372
    218  C         94.6550   43.7520   12.8670 C.2   103  PRO103      0.2244
    219  O         95.0920   42.5970   12.8640 O.2   103  PRO103     -0.2868
    220  CB        96.4930   45.4450   13.0510 C.3   103  PRO103      0.0268
    221  CG        97.6190   44.6000   13.5540 C.3   103  PRO103      0.0207
    222  CD        97.2590   44.2320   14.9850 C.3   103  PRO103      0.0892
    223  N         94.0380   43.3520    8.7870 N.3   105  LEU105     -0.1245
    224  CA        94.5190   43.9310    7.5460 C.3   105  LEU105      0.1561
    225  C         93.6850   43.3820    6.4040 C.2   105  LEU105      0.2260
    226  O         93.5160   42.1620    6.2930 O.2   105  LEU105     -0.2867
    227  CB        95.9920   43.5850    7.3270 C.3   105  LEU105      0.0270
    228  CG        96.8080   44.6010    6.5400 C.3   105  LEU105      0.0019
    229  CD1       97.1730   45.7830    7.4250 C.3   105  LEU105      0.0001
    230  CD2       98.0350   43.9450    5.9590 C.3   105  LEU105      0.0001
    231  N         93.6490   43.5350    2.1740 N.3   107  LEU107     -0.1245
    232  CA        94.4090   43.9070    0.9860 C.3   107  LEU107      0.1561
    233  C         93.5220   43.7880   -0.2380 C.2   107  LEU107      0.2260
    234  O         92.8660   42.7610   -0.4350 O.2   107  LEU107     -0.2867
    235  CB        95.6430   43.0210    0.8070 C.3   107  LEU107      0.0270
    236  CG        96.7220   43.1050    1.8870 C.3   107  LEU107      0.0019
    237  CD1       97.8400   42.1370    1.5590 C.3   107  LEU107      0.0001
    238  CD2       97.2470   44.5280    1.9950 C.3   107  LEU107      0.0001
@<TRIPOS>BOND
     1   190   189    1
     2   189   188    1
     3   188   187    1
     4   201   200    2
     5   200   199    1
     6   173   172    1
     7   187   186    1
     8   172   171    1
     9    38    39    1
    10   199   198    1
    11   186   183    1
    12   194   193    2
    13   198   193   am
    14   193   192    1
    15   183   184    1
    16   183   182    1
    17    39    40    1
    18    39    42    1
    19   171   170    1
    20   191   184   am
    21   191   192    1
    22   177   176    2
    23    40    41    2
    24    43    42    1
    25    43    44    1
    26    43    45    1
    27    33    32    2
    28   184   185    2
    29   170   167    1
    30   182   176   am
    31    32    31    1
    32   192   195    1
    33   176   175    1
    34    30    31    1
    35    31    34    1
    36   195   196    1
    37   195   197    1
    38   167   168    1
    39   167   166    1
    40   174   168   am
    41   174   175    1
    42   168   169    2
    43   175   178    1
    44    46    47    1
    45   234   233    2
    46    37    35    1
    47   233   232    1
    48    34    35    1
    49   166   162   am
    50   179   178    1
    51   179   181    1
    52    64    66   ar
    53    64    62   ar
    54    60    59    2
    55    48    47    1
    56    48    49    2
    57    35    36    1
    58   178   180    1
    59    66    67   ar
    60    47    50    1
    61   235   232    1
    62   235   236    1
    63    61    62    1
    64    61    58    1
    65    52    54   ar
    66    52    51   ar
    67   202   203    1
    68   163   162    2
    69    54    56   ar
    70   232   231    1
    71   162   161    1
    72    62    63   ar
    73    59    58    1
    74    67    65   ar
    75    50    51    1
    76   237   236    1
    77    51    53   ar
    78    57    58    1
    79    56    55   ar
    80   236   238    1
    81   113   112    1
    82    63    65   ar
    83   161   164    1
    84   161   160    1
    85   203   206    1
    86   203   204    1
    87    53    55   ar
    88   206   207    1
    89   164   165    1
    90   112   111    1
    91   205   204    2
    92   111   110    1
    93   207   208    1
    94   207   209    1
    95   110   109    1
    96   109   106    1
    97    87    86    2
    98    74    73    1
    99    90    92   ar
   100    90    89   ar
   101    92    94   ar
   102    88    89    1
   103    88    85    1
   104    73    75    1
   105    73    72    1
   106     8     7    1
   107    86    85    1
   108    86    95   am
   109   106   105    1
   110   106   107    1
   111    89    91   ar
   112   105    97   am
   113    85    84    1
   114   230   228    1
   115    94    93   ar
   116   226   225    2
   117   225   224    1
   118     7     6    1
   119   228   227    1
   120   228   229    1
   121   158   159   ar
   122   158   156   ar
   123    96    97    1
   124    96    95    1
   125    96    99    1
   126    97    98    2
   127    91    93   ar
   128   102   104   ar
   129   102   100   ar
   130     1     2    1
   131   152   151    2
   132   107   108    2
   133    72    69    1
   134   159   157   ar
   135   132   130   am
   136     5     6    1
   137     5     2    1
   138   151   150    1
   139   156   154   ar
   140   227   224    1
   141   104   103   ar
   142    68    69    1
   143   210   211    1
   144   224   223    1
   145   123   121   ar
   146   123   122   ar
   147     2     3    1
   148   100    99    1
   149   100   101   ar
   150    69    70    1
   151   121   119   ar
   152   157   155   ar
   153   130   131    2
   154   130   129    1
   155   154   155   ar
   156   154   153    1
   157   150   153    1
   158   150   149    1
   159   122   120   ar
   160   103   101   ar
   161   211   214    1
   162   211   212    1
   163   214   215    1
   164   129   128    1
   165     3     4    2
   166     3     9   am
   167   119   120   ar
   168   119   118    1
   169    29    27    1
   170    79    78    2
   171    70    71    2
   172   212   213    2
   173   140   138    1
   174   118   115    1
   175     9    10    1
   176    78    77    1
   177    28    26    1
   178    27    26    1
   179   128   125    1
   180    77    80    1
   181    77    76    1
   182    80    82    1
   183    80    81    1
   184   138   137    1
   185    26    23    1
   186   124   125    1
   187   124   116   am
   188   125   126    1
   189   115   116    1
   190   115   114    1
   191   139   137    1
   192    10    13    1
   193    10    11    1
   194   116   117    2
   195    14    15    1
   196    14    13    1
   197    81    83    1
   198    15    16    1
   199   137   134    1
   200    12    11    2
   201    11    17   am
   202    23    24    1
   203    23    22    1
   204   126   127    2
   205   219   218    2
   206   218   217    1
   207   147   145    1
   208   220   221    1
   209   220   217    1
   210    17    18    1
   211    24    25    2
   212    21    18    1
   213   134   133    1
   214   134   135    1
   215   221   222    1
   216   217   216    1
   217    18    19    1
   218   135   141   am
   219   135   136    2
   220   145   146    1
   221   145   142    1
   222   141   142    1
   223   148   146    1
   224   222   216    1
   225   142   143    1
   226    19    20    2
   227   143   144    2
