@<TRIPOS>MOLECULE
tmp/6cerA00.pdb
 104 99 0 0 0
SMALL
GASTEIGER

@<TRIPOS>ATOM
      1  N        -31.7300    3.3780   32.5520 N.3    63  PHE63      -0.1241
      2  CA       -31.1540    3.9600   31.3550 C.3    63  PHE63       0.1605
      3  C        -31.3170    3.0260   30.1670 C.2    63  PHE63       0.2264
      4  O        -31.3710    1.8020   30.3180 O.2    63  PHE63      -0.2867
      5  CB       -29.6740    4.2770   31.5610 C.3    63  PHE63       0.0534
      6  CG       -29.4220    5.3490   32.5710 C.ar   63  PHE63      -0.0203
      7  CD1      -29.7320    6.6700   32.2880 C.ar   63  PHE63      -0.0042
      8  CD2      -28.8550    5.0430   33.7970 C.ar   63  PHE63      -0.0042
      9  CE1      -29.4920    7.6650   33.2140 C.ar   63  PHE63      -0.0003
     10  CE2      -28.6100    6.0330   34.7250 C.ar   63  PHE63      -0.0003
     11  CZ       -28.9290    7.3460   34.4320 C.ar   63  PHE63      -0.0000
     12  N        -29.6860    3.9690   26.4470 N.3    65  HIS65      -0.1241
     13  CA       -29.1220    4.7900   25.3820 C.3    65  HIS65       0.1621
     14  C        -28.9640    3.9480   24.1230 C.2    65  HIS65       0.2264
     15  O        -28.3040    2.9040   24.1480 O.2    65  HIS65      -0.2867
     16  CB       -27.7760    5.3680   25.8020 C.3    65  HIS65       0.0745
     17  CG       -27.7950    6.0340   27.1390 C.ar   65  HIS65       0.0817
     18  ND1      -28.1770    7.3470   27.3100 N.ar   65  HIS65      -0.2268
     19  CD2      -27.4730    5.5710   28.3700 C.ar   65  HIS65       0.1154
     20  CE1      -28.0930    7.6640   28.5900 C.ar   65  HIS65       0.1986
     21  NE2      -27.6690    6.6030   29.2550 N.ar   65  HIS65      -0.2212
     22  N        -21.5550    4.3310   28.0000 N.3    91  TYR91      -0.1227
     23  CA       -22.8790    3.8000   28.3260 C.3    91  TYR91       0.1736
     24  C        -23.6930    3.3260   27.1210 C.2    91  TYR91       0.2595
     25  O        -24.7570    2.7280   27.3180 O.2    91  TYR91      -0.2718
     26  CB       -23.6780    4.8700   29.0730 C.3    91  TYR91       0.0548
     27  CG       -23.5340    6.2450   28.4600 C.ar   91  TYR91      -0.0200
     28  CD1      -24.3780    6.6650   27.4460 C.ar   91  TYR91      -0.0009
     29  CD2      -22.5360    7.1150   28.8830 C.ar   91  TYR91      -0.0009
     30  CE1      -24.2430    7.9200   26.8760 C.ar   91  TYR91       0.0417
     31  CE2      -22.3920    8.3670   28.3190 C.ar   91  TYR91       0.0417
     32  CZ       -23.2500    8.7640   27.3160 C.ar   91  TYR91       0.1957
     33  OH       -23.1170   10.0090   26.7480 O.3    91  TYR91      -0.2866
     34  N        -23.2360    3.5630   25.8970 N.am   92  ARG92      -0.1980
     35  CA       -23.9990    3.2370   24.6940 C.3    92  ARG92       0.1597
     36  C        -23.4030    1.9990   24.0310 C.2    92  ARG92       0.2287
     37  O        -22.8680    2.0520   22.9250 O.2    92  ARG92      -0.2864
     38  CB       -23.9960    4.4260   23.7520 C.3    92  ARG92       0.0334
     39  CG       -25.0650    4.4030   22.6960 C.3    92  ARG92       0.0492
     40  CD       -24.9580    5.6610   21.8630 C.3    92  ARG92       0.2205
     41  NE       -24.8680    6.8550   22.7010 N.pl3  92  ARG92      -0.0865
     42  CZ       -25.9160    7.5560   23.1180 C.cat  92  ARG92       0.5346
     43  NH1      -27.1450    7.1870   22.7800 N.pl3  92  ARG92       0.1354
     44  NH2      -25.7340    8.6320   23.8710 N.pl3  92  ARG92       0.1354
     45  N        -26.1340   -0.3850   30.9840 N.3   126  MET126     -0.1245
     46  CA       -24.8360    0.2720   30.9940 C.3   126  MET126      0.1570
     47  C        -23.6700   -0.6520   31.3180 C.2   126  MET126      0.2261
     48  O        -22.5210   -0.2520   31.1250 O.2   126  MET126     -0.2867
     49  CB       -24.8320    1.4200   32.0030 C.3   126  MET126      0.0387
     50  CG       -25.6330    2.6260   31.5910 C.3   126  MET126      0.0595
     51  SD       -25.5110    3.8870   32.8680 S.3   126  MET126     -0.1393
     52  CE       -25.8950    5.3580   31.9160 C.3   126  MET126      0.0692
     53  N        -20.6970    3.6740   33.2710 N.3   138  GLY138     -0.1210
     54  CA       -21.6540    4.7370   33.5270 C.3   138  GLY138      0.1956
     55  C        -21.0280    6.0800   33.8280 C.2   138  GLY138      0.2612
     56  O        -21.6480    7.1220   33.5910 O.2   138  GLY138     -0.2717
     57  N        -19.8120    6.0840   34.3570 N.am  139  ILE139     -0.1965
     58  CA       -19.1270    7.3210   34.7050 C.3   139  ILE139      0.1727
     59  C        -18.3870    7.8160   33.4750 C.2   139  ILE139      0.2616
     60  O        -17.5050    7.1270   32.9540 O.2   139  ILE139     -0.2715
     61  CB       -18.1680    7.1150   35.8850 C.3   139  ILE139      0.0290
     62  CG1      -18.8670    6.3270   36.9990 C.3   139  ILE139      0.0022
     63  CG2      -17.6790    8.4590   36.3920 C.3   139  ILE139      0.0023
     64  CD1      -20.1010    7.0060   37.5530 C.3   139  ILE139      0.0001
     65  N        -18.7310    9.0160   33.0200 N.am  140  MET140     -0.1977
     66  CA       -18.1930    9.4960   31.7580 C.3   140  MET140      0.1605
     67  C        -16.7130    9.8220   31.8760 C.2   140  MET140      0.2287
     68  O        -16.2600   10.4190   32.8580 O.2   140  MET140     -0.2864
     69  CB       -18.9650   10.7150   31.2640 C.3   140  MET140      0.0413
     70  CG       -19.9690   10.3690   30.1830 C.3   140  MET140      0.0598
     71  SD       -20.6880   11.8390   29.4510 S.3   140  MET140     -0.1393
     72  CE       -21.6450   12.4200   30.8350 C.3   140  MET140      0.0692
     73  N        -18.4470   12.6750   22.2380 N.3   169  ASP169     -0.1225
     74  CA       -17.9580   14.0480   22.2210 C.3   169  ASP169      0.1805
     75  C        -18.2870   14.7800   23.5170 C.2   169  ASP169      0.2598
     76  O        -17.5420   15.6810   23.9220 O.2   169  ASP169     -0.2718
     77  CB       -18.5220   14.8030   21.0120 C.3   169  ASP169      0.1424
     78  CG       -20.0450   14.8780   21.0120 C.2   169  ASP169      0.3668
     79  OD1      -20.6980   13.8300   20.8090 O.co2 169  ASP169     -0.2456
     80  OD2      -20.5870   15.9900   21.2080 O.co2 169  ASP169     -0.2456
     81  N        -19.3780   14.3980   24.1910 N.am  170  GLY170     -0.1957
     82  CA       -19.7210   15.0050   25.4660 C.3   170  GLY170      0.1869
     83  C        -18.7470   14.6850   26.5780 C.2   170  GLY170      0.2309
     84  O        -18.6300   15.4630   27.5320 O.2   170  GLY170     -0.2863
     85  N        -13.3660   15.4910   29.7480 N.3   174  GLN174     -0.1245
     86  CA       -12.9850   14.8740   31.0070 C.3   174  GLN174      0.1566
     87  C        -11.4750   14.9600   31.1770 C.2   174  GLN174      0.2260
     88  O        -10.7180   14.5450   30.2960 O.2   174  GLN174     -0.2867
     89  CB       -13.4430   13.4190   31.0360 C.3   174  GLN174      0.0367
     90  CG       -14.8830   13.2500   31.4650 C.3   174  GLN174      0.0905
     91  CD       -15.0630   13.4650   32.9510 C.2   174  GLN174      0.2608
     92  OE1      -14.3240   12.9100   33.7660 O.2   174  GLN174     -0.2717
     93  NE2      -16.0260   14.3060   33.3130 N.am  174  GLN174     -0.0878
     94  N        -27.0500   10.3190   15.4430 N.3   252  ARG252     -0.1245
     95  CA       -27.9840    9.4610   16.1640 C.3   252  ARG252      0.1563
     96  C        -29.4230    9.8090   15.8110 C.2   252  ARG252      0.2260
     97  O        -29.7750   10.9860   15.6830 O.2   252  ARG252     -0.2867
     98  CB       -27.8010    9.5800   17.6810 C.3   252  ARG252      0.0307
     99  CG       -26.8160    8.5910   18.2770 C.3   252  ARG252      0.0489
    100  CD       -26.8820    8.6070   19.7920 C.3   252  ARG252      0.2205
    101  NE       -26.6220    9.9360   20.3380 N.pl3 252  ARG252     -0.0865
    102  CZ       -25.4180   10.3760   20.6890 C.cat 252  ARG252      0.5346
    103  NH1      -24.3550    9.5930   20.5540 N.pl3 252  ARG252      0.1354
    104  NH2      -25.2770   11.6010   21.1770 N.pl3 252  ARG252      0.1354
@<TRIPOS>BOND
     1    94    95    1
     2    97    96    2
     3    96    95    1
     4    95    98    1
     5    98    99    1
     6    99   100    1
     7   100   101    1
     8   101   102    2
     9   103   102    1
    10   102   104    1
    11    79    78   ar
    12    78    77    1
    13    78    80   ar
    14    77    74    1
    15    40    39    1
    16    40    41    1
    17    74    73    1
    18    74    75    1
    19    39    38    1
    20    41    42    2
    21    43    42    1
    22    37    36    2
    23    42    44    1
    24    75    76    2
    25    75    81   am
    26    38    35    1
    27    36    35    1
    28    14    15    2
    29    14    13    1
    30    81    82    1
    31    35    34    1
    32    13    16    1
    33    13    12    1
    34    82    83    1
    35    16    17    1
    36    34    24   am
    37    83    84    2
    38    33    32    1
    39    30    32   ar
    40    30    28   ar
    41    24    25    2
    42    24    23    1
    43    17    18   ar
    44    17    19   ar
    45    18    20   ar
    46    32    31   ar
    47    28    27   ar
    48    22    23    1
    49    31    29   ar
    50    23    26    1
    51    19    21   ar
    52    27    29   ar
    53    27    26    1
    54    20    21   ar
    55    71    70    1
    56    71    72    1
    57    85    86    1
    58     3     4    2
    59     3     2    1
    60    70    69    1
    61    88    87    2
    62    45    46    1
    63    46    47    1
    64    46    49    1
    65    86    89    1
    66    86    87    1
    67    89    90    1
    68    48    47    2
    69    69    66    1
    70     2     5    1
    71     2     1    1
    72    90    91    1
    73     5     6    1
    74    50    49    1
    75    50    51    1
    76    66    67    1
    77    66    65    1
    78    67    68    2
    79    52    51    1
    80     7     6   ar
    81     7     9   ar
    82     6     8   ar
    83    91    93   am
    84    91    92    2
    85    60    59    2
    86    65    59   am
    87     9    11   ar
    88    53    54    1
    89    59    58    1
    90    54    55    1
    91    56    55    2
    92     8    10   ar
    93    55    57   am
    94    57    58    1
    95    11    10   ar
    96    58    61    1
    97    61    63    1
    98    61    62    1
    99    62    64    1
