@<TRIPOS>MOLECULE
tmp/6cesD00.pdb
 185 179 0 0 0
SMALL
GASTEIGER

@<TRIPOS>ATOM
      1  N        106.8430  124.6470  189.3040 N.3    16  SER16      -0.1202
      2  CA       106.7050  125.6430  188.2450 C.3    16  SER16       0.2020
      3  C        105.3160  126.2520  188.1670 C.2    16  SER16       0.2619
      4  O        104.4050  125.8790  188.9130 O.2    16  SER16      -0.2717
      5  CB       107.0290  125.0500  186.8720 C.3    16  SER16       0.2103
      6  OG       108.4150  124.8850  186.6780 O.3    16  SER16      -0.2182
      7  N        105.1400  127.1740  187.2330 N.am   17  GLY17      -0.1942
      8  CA       103.8960  127.9000  187.1670 C.3    17  GLY17       0.2014
      9  C        103.9880  129.2260  187.8830 C.2    17  GLY17       0.2640
     10  O        104.4430  130.2140  187.3080 O.2    17  GLY17      -0.2714
     11  N        103.5560  129.2620  189.1360 N.am   18  SER18      -0.1935
     12  CA       103.3670  130.5160  189.8470 C.3    18  SER18       0.2055
     13  C        104.6250  130.9070  190.6150 C.2    18  SER18       0.2644
     14  O        105.1080  130.1440  191.4590 O.2    18  SER18      -0.2714
     15  CB       102.1690  130.4070  190.7870 C.3    18  SER18       0.2130
     16  OG       100.9590  130.2670  190.0580 O.3    18  SER18      -0.2179
     17  N        105.1700  132.0710  190.2690 N.am   19  GLY19      -0.1939
     18  CA       105.9980  132.8900  191.1470 C.3    19  GLY19       0.2014
     19  C        107.2790  132.2820  191.6680 C.2    19  GLY19       0.2639
     20  O        107.6580  132.5350  192.8180 O.2    19  GLY19      -0.2714
     21  N        107.9600  131.4910  190.8520 N.am   20  LYS20      -0.1963
     22  CA       109.2210  130.9190  191.2910 C.3    20  LYS20       0.1728
     23  C        110.3310  131.9620  191.2660 C.2    20  LYS20       0.2617
     24  O        110.8170  132.3740  192.3210 O.2    20  LYS20      -0.2715
     25  CB       109.5820  129.7370  190.4050 C.3    20  LYS20       0.0311
     26  CG       110.8640  129.0600  190.7740 C.3    20  LYS20       0.0038
     27  CD       110.7200  128.3980  192.1090 C.3    20  LYS20       0.0206
     28  CE       109.7010  127.2990  192.0120 C.3    20  LYS20       0.1093
     29  NZ       110.1930  126.2140  191.1230 N.3    20  LYS20      -0.1314
     30  N        110.6940  132.4450  190.0790 N.am   21  THR21      -0.1937
     31  CA       111.7870  133.4020  189.9640 C.3    21  THR21       0.2028
     32  C        111.3060  134.8400  189.9060 C.2    21  THR21       0.2642
     33  O        112.1370  135.7540  189.8750 O.2    21  THR21      -0.2714
     34  CB       112.6300  133.1140  188.7210 C.3    21  THR21       0.1808
     35  OG1      113.8540  133.8500  188.8010 O.3    21  THR21      -0.2208
     36  CG2      111.8950  133.5490  187.4690 C.3    21  THR21       0.0379
     37  N        109.9920  135.0530  189.8860 N.am   22  SER22      -0.1949
     38  CA       109.4500  136.3990  189.7630 C.3    22  SER22       0.1924
     39  C        109.7420  137.2310  190.9990 C.2    22  SER22       0.2314
     40  O        110.0960  138.4140  190.9000 O.2    22  SER22      -0.2863
     41  CB       107.9480  136.3210  189.5170 C.3    22  SER22       0.2116
     42  OG       107.3920  137.6180  189.4470 O.3    22  SER22      -0.2180
     43  N        105.4770  144.8410  189.9040 N.3    33  ALA33      -0.1245
     44  CA       104.5780  143.6970  189.8280 C.3    33  ALA33       0.1562
     45  C        103.9530  143.5330  188.4500 C.2    33  ALA33       0.2260
     46  O        103.4140  142.4640  188.1500 O.2    33  ALA33      -0.2867
     47  CB       103.4770  143.8320  190.8780 C.3    33  ALA33       0.0290
     48  N        106.9390  141.9540  185.7020 N.3    36  THR36      -0.1203
     49  CA       107.4170  140.6010  185.9400 C.3    36  THR36       0.1994
     50  C        106.6260  139.5560  185.1640 C.2    36  THR36       0.2617
     51  O        106.7700  138.3590  185.4240 O.2    36  THR36      -0.2717
     52  CB       107.3830  140.2850  187.4310 C.3    36  THR36       0.1784
     53  OG1      107.9680  139.0000  187.6530 O.3    36  THR36      -0.2211
     54  CG2      105.9590  140.2930  187.9480 C.3    36  THR36       0.0376
     55  N        105.8090  139.9880  184.2150 N.am   37  ARG37      -0.1979
     56  CA       105.0620  139.1410  183.2990 C.3    37  ARG37       0.1597
     57  C        105.9260  138.6560  182.1360 C.2    37  ARG37       0.2287
     58  O        105.4810  137.8270  181.3340 O.2    37  ARG37      -0.2864
     59  CB       103.8560  139.9550  182.8130 C.3    37  ARG37       0.0334
     60  CG       102.7440  139.2590  182.0620 C.3    37  ARG37       0.0492
     61  CD       101.7190  140.3030  181.6910 C.3    37  ARG37       0.2205
     62  NE       102.3300  141.3140  180.8340 N.pl3  37  ARG37      -0.0865
     63  CZ       101.7600  142.4670  180.5080 C.cat  37  ARG37       0.5346
     64  NH1      100.5540  142.7650  180.9650 N.pl3  37  ARG37       0.1354
     65  NH2      102.4000  143.3230  179.7240 N.pl3  37  ARG37       0.1354
     66  N        109.3100  137.4640  182.3980 N.3    39  LEU39      -0.1231
     67  CA       110.4490  136.6100  182.7250 C.3    39  LEU39       0.1693
     68  C        110.3500  135.2680  182.0200 C.2    39  LEU39       0.2593
     69  O        111.2820  134.8490  181.3260 O.2    39  LEU39      -0.2718
     70  CB       110.5410  136.4130  184.2310 C.3    39  LEU39       0.0284
     71  CG       110.9490  137.6620  184.9970 C.3    39  LEU39       0.0019
     72  CD1      110.7290  137.4440  186.4580 C.3    39  LEU39       0.0001
     73  CD2      112.4070  137.9630  184.7370 C.3    39  LEU39       0.0001
     74  N        109.2320  134.5860  182.1820 N.am   40  GLY40      -0.1942
     75  CA       109.0190  133.3550  181.4600 C.3    40  GLY40       0.2014
     76  C        109.7720  132.1860  182.0640 C.2    40  GLY40       0.2639
     77  O        110.1340  132.1710  183.2440 O.2    40  GLY40      -0.2714
     78  N        110.0100  131.1880  181.2180 N.am   41  ALA41      -0.1963
     79  CA       110.5930  129.9380  181.6740 C.3    41  ALA41       0.1728
     80  C        112.0630  130.1150  182.0180 C.2    41  ALA41       0.2617
     81  O        112.8080  130.7960  181.3090 O.2    41  ALA41      -0.2715
     82  CB       110.4370  128.8590  180.6070 C.3    41  ALA41       0.0334
     83  N        112.4700  129.5130  183.1240 N.am   42  THR42      -0.1937
     84  CA       113.8740  129.4030  183.4820 C.3    42  THR42       0.2028
     85  C        114.4130  128.0920  182.9070 C.2    42  THR42       0.2642
     86  O        113.7980  127.4820  182.0310 O.2    42  THR42      -0.2714
     87  CB       114.0370  129.4940  184.9990 C.3    42  THR42       0.1808
     88  OG1      113.3500  128.4020  185.6150 O.3    42  THR42      -0.2208
     89  CG2      113.4550  130.7880  185.5080 C.3    42  THR42       0.0379
     90  N        115.5680  127.6470  183.3840 N.am   43  ILE43      -0.1977
     91  CA       116.1250  126.3550  183.0040 C.3    43  ILE43       0.1596
     92  C        116.3640  125.6020  184.2990 C.2    43  ILE43       0.2287
     93  O        115.8150  125.9830  185.3390 O.2    43  ILE43      -0.2864
     94  CB       117.4100  126.4740  182.1660 C.3    43  ILE43       0.0276
     95  CG1      118.4960  127.2360  182.9310 C.3    43  ILE43       0.0022
     96  CG2      117.1050  127.1070  180.8170 C.3    43  ILE43       0.0022
     97  CD1      119.8700  127.1610  182.2910 C.3    43  ILE43       0.0001
     98  N        118.4680  129.4110  192.2550 N.3    62  ASP62      -0.1239
     99  CA       117.0950  129.3260  191.7920 C.3    62  ASP62       0.1674
    100  C        116.9660  128.0370  191.0000 C.2    62  ASP62       0.2266
    101  O        117.6310  127.8730  189.9630 O.2    62  ASP62      -0.2867
    102  CB       116.7380  130.5350  190.9330 C.3    62  ASP62       0.1410
    103  CG       115.2850  130.5600  190.5490 C.2    62  ASP62       0.3668
    104  OD1      114.4520  130.8760  191.4210 O.co2  62  ASP62      -0.2456
    105  OD2      114.9750  130.2620  189.3790 O.co2  62  ASP62      -0.2456
    106  N        114.6860  125.0910  188.9310 N.3    64  GLY64      -0.1210
    107  CA       113.4970  124.9920  188.1130 C.3    64  GLY64       0.1956
    108  C        112.4550  124.0540  188.7050 C.2    64  GLY64       0.2612
    109  O        112.5540  123.5780  189.8370 O.2    64  GLY64      -0.2717
    110  N        111.4270  123.7870  187.9050 N.am   65  GLY65      -0.1942
    111  CA       110.3360  122.9670  188.3940 C.3    65  GLY65       0.2014
    112  C        109.6520  122.0350  187.4110 C.2    65  GLY65       0.2638
    113  O        108.5110  121.6300  187.6490 O.2    65  GLY65      -0.2714
    114  N        110.3070  121.6880  186.3060 N.am   66  GLN66      -0.1977
    115  CA       109.7690  120.6330  185.4590 C.3    66  GLN66       0.1601
    116  C        109.9790  119.2620  186.1010 C.2    66  GLN66       0.2287
    117  O        110.6600  119.1140  187.1210 O.2    66  GLN66      -0.2864
    118  CB       110.4050  120.6630  184.0700 C.3    66  GLN66       0.0394
    119  CG       109.7980  121.6650  183.0970 C.3    66  GLN66       0.0908
    120  CD       110.2700  123.0800  183.3170 C.2    66  GLN66       0.2608
    121  OE1      111.2190  123.3240  184.0550 O.2    66  GLN66      -0.2717
    122  NE2      109.6200  124.0260  182.6540 N.am   66  GLN66      -0.0878
    123  N        102.4550  131.8090  198.2940 N.3   127  HIS127     -0.1226
    124  CA       102.3260  133.1030  197.6450 C.3   127  HIS127      0.1752
    125  C        101.0930  133.0800  196.7530 C.2   127  HIS127      0.2595
    126  O        100.4120  132.0570  196.6410 O.2   127  HIS127     -0.2718
    127  CB       103.5760  133.4490  196.8360 C.3   127  HIS127      0.0759
    128  CG       103.5460  132.9430  195.4350 C.ar  127  HIS127      0.0818
    129  ND1      103.6580  131.6120  195.1160 N.ar  127  HIS127     -0.2268
    130  CD2      103.4270  133.6020  194.2610 C.ar  127  HIS127      0.1154
    131  CE1      103.5920  131.4700  193.8040 C.ar  127  HIS127      0.1986
    132  NE2      103.4480  132.6630  193.2610 N.ar  127  HIS127     -0.2212
    133  N        100.8090  134.2430  196.1570 N.am  128  LYS128     -0.1980
    134  CA        99.7380  134.4360  195.1710 C.3   128  LYS128      0.1596
    135  C         98.3810  134.1590  195.8150 C.2   128  LYS128      0.2287
    136  O         97.6110  133.2990  195.3860 O.2   128  LYS128     -0.2864
    137  CB        99.9890  133.5860  193.9160 C.3   128  LYS128      0.0298
    138  CG        99.1830  133.8780  192.6580 C.3   128  LYS128      0.0038
    139  CD        99.8050  133.0950  191.5140 C.3   128  LYS128      0.0206
    140  CE        99.1260  133.3210  190.1810 C.3   128  LYS128      0.1093
    141  NZ        97.7970  132.6630  190.1210 N.3   128  LYS128     -0.1314
    142  N         96.3510  136.7080  196.0540 N.3   130  ASP130     -0.1225
    143  CA        95.6640  137.8710  195.5250 C.3   130  ASP130      0.1805
    144  C         94.4120  137.5210  194.7370 C.2   130  ASP130      0.2597
    145  O         93.7390  138.4300  194.2430 O.2   130  ASP130     -0.2718
    146  CB        96.6390  138.6620  194.6550 C.3   130  ASP130      0.1424
    147  CG        97.3770  137.7800  193.6670 C.2   130  ASP130      0.3668
    148  OD1       97.2050  136.5440  193.7330 O.co2 130  ASP130     -0.2456
    149  OD2       98.1370  138.3160  192.8340 O.co2 130  ASP130     -0.2456
    150  N         94.0770  136.2370  194.6120 N.am  131  LEU131     -0.1979
    151  CA        92.9350  135.8060  193.8230 C.3   131  LEU131      0.1596
    152  C         91.7730  135.2870  194.6550 C.2   131  LEU131      0.2287
    153  O         90.7270  134.9610  194.0880 O.2   131  LEU131     -0.2864
    154  CB        93.3600  134.7110  192.8370 C.3   131  LEU131      0.0297
    155  CG        94.3920  135.0810  191.7730 C.3   131  LEU131      0.0022
    156  CD1       94.7300  133.8560  190.9520 C.3   131  LEU131      0.0001
    157  CD2       93.8990  136.2090  190.8810 C.3   131  LEU131      0.0001
    158  N        101.8970  137.7570  198.5780 N.3   163  SER163     -0.1202
    159  CA       101.5300  137.9930  197.1940 C.3   163  SER163      0.2020
    160  C        102.5450  138.9580  196.6010 C.2   163  SER163      0.2619
    161  O        103.3820  139.5210  197.3080 O.2   163  SER163     -0.2717
    162  CB       100.1110  138.5520  197.0710 C.3   163  SER163      0.2103
    163  OG        99.8200  138.8900  195.7280 O.3   163  SER163     -0.2182
    164  N        102.4760  139.1400  195.2870 N.am  164  ILE164     -0.1965
    165  CA       103.4000  140.0430  194.6110 C.3   164  ILE164      0.1727
    166  C        102.8630  141.4730  194.6050 C.2   164  ILE164      0.2616
    167  O        103.6310  142.4270  194.7630 O.2   164  ILE164     -0.2715
    168  CB       103.7090  139.5160  193.1920 C.3   164  ILE164      0.0290
    169  CG1      104.6260  138.2940  193.2600 C.3   164  ILE164      0.0022
    170  CG2      104.4040  140.5360  192.3250 C.3   164  ILE164      0.0023
    171  CD1      103.9450  136.9610  193.3120 C.3   164  ILE164      0.0001
    172  N        101.5480  141.6410  194.5440 N.am  165  TRP165     -0.1974
    173  CA       100.9270  142.9550  194.4840 C.3   165  TRP165      0.1640
    174  C        100.7380  143.6070  195.8580 C.2   165  TRP165      0.2290
    175  O         99.8860  144.4930  195.9860 O.2   165  TRP165     -0.2864
    176  CB        99.5800  142.8470  193.7720 C.3   165  TRP165      0.0576
    177  CG        99.7000  142.4780  192.3340 C.ar  165  TRP165      0.0006
    178  CD1       99.6880  141.2220  191.8110 C.ar  165  TRP165      0.0946
    179  CD2       99.8120  143.3730  191.2260 C.ar  165  TRP165      0.0152
    180  NE1       99.8060  141.2760  190.4450 N.ar  165  TRP165     -0.2442
    181  CE2       99.8810  142.5880  190.0620 C.ar  165  TRP165      0.0810
    182  CE3       99.8660  144.7640  191.1070 C.ar  165  TRP165      0.0012
    183  CZ2      100.0040  143.1440  188.7950 C.ar  165  TRP165      0.0191
    184  CZ3       99.9880  145.3150  189.8490 C.ar  165  TRP165      0.0001
    185  CH2      100.0560  144.5070  188.7090 C.ar  165  TRP165      0.0015
@<TRIPOS>BOND
     1    65    63    1
     2    63    62    2
     3    63    64    1
     4    82    79    1
     5    96    94    1
     6    62    61    1
     7    78    79    1
     8    78    76   am
     9    81    80    2
    10    69    68    2
    11    58    57    2
    12    75    76    1
    13    75    74    1
    14    79    80    1
    15    61    60    1
    16    80    83   am
    17    68    74   am
    18    68    67    1
    19    86    85    2
    20    60    59    1
    21    76    77    2
    22    57    56    1
    23    94    95    1
    24    94    91    1
    25    97    95    1
    26    66    67    1
    27   122   120   am
    28    67    70    1
    29    59    56    1
    30    85    90   am
    31    85    84    1
    32    91    90    1
    33    91    92    1
    34   119   120    1
    35   119   118    1
    36    83    84    1
    37    56    55    1
    38   120   121    2
    39    84    87    1
    40   118   115    1
    41    55    50   am
    42    70    71    1
    43    92    93    2
    44    73    71    1
    45    71    72    1
    46    87    89    1
    47    87    88    1
    48    50    51    2
    49    50    49    1
    50   115   116    1
    51   115   114    1
    52    48    49    1
    53    49    52    1
    54   116   117    2
    55   114   112   am
    56     6     5    1
    57     5     2    1
    58     8     7    1
    59     8     9    1
    60     7     3   am
    61    10     9    2
    62   112   113    2
    63   112   111    1
    64    52    53    1
    65    52    54    1
    66    36    34    1
    67     9    11   am
    68   110   111    1
    69   110   108   am
    70   107   108    1
    71   107   106    1
    72    46    45    2
    73     3     2    1
    74     3     4    2
    75     2     1    1
    76    45    44    1
    77   108   109    2
    78   185   183   ar
    79   185   184   ar
    80    34    35    1
    81    34    31    1
    82   183   181   ar
    83    11    12    1
    84   105   103   ar
    85    42    41    1
    86    41    38    1
    87    38    37    1
    88    38    39    1
    89    44    43    1
    90    44    47    1
    91    12    13    1
    92    12    15    1
    93   184   182   ar
    94    33    32    2
    95    37    32   am
    96    32    31    1
    97   101   100    2
    98    31    30    1
    99    16    15    1
   100   181   180   ar
   101   181   179   ar
   102    30    23   am
   103   141   140    1
   104   140   139    1
   105    17    13   am
   106    17    18    1
   107    25    26    1
   108    25    22    1
   109   180   178   ar
   110   103   102    1
   111   103   104   ar
   112    13    14    2
   113    26    27    1
   114    21    22    1
   115    21    19   am
   116   157   155    1
   117    40    39    2
   118   102    99    1
   119   156   155    1
   120   100    99    1
   121   182   179   ar
   122    29    28    1
   123    18    19    1
   124   179   177   ar
   125    23    22    1
   126    23    24    2
   127   139   138    1
   128    19    20    2
   129   155   154    1
   130    99    98    1
   131   178   177   ar
   132    28    27    1
   133   170   168    1
   134   177   176    1
   135   138   137    1
   136   149   147   ar
   137   154   151    1
   138   168   169    1
   139   168   165    1
   140   169   171    1
   141   132   131   ar
   142   132   130   ar
   143   147   148   ar
   144   147   146    1
   145   176   173    1
   146   131   129   ar
   147   151   150    1
   148   151   152    1
   149   137   134    1
   150   153   152    2
   151   145   144    2
   152   130   128   ar
   153   173   172    1
   154   173   174    1
   155   172   166   am
   156   166   165    1
   157   166   167    2
   158   165   164    1
   159   150   144   am
   160   146   143    1
   161   144   143    1
   162   129   128   ar
   163   134   135    1
   164   134   133    1
   165   164   160   am
   166   136   135    2
   167   128   127    1
   168   143   142    1
   169   163   162    1
   170   174   175    2
   171   133   125   am
   172   160   159    1
   173   160   161    2
   174   126   125    2
   175   125   124    1
   176   127   124    1
   177   162   159    1
   178   159   158    1
   179   124   123    1
