@<TRIPOS>MOLECULE
tmp/6cexE01.pdb
 89 84 0 0 0
SMALL
GASTEIGER

@<TRIPOS>ATOM
      1  N          1.9650  -22.8100  -74.6000 N.3    90  TYR90      -0.1241
      2  CA         1.9340  -21.5650  -73.8400 C.3    90  TYR90       0.1605
      3  C          2.0820  -21.8550  -72.3480 C.2    90  TYR90       0.2264
      4  O          1.3980  -22.7480  -71.8280 O.2    90  TYR90      -0.2867
      5  CB         0.6200  -20.8350  -74.1050 C.3    90  TYR90       0.0534
      6  CG         0.7090  -19.3460  -73.9350 C.ar   90  TYR90      -0.0201
      7  CD1        0.6440  -18.7680  -72.6740 C.ar   90  TYR90      -0.0009
      8  CD2        0.8500  -18.5110  -75.0350 C.ar   90  TYR90      -0.0009
      9  CE1        0.7310  -17.3980  -72.5120 C.ar   90  TYR90       0.0417
     10  CE2        0.9290  -17.1410  -74.8840 C.ar   90  TYR90       0.0417
     11  CZ         0.8750  -16.5900  -73.6200 C.ar   90  TYR90       0.1957
     12  OH         0.9610  -15.2280  -73.4660 O.3    90  TYR90      -0.2866
     13  N        -10.8290  -10.9920  -82.7890 N.3   123  THR123     -0.1218
     14  CA        -9.9980  -11.8600  -83.6100 C.3   123  THR123      0.1862
     15  C         -9.8160  -13.2010  -82.9110 C.2   123  THR123      0.2287
     16  O         -9.4750  -13.2490  -81.7240 O.2   123  THR123     -0.2866
     17  CB        -8.6370  -11.2140  -83.8540 C.3   123  THR123      0.1770
     18  OG1       -8.8230   -9.8690  -84.3130 O.3   123  THR123     -0.2211
     19  CG2       -7.8570  -12.0020  -84.8950 C.3   123  THR123      0.0375
     20  N         -5.6670  -16.8910  -81.8320 N.3   126  GLY126     -0.1210
     21  CA        -4.3510  -16.3480  -81.5630 C.3   126  GLY126      0.1956
     22  C         -3.3370  -17.4530  -81.3280 C.2   126  GLY126      0.2612
     23  O         -3.6580  -18.5200  -80.8030 O.2   126  GLY126     -0.2717
     24  N         -2.0990  -17.1890  -81.7510 N.am  127  GLY127     -0.1942
     25  CA        -1.0400  -18.1690  -81.6610 C.3   127  GLY127      0.2014
     26  C          0.2010  -17.5600  -81.0360 C.2   127  GLY127      0.2640
     27  O          0.2820  -16.3530  -80.8120 O.2   127  GLY127     -0.2714
     28  N          1.1770  -18.4230  -80.7690 N.am  128  SER128     -0.1935
     29  CA         2.3720  -17.9980  -80.0640 C.3   128  SER128      0.2055
     30  C          3.5500  -18.8710  -80.4650 C.2   128  SER128      0.2643
     31  O          3.3950  -20.0590  -80.7610 O.2   128  SER128     -0.2714
     32  CB         2.1640  -18.0540  -78.5460 C.3   128  SER128      0.2130
     33  OG         3.4050  -18.0070  -77.8660 O.3   128  SER128     -0.2179
     34  N          4.7370  -18.2670  -80.4560 N.am  129  ASN129     -0.1957
     35  CA         5.9550  -19.0030  -80.7590 C.3   129  ASN129      0.1819
     36  C          6.3830  -19.8980  -79.6090 C.2   129  ASN129      0.2621
     37  O          7.2450  -20.7630  -79.8010 O.2   129  ASN129     -0.2715
     38  CB         7.0700  -18.0210  -81.0970 C.3   129  ASN129      0.1195
     39  CG         6.8610  -17.3630  -82.4380 C.2   129  ASN129      0.2630
     40  OD1        6.6110  -18.0340  -83.4420 O.2   129  ASN129     -0.2716
     41  ND2        6.9250  -16.0380  -82.4580 N.am  129  ASN129     -0.0877
     42  N          5.8050  -19.7020  -78.4220 N.am  130  ALA130     -0.1977
     43  CA         5.9910  -20.6320  -77.3190 C.3   130  ALA130      0.1597
     44  C          5.2270  -21.9310  -77.5180 C.2   130  ALA130      0.2287
     45  O          5.4440  -22.8810  -76.7600 O.2   130  ALA130     -0.2864
     46  CB         5.5530  -19.9760  -76.0120 C.3   130  ALA130      0.0319
     47  N          3.9420  -20.4980  -85.4290 N.3   137  SER137     -0.1217
     48  CA         3.3060  -20.3030  -84.1360 C.3   137  SER137      0.1889
     49  C          1.9490  -20.9940  -84.0720 C.2   137  SER137      0.2288
     50  O          1.2690  -21.1750  -85.0840 O.2   137  SER137     -0.2866
     51  CB         3.1240  -18.8140  -83.8620 C.3   137  SER137      0.2089
     52  OG         2.0390  -18.3190  -84.6210 O.3   137  SER137     -0.2183
     53  N         -7.6950  -18.4250  -78.4270 N.3   145  TRP145     -0.1241
     54  CA        -7.1550  -17.1700  -77.9230 C.3   145  TRP145      0.1605
     55  C         -7.8310  -16.0230  -78.6630 C.2   145  TRP145      0.2264
     56  O         -7.5310  -15.7670  -79.8340 O.2   145  TRP145     -0.2867
     57  CB        -5.6410  -17.1410  -78.1080 C.3   145  TRP145      0.0550
     58  CG        -4.9710  -16.0000  -77.4360 C.ar  145  TRP145      0.0003
     59  CD1       -5.5700  -14.9800  -76.7500 C.ar  145  TRP145      0.0946
     60  CD2       -3.5670  -15.7360  -77.4050 C.ar  145  TRP145      0.0152
     61  NE1       -4.6200  -14.1050  -76.2800 N.ar  145  TRP145     -0.2442
     62  CE2       -3.3820  -14.5440  -76.6700 C.ar  145  TRP145      0.0810
     63  CE3       -2.4440  -16.3970  -77.9160 C.ar  145  TRP145      0.0012
     64  CZ2       -2.1200  -13.9970  -76.4360 C.ar  145  TRP145      0.0191
     65  CZ3       -1.1890  -15.8490  -77.6850 C.ar  145  TRP145      0.0001
     66  CH2       -1.0390  -14.6590  -76.9520 C.ar  145  TRP145      0.0015
     67  N         -8.5840  -12.0840  -79.3010 N.3   147  THR147     -0.1218
     68  CA        -7.9440  -10.7850  -79.1510 C.3   147  THR147      0.1862
     69  C         -8.7710   -9.7430  -79.8900 C.2   147  THR147      0.2287
     70  O         -9.7810  -10.0560  -80.5280 O.2   147  THR147     -0.2866
     71  CB        -6.4970  -10.7950  -79.6550 C.3   147  THR147      0.1770
     72  OG1       -6.4610  -11.2880  -81.0010 O.3   147  THR147     -0.2211
     73  CG2       -5.6200  -11.6630  -78.7570 C.3   147  THR147      0.0375
     74  N         -3.5610   -6.1810  -76.5970 N.3   186  LEU186     -0.1245
     75  CA        -4.3220   -7.3850  -76.8990 C.3   186  LEU186      0.1561
     76  C         -5.8260   -7.2010  -76.7410 C.2   186  LEU186      0.2260
     77  O         -6.5920   -7.6660  -77.5930 O.2   186  LEU186     -0.2867
     78  CB        -3.8580   -8.5390  -76.0090 C.3   186  LEU186      0.0270
     79  CG        -2.4370   -9.0520  -76.2330 C.3   186  LEU186      0.0019
     80  CD1       -2.0680  -10.0470  -75.1460 C.3   186  LEU186      0.0001
     81  CD2       -2.3330   -9.6850  -77.6110 C.3   186  LEU186      0.0001
     82  N          8.3840  -16.3660  -72.8920 N.3   218  LEU218     -0.1245
     83  CA         7.2420  -15.5680  -72.4760 C.3   218  LEU218      0.1561
     84  C          7.2470  -15.3330  -70.9760 C.2   218  LEU218      0.2260
     85  O          7.6280  -16.2090  -70.1920 O.2   218  LEU218     -0.2867
     86  CB         5.9240  -16.2310  -72.8610 C.3   218  LEU218      0.0270
     87  CG         5.6150  -16.3510  -74.3450 C.3   218  LEU218      0.0019
     88  CD1        4.2860  -17.0410  -74.4990 C.3   218  LEU218      0.0001
     89  CD2        5.5890  -14.9750  -74.9870 C.3   218  LEU218      0.0001
@<TRIPOS>BOND
     1    47    48    1
     2    50    49    2
     3    19    17    1
     4    52    51    1
     5    18    17    1
     6    48    49    1
     7    48    51    1
     8    17    14    1
     9    14    15    1
    10    14    13    1
    11    40    39    2
    12    15    16    2
    13    41    39   am
    14    39    38    1
    15    20    21    1
    16    24    25    1
    17    24    22   am
    18    25    26    1
    19    21    22    1
    20    22    23    2
    21    38    35    1
    22    26    27    2
    23    26    28   am
    24    72    71    1
    25    28    29    1
    26    31    30    2
    27    35    34    1
    28    35    36    1
    29    70    69    2
    30    30    34   am
    31    30    29    1
    32    29    32    1
    33    69    68    1
    34    56    55    2
    35    37    36    2
    36    71    68    1
    37    71    73    1
    38    36    42   am
    39    67    68    1
    40    55    54    1
    41    32    33    1
    42    53    54    1
    43    42    43    1
    44    57    54    1
    45    57    58    1
    46    63    65   ar
    47    63    60   ar
    48    65    66   ar
    49    81    79    1
    50    77    76    2
    51    44    43    1
    52    44    45    2
    53    58    60   ar
    54    58    59   ar
    55    60    62   ar
    56    43    46    1
    57    66    64   ar
    58    75    76    1
    59    75    74    1
    60    75    78    1
    61    59    61   ar
    62    62    64   ar
    63    62    61   ar
    64    79    78    1
    65    79    80    1
    66     8    10   ar
    67     8     6   ar
    68    89    87    1
    69    10    11   ar
    70     1     2    1
    71    88    87    1
    72    87    86    1
    73     5     6    1
    74     5     2    1
    75     6     7   ar
    76     2     3    1
    77    11    12    1
    78    11     9   ar
    79    82    83    1
    80    86    83    1
    81     7     9   ar
    82    83    84    1
    83     3     4    2
    84    84    85    2
