@<TRIPOS>MOLECULE
tmp/6ceyC00.pdb
 138 130 0 0 0
SMALL
GASTEIGER

@<TRIPOS>ATOM
      1  N         64.9650   38.6470   66.9030 N.3    25  ILE25      -0.1231
      2  CA        64.9010   39.5360   68.0850 C.3    25  ILE25       0.1692
      3  C         65.9720   39.1360   69.0910 C.2    25  ILE25       0.2593
      4  O         66.3870   39.9510   69.9070 O.2    25  ILE25      -0.2718
      5  CB        63.4660   39.6360   68.6740 C.3    25  ILE25       0.0266
      6  CG1       63.2850   40.8630   69.5610 C.3    25  ILE25       0.0019
      7  CG2       63.0130   38.3480   69.3490 C.3    25  ILE25       0.0020
      8  CD1       63.3720   42.2260   68.9020 C.3    25  ILE25       0.0001
      9  N         66.4580   37.9000   68.9740 N.am   26  GLY26      -0.1942
     10  CA        67.5620   37.4630   69.7490 C.3    26  GLY26       0.2014
     11  C         68.0090   36.0850   69.3580 C.2    26  GLY26       0.2639
     12  O         67.3580   35.3800   68.5640 O.2    26  GLY26      -0.2714
     13  N         69.1330   35.6720   69.9190 N.am   27  SER27      -0.1949
     14  CA        69.7070   34.4080   69.5160 C.3    27  SER27       0.1924
     15  C         70.7730   33.9580   70.5000 C.2    27  SER27       0.2314
     16  O         71.5540   34.7640   70.9750 O.2    27  SER27      -0.2863
     17  CB        70.3320   34.4940   68.1180 C.3    27  SER27       0.2116
     18  OG        71.6590   34.9020   68.1680 O.3    27  SER27      -0.2180
     19  N         65.4350   33.3770   68.3450 N.3    33  ALA33      -0.1245
     20  CA        64.1210   33.9000   68.6450 C.3    33  ALA33       0.1562
     21  C         63.7100   34.9780   67.6380 C.2    33  ALA33       0.2260
     22  O         64.4840   35.8620   67.2690 O.2    33  ALA33      -0.2867
     23  CB        64.0640   34.4670   70.0660 C.3    33  ALA33       0.0290
     24  N         56.2380   36.1570   69.8550 N.3    41  ILE41      -0.1245
     25  CA        57.5950   35.6440   69.9580 C.3    41  ILE41       0.1561
     26  C         57.5630   34.2240   69.5820 C.2    41  ILE41       0.2260
     27  O         56.7270   33.4870   70.0860 O.2    41  ILE41      -0.2867
     28  CB        58.1420   35.7560   71.3990 C.3    41  ILE41       0.0252
     29  CG1       58.2860   37.2240   71.8050 C.3    41  ILE41       0.0019
     30  CG2       59.5050   35.0960   71.5460 C.3    41  ILE41       0.0019
     31  CD1       59.3240   38.0390   71.0960 C.3    41  ILE41       0.0001
     32  N         60.2680   31.1980   69.7810 N.3    43  LYS43      -0.1245
     33  CA        61.6280   30.7100   70.1310 C.3    43  LYS43       0.1561
     34  C         61.8320   29.4120   69.4180 C.2    43  LYS43       0.2260
     35  O         60.9430   28.5910   69.4210 O.2    43  LYS43      -0.2867
     36  CB        61.7210   30.3980   71.6190 C.3    43  LYS43       0.0271
     37  CG        61.6140   31.5250   72.5760 C.3    43  LYS43       0.0035
     38  CD        61.6590   30.9950   73.9890 C.3    43  LYS43       0.0206
     39  CE        63.0790   30.6080   74.3780 C.3    43  LYS43       0.1093
     40  NZ        63.3310   30.6010   75.8620 N.3    43  LYS43      -0.1314
     41  N         55.7380   26.9800   81.8980 N.3    55  TYR55      -0.1241
     42  CA        54.8450   28.0970   81.6210 C.3    55  TYR55       0.1605
     43  C         53.4020   27.6930   81.9360 C.2    55  TYR55       0.2264
     44  O         52.6750   28.4470   82.5350 O.2    55  TYR55      -0.2867
     45  CB        54.9580   28.6120   80.1720 C.3    55  TYR55       0.0534
     46  CG        56.2620   29.2640   79.8870 C.ar   55  TYR55      -0.0201
     47  CD1       56.7850   30.2290   80.6880 C.ar   55  TYR55      -0.0009
     48  CD2       56.9610   28.9180   78.7580 C.ar   55  TYR55      -0.0009
     49  CE1       58.0080   30.8330   80.3890 C.ar   55  TYR55       0.0417
     50  CE2       58.1880   29.4900   78.4410 C.ar   55  TYR55       0.0417
     51  CZ        58.7230   30.4350   79.2740 C.ar   55  TYR55       0.1957
     52  OH        59.9530   30.9540   78.9510 O.3    55  TYR55      -0.2866
     53  N         54.3450   32.5770   71.6070 N.3    85  TYR85      -0.1241
     54  CA        53.5180   33.2230   72.6110 C.3    85  TYR85       0.1605
     55  C         53.4740   34.6850   72.3080 C.2    85  TYR85       0.2264
     56  O         54.3120   35.1790   71.5640 O.2    85  TYR85      -0.2867
     57  CB        54.1140   32.9550   74.0030 C.3    85  TYR85       0.0534
     58  CG        55.5550   33.3820   74.2350 C.ar   85  TYR85      -0.0201
     59  CD1       55.8660   34.6810   74.6340 C.ar   85  TYR85      -0.0009
     60  CD2       56.5810   32.4930   74.0890 C.ar   85  TYR85      -0.0009
     61  CE1       57.1740   35.0670   74.8690 C.ar   85  TYR85       0.0417
     62  CE2       57.9180   32.8600   74.3240 C.ar   85  TYR85       0.0417
     63  CZ        58.2000   34.1250   74.6840 C.ar   85  TYR85       0.1957
     64  OH        59.4720   34.4880   74.8800 O.3    85  TYR85      -0.2866
     65  N         54.1850   38.5110   72.5950 N.3    87  GLU87      -0.1182
     66  CA        55.2980   39.3110   73.0700 C.3    87  GLU87       0.1915
     67  C         54.7930   40.0730   74.2470 C.2    87  GLU87       0.2634
     68  O         53.7940   40.7540   74.1540 O.2    87  GLU87      -0.2714
     69  CB        55.7590   40.3170   71.9930 C.2    87  GLU87       0.0085
     70  CG        56.9600   41.1310   72.3500 C.2    87  GLU87       0.0835
     71  CD        57.2420   42.3850   71.5040 C.2    87  GLU87       0.3877
     72  OE1       56.3260   42.8920   70.8010 O.co2  87  GLU87      -0.2406
     73  OE2       58.4410   42.8470   71.4810 O.co2  87  GLU87      -0.2406
     74  N         55.4830   39.9830   75.3820 N.am   88  ILE88      -0.1977
     75  CA        55.2160   40.9150   76.4880 C.3    88  ILE88       0.1596
     76  C         55.8690   42.2150   76.1190 C.2    88  ILE88       0.2287
     77  O         57.0290   42.2200   75.7650 O.2    88  ILE88      -0.2864
     78  CB        55.7610   40.3570   77.7950 C.3    88  ILE88       0.0276
     79  CG1       55.0480   39.0520   78.1130 C.3    88  ILE88       0.0022
     80  CG2       55.5170   41.3330   78.9180 C.3    88  ILE88       0.0022
     81  CD1       55.7270   38.1960   79.1330 C.3    88  ILE88       0.0001
     82  N         57.4350   46.0300   76.3970 N.3    90  GLY90      -0.1225
     83  CA        58.1990   46.7450   77.3470 C.3    90  GLY90       0.1811
     84  C         59.6250   46.8610   76.9990 C.2    90  GLY90       0.2280
     85  O         59.9980   46.4790   75.9620 O.2    90  GLY90      -0.2866
     86  N         63.6490   46.0930   78.3960 N.3    92  PHE92      -0.1241
     87  CA        64.4340   45.2540   79.2970 C.3    92  PHE92       0.1605
     88  C         65.2370   46.1190   80.2360 C.2    92  PHE92       0.2264
     89  O         65.8630   47.0860   79.8260 O.2    92  PHE92      -0.2867
     90  CB        65.3530   44.2680   78.5220 C.3    92  PHE92       0.0534
     91  CG        64.5890   43.1360   77.9400 C.ar   92  PHE92      -0.0203
     92  CD1       64.0930   42.1430   78.7860 C.ar   92  PHE92      -0.0042
     93  CD2       64.2300   43.1080   76.6210 C.ar   92  PHE92      -0.0042
     94  CE1       63.3060   41.1380   78.3040 C.ar   92  PHE92      -0.0003
     95  CE2       63.4400   42.0770   76.1150 C.ar   92  PHE92      -0.0003
     96  CZ        62.9730   41.1000   76.9480 C.ar   92  PHE92      -0.0000
     97  N         68.3730   41.1170   81.9570 N.3   189  ASN189     -0.1225
     98  CA        67.9100   40.9880   80.5440 C.3   189  ASN189      0.1785
     99  C         66.6590   40.0590   80.3630 C.2   189  ASN189      0.2597
    100  O         66.2320   39.7790   79.2410 O.2   189  ASN189     -0.2718
    101  CB        69.0740   40.5460   79.5990 C.3   189  ASN189      0.1169
    102  CG        69.5270   39.0900   79.8570 C.2   189  ASN189      0.2627
    103  OD1       69.8250   38.7150   80.9920 O.2   189  ASN189     -0.2716
    104  ND2       69.5990   38.2800   78.8160 N.am  189  ASN189     -0.0877
    105  N         66.1070   39.5330   81.4420 N.am  190  HIS190     -0.1975
    106  CA        64.8810   38.7880   81.3630 C.3   190  HIS190      0.1656
    107  C         63.7400   39.5080   82.0740 C.2   190  HIS190      0.2291
    108  O         62.6670   38.9420   82.1890 O.2   190  HIS190     -0.2864
    109  CB        65.0580   37.3930   81.9280 C.3   190  HIS190      0.0771
    110  CG        65.8970   36.5060   81.0910 C.ar  190  HIS190      0.0820
    111  ND1       66.6950   35.5260   81.6340 N.ar  190  HIS190     -0.2267
    112  CD2       66.1070   36.4590   79.7470 C.ar  190  HIS190      0.1154
    113  CE1       67.3400   34.9060   80.6510 C.ar  190  HIS190      0.1986
    114  NE2       67.0280   35.4560   79.4920 N.ar  190  HIS190     -0.2212
    115  N         61.2310   42.8480   82.2310 N.3   192  LEU192     -0.1245
    116  CA        60.6590   43.9130   81.4210 C.3   192  LEU192      0.1561
    117  C         60.0030   44.9600   82.2740 C.2   192  LEU192      0.2260
    118  O         59.2680   44.6560   83.2330 O.2   192  LEU192     -0.2867
    119  CB        59.6220   43.3050   80.5100 C.3   192  LEU192      0.0270
    120  CG        60.1730   42.5760   79.3190 C.3   192  LEU192      0.0019
    121  CD1       59.1450   41.5820   78.8430 C.3   192  LEU192      0.0001
    122  CD2       60.6090   43.5340   78.2340 C.3   192  LEU192      0.0001
    123  N         60.6350   36.8660   81.4240 N.3   203  ILE203     -0.1231
    124  CA        60.7480   35.9010   80.3540 C.3   203  ILE203      0.1692
    125  C         61.7800   34.8670   80.6390 C.2   203  ILE203      0.2592
    126  O         62.4910   34.9270   81.5820 O.2   203  ILE203     -0.2718
    127  CB        61.0470   36.5520   79.0340 C.3   203  ILE203      0.0266
    128  CG1       62.3730   37.2590   79.0480 C.3   203  ILE203      0.0019
    129  CG2       59.9630   37.5110   78.6500 C.3   203  ILE203      0.0020
    130  CD1       62.9280   37.4110   77.6310 C.3   203  ILE203      0.0001
    131  N         61.7960   33.8740   79.7980 N.am  204  ASP204     -0.1974
    132  CA        62.8290   32.8490   79.7100 C.3   204  ASP204      0.1709
    133  C         62.9390   32.0450   80.9650 C.2   204  ASP204      0.2293
    134  O         63.9310   32.1710   81.7110 O.2   204  ASP204     -0.2864
    135  CB        64.1640   33.4580   79.3160 C.3   204  ASP204      0.1436
    136  CG        65.2170   32.4060   78.8800 C.2   204  ASP204      0.3671
    137  OD1       64.8930   31.1760   78.9080 O.co2 204  ASP204     -0.2456
    138  OD2       66.3440   32.8180   78.4040 O.co2 204  ASP204     -0.2456
@<TRIPOS>BOND
     1     1     2    1
     2    22    21    2
     3    21    20    1
     4     2     5    1
     5     2     3    1
     6    17    18    1
     7    17    14    1
     8    19    20    1
     9    12    11    2
    10    20    23    1
    11     5     7    1
    12     5     6    1
    13     8     6    1
    14     9     3   am
    15     9    10    1
    16     3     4    2
    17    11    10    1
    18    11    13   am
    19    34    35    2
    20    34    33    1
    21    14    13    1
    22    14    15    1
    23    26    25    1
    24    26    27    2
    25    32    33    1
    26    24    25    1
    27    25    28    1
    28    33    36    1
    29    15    16    2
    30    72    71   ar
    31    31    29    1
    32    28    30    1
    33    28    29    1
    34    73    71   ar
    35    71    70    1
    36    56    55    2
    37    53    54    1
    38    36    37    1
    39    69    70    2
    40    69    66    1
    41    55    54    1
    42    37    38    1
    43    65    66    1
    44    54    57    1
    45    66    67    1
    46    38    39    1
    47    57    58    1
    48    60    58   ar
    49    60    62   ar
    50    68    67    2
    51    58    59   ar
    52    67    74   am
    53    62    63   ar
    54    39    40    1
    55    59    61   ar
    56    63    61   ar
    57    63    64    1
    58    74    75    1
    59    77    76    2
    60    85    84    2
    61    95    93   ar
    62    95    96   ar
    63    76    75    1
    64    82    83    1
    65    75    78    1
    66    93    91   ar
    67    96    94   ar
    68    84    83    1
    69   130   128    1
    70    78    79    1
    71    78    80    1
    72    91    90    1
    73    91    92   ar
    74    79    81    1
    75   122   120    1
    76    94    92   ar
    77    86    87    1
    78   138   136   ar
    79    50    48   ar
    80    50    51   ar
    81    90    87    1
    82   129   127    1
    83    48    46   ar
    84   104   102   am
    85   121   120    1
    86   136   137   ar
    87   136   135    1
    88    52    51    1
    89   127   128    1
    90   127   124    1
    91   100    99    2
    92    51    49   ar
    93    87    88    1
    94   135   132    1
    95   120   119    1
    96   114   112   ar
    97   114   113   ar
    98   101   102    1
    99   101    98    1
   100   132   131    1
   101   132   133    1
   102   112   110   ar
   103   131   125   am
   104    89    88    2
   105   102   103    2
   106    46    45    1
   107    46    47   ar
   108    45    42    1
   109   124   125    1
   110   124   123    1
   111    99    98    1
   112    99   105   am
   113    49    47   ar
   114   119   116    1
   115    98    97    1
   116   125   126    2
   117   113   111   ar
   118   133   134    2
   119   110   111   ar
   120   110   109    1
   121   106   105    1
   122   106   109    1
   123   106   107    1
   124   116   115    1
   125   116   117    1
   126    42    41    1
   127    42    43    1
   128    43    44    2
   129   107   108    2
   130   117   118    2
