@<TRIPOS>MOLECULE
tmp/6ceyD01.pdb
 151 143 0 0 0
SMALL
GASTEIGER

@<TRIPOS>ATOM
      1  N         70.3180   34.1210   30.5050 N.3   191  ASP191     -0.1239
      2  CA        71.1720   34.7850   31.5010 C.3   191  ASP191      0.1674
      3  C         72.6280   34.3580   31.2810 C.2   191  ASP191      0.2266
      4  O         73.3070   33.9360   32.1960 O.2   191  ASP191     -0.2867
      5  CB        70.6820   34.4180   32.8930 C.3   191  ASP191      0.1410
      6  CG        71.2320   35.3280   33.9720 C.2   191  ASP191      0.3668
      7  OD1       71.9370   36.4050   33.6710 O.co2 191  ASP191     -0.2456
      8  OD2       71.0080   34.9040   35.1360 O.co2 191  ASP191     -0.2456
      9  N         75.8710   34.7650   30.9150 N.3   193  SER193     -0.1217
     10  CA        76.9640   35.5470   31.3080 C.3   193  SER193      0.1889
     11  C         78.0890   34.6200   31.6700 C.2   193  SER193      0.2288
     12  O         77.8800   33.4250   31.8500 O.2   193  SER193     -0.2866
     13  CB        76.5680   36.4070   32.4930 C.3   193  SER193      0.2089
     14  OG        76.0530   35.6410   33.5120 O.3   193  SER193     -0.2183
     15  N         79.8710   34.1210   34.3110 N.3   195  ASN195     -0.1225
     16  CA        79.7870   33.4240   35.5990 C.3   195  ASN195      0.1785
     17  C         78.8530   32.1600   35.5730 C.2   195  ASN195      0.2597
     18  O         78.5860   31.5260   36.6150 O.2   195  ASN195     -0.2718
     19  CB        79.3750   34.3940   36.7230 C.3   195  ASN195      0.1169
     20  CG        77.8850   34.8860   36.6040 C.2   195  ASN195      0.2627
     21  OD1       77.4780   35.3770   35.5650 O.2   195  ASN195     -0.2716
     22  ND2       77.1060   34.7680   37.6700 N.am  195  ASN195     -0.0877
     23  N         78.2950   31.8100   34.4170 N.am  196  HIS196     -0.1975
     24  CA        77.5370   30.5970   34.2990 C.3   196  HIS196      0.1656
     25  C         78.2140   29.6060   33.3830 C.2   196  HIS196      0.2291
     26  O         77.6250   28.5740   33.1010 O.2   196  HIS196     -0.2864
     27  CB        76.1340   30.9030   33.7980 C.3   196  HIS196      0.0771
     28  CG        75.2750   31.6010   34.7920 C.ar  196  HIS196      0.0820
     29  ND1       74.3120   32.5000   34.4210 N.ar  196  HIS196     -0.2267
     30  CD2       75.2450   31.5440   36.1420 C.ar  196  HIS196      0.1154
     31  CE1       73.6760   32.9370   35.4970 C.ar  196  HIS196      0.1986
     32  NE2       74.2350   32.4000   36.5660 N.ar  196  HIS196     -0.2212
     33  N         72.5420   27.2820   35.4270 N.3   210  ASP210     -0.1239
     34  CA        71.5290   28.3100   35.7000 C.3   210  ASP210      0.1674
     35  C         70.7230   28.6680   34.4680 C.2   210  ASP210      0.2266
     36  O         70.8690   29.7460   33.8950 O.2   210  ASP210     -0.2867
     37  CB        72.1870   29.6010   36.2790 C.3   210  ASP210      0.1410
     38  CG        71.1770   30.5510   36.9040 C.2   210  ASP210      0.3668
     39  OD1       69.9640   30.3070   36.8180 O.co2 210  ASP210     -0.2456
     40  OD2       71.6060   31.5800   37.5230 O.co2 210  ASP210     -0.2456
     41  N         66.2050   31.4120   34.1280 N.3   213  ASP213     -0.1239
     42  CA        65.4450   32.4520   33.4220 C.3   213  ASP213      0.1674
     43  C         65.1900   32.0320   31.9750 C.2   213  ASP213      0.2266
     44  O         64.7100   32.8340   31.1790 O.2   213  ASP213     -0.2867
     45  CB        66.2690   33.7640   33.4670 C.3   213  ASP213      0.1410
     46  CG        66.3610   34.4040   34.8950 C.2   213  ASP213      0.3668
     47  OD1       65.4390   34.2070   35.7110 O.co2 213  ASP213     -0.2456
     48  OD2       67.3380   35.1810   35.1720 O.co2 213  ASP213     -0.2456
     49  N         74.9070   39.5410   27.3400 N.3   225  TYR225     -0.1241
     50  CA        76.0540   39.6390   28.2800 C.3   225  TYR225      0.1605
     51  C         77.3500   39.4700   27.5800 C.2   225  TYR225      0.2264
     52  O         78.3130   40.1050   27.9450 O.2   225  TYR225     -0.2867
     53  CB        75.9550   38.6720   29.4810 C.3   225  TYR225      0.0534
     54  CG        74.7560   39.0040   30.2590 C.ar  225  TYR225     -0.0201
     55  CD1       74.6640   40.2240   30.9350 C.ar  225  TYR225     -0.0009
     56  CD2       73.6410   38.1920   30.2090 C.ar  225  TYR225     -0.0009
     57  CE1       73.4680   40.6100   31.5300 C.ar  225  TYR225      0.0417
     58  CE2       72.4260   38.6160   30.7560 C.ar  225  TYR225      0.0417
     59  CZ        72.3710   39.7930   31.4440 C.ar  225  TYR225      0.1957
     60  OH        71.2020   40.1450   32.0540 O.3   225  TYR225     -0.2866
     61  N         78.2640   42.8420   26.6040 N.3   228  GLU228     -0.1231
     62  CA        78.3250   43.8520   27.6760 C.3   228  GLU228      0.1699
     63  C         79.7650   44.2760   27.9430 C.2   228  GLU228      0.2592
     64  O         80.6710   43.4540   28.0020 O.2   228  GLU228     -0.2718
     65  CB        77.6920   43.2950   28.9580 C.3   228  GLU228      0.0402
     66  CG        77.6320   44.2510   30.1410 C.3   228  GLU228      0.1161
     67  CD        76.9280   43.6380   31.3470 C.2   228  GLU228      0.3649
     68  OE1       75.6410   43.7710   31.3260 O.co2 228  GLU228     -0.2457
     69  OE2       77.6130   43.0700   32.2900 O.co2 228  GLU228     -0.2457
     70  N         79.9400   45.5800   28.1040 N.am  229  ASP229     -0.1960
     71  CA        81.1980   46.1590   28.5990 C.3   229  ASP229      0.1840
     72  C         81.0740   46.4870   30.1070 C.2   229  ASP229      0.2623
     73  O         80.4130   47.4620   30.4780 O.2   229  ASP229     -0.2715
     74  CB        81.5410   47.4340   27.7960 C.3   229  ASP229      0.1450
     75  CG        83.0470   47.6630   27.6860 C.2   229  ASP229      0.3671
     76  OD1       83.7300   46.7030   27.1860 O.co2 229  ASP229     -0.2456
     77  OD2       83.5290   48.7770   28.0840 O.co2 229  ASP229     -0.2456
     78  N         81.6520   45.6440   30.9600 N.am  230  SER230     -0.1936
     79  CA        81.5750   45.8290   32.4230 C.3   230  SER230      0.2055
     80  C         82.7040   45.0560   33.1020 C.2   230  SER230      0.2643
     81  O         83.3580   44.2230   32.4620 O.2   230  SER230     -0.2714
     82  CB        80.2090   45.3570   32.9520 C.3   230  SER230      0.2130
     83  OG        80.0830   43.9410   32.8650 O.3   230  SER230     -0.2179
     84  N         82.9160   45.2850   34.3850 N.am  231  GLU231     -0.1963
     85  CA        83.9920   44.5950   35.1150 C.3   231  GLU231      0.1733
     86  C         83.8100   43.0660   35.1540 C.2   231  GLU231      0.2616
     87  O         84.7870   42.3400   35.2240 O.2   231  GLU231     -0.2715
     88  CB        84.0640   45.1070   36.5680 C.3   231  GLU231      0.0429
     89  CG        83.8180   46.6090   36.7440 C.3   231  GLU231      0.1163
     90  CD        84.9680   47.3240   37.4100 C.2   231  GLU231      0.3649
     91  OE1       86.1190   46.9990   37.0390 O.co2 231  GLU231     -0.2457
     92  OE2       84.7330   48.2240   38.2450 O.co2 231  GLU231     -0.2457
     93  N         82.5600   42.6000   35.0900 N.am  232  GLU232     -0.1963
     94  CA        82.2170   41.2190   35.2970 C.3   232  GLU232      0.1733
     95  C         82.2340   40.4130   33.9930 C.2   232  GLU232      0.2616
     96  O         82.2720   39.1770   34.0320 O.2   232  GLU232     -0.2715
     97  CB        80.7800   41.1260   35.8450 C.3   232  GLU232      0.0429
     98  CG        80.4950   41.7650   37.2000 C.3   232  GLU232      0.1163
     99  CD        79.0010   41.4840   37.7060 C.2   232  GLU232      0.3649
    100  OE1       78.3470   40.3900   37.4480 O.co2 232  GLU232     -0.2457
    101  OE2       78.4450   42.3900   38.3650 O.co2 232  GLU232     -0.2457
    102  N         82.0960   41.0810   32.8480 N.am  233  GLU233     -0.1977
    103  CA        82.0920   40.3640   31.5670 C.3   233  GLU233      0.1602
    104  C         83.3720   40.6490   30.8080 C.2   233  GLU233      0.2287
    105  O         84.1130   41.5990   31.1250 O.2   233  GLU233     -0.2864
    106  CB        80.8470   40.7220   30.6940 C.3   233  GLU233      0.0415
    107  CG        79.4840   40.4550   31.3280 C.3   233  GLU233      0.1163
    108  CD        79.2220   38.9980   31.7460 C.2   233  GLU233      0.3649
    109  OE1       79.6500   38.0020   31.0330 O.co2 233  GLU233     -0.2457
    110  OE2       78.5250   38.8850   32.8220 O.co2 233  GLU233     -0.2457
    111  N         70.0490   47.3360   28.4270 N.3   262  GLU262     -0.1196
    112  CA        70.9040   48.1740   29.2740 C.3   262  GLU262      0.1783
    113  C         70.1960   49.4840   29.6110 C.2   262  GLU262      0.2306
    114  O         70.2660   49.9280   30.7240 O.2   262  GLU262     -0.2863
    115  CB        72.2620   48.3700   28.5970 C.2   262  GLU262      0.0071
    116  CG        73.3520   48.9910   29.4710 C.2   262  GLU262      0.0834
    117  CD        74.7000   49.3240   28.7760 C.2   262  GLU262      0.3877
    118  OE1       75.5280   48.3930   28.5110 O.co2 262  GLU262     -0.2406
    119  OE2       74.9880   50.5410   28.5290 O.co2 262  GLU262     -0.2406
    120  N         67.8810   48.8510   32.6170 N.3   265  TYR265     -0.1241
    121  CA        68.4550   48.3830   33.8750 C.3   265  TYR265      0.1605
    122  C         68.0870   49.2150   35.1110 C.2   265  TYR265      0.2264
    123  O         67.6180   48.6600   36.0770 O.2   265  TYR265     -0.2867
    124  CB        69.9650   48.1670   33.7160 C.3   265  TYR265      0.0534
    125  CG        70.6860   47.7670   34.9770 C.ar  265  TYR265     -0.0201
    126  CD1       70.7180   46.4210   35.3950 C.ar  265  TYR265     -0.0009
    127  CD2       71.3520   48.7460   35.7770 C.ar  265  TYR265     -0.0009
    128  CE1       71.3950   46.0550   36.5760 C.ar  265  TYR265      0.0417
    129  CE2       71.9990   48.3960   36.9550 C.ar  265  TYR265      0.0417
    130  CZ        72.0470   47.0530   37.3340 C.ar  265  TYR265      0.1957
    131  OH        72.7540   46.6740   38.4500 O.3   265  TYR265     -0.2866
    132  N         64.4200   48.5990   35.9230 N.3   268  GLU268     -0.1245
    133  CA        64.2770   47.2480   36.4840 C.3   268  GLU268      0.1567
    134  C         64.6580   47.2060   37.9640 C.2   268  GLU268      0.2260
    135  O         64.0030   46.5370   38.7650 O.2   268  GLU268     -0.2867
    136  CB        65.1530   46.2290   35.7090 C.3   268  GLU268      0.0388
    137  CG        64.7210   44.7700   35.9970 C.3   268  GLU268      0.1160
    138  CD        65.6120   43.7110   35.4190 C.2   268  GLU268      0.3649
    139  OE1       66.8410   43.9410   35.3130 O.co2 268  GLU268     -0.2457
    140  OE2       65.0870   42.6100   35.1140 O.co2 268  GLU268     -0.2457
    141  N         73.3160   58.3500   34.1050 N.3   292  ARG292     -0.1245
    142  CA        73.0890   58.1770   32.6800 C.3   292  ARG292      0.1563
    143  C         72.6310   59.4600   31.9680 C.2   292  ARG292      0.2260
    144  O         73.0670   59.6840   30.8800 O.2   292  ARG292     -0.2867
    145  CB        72.1200   57.0280   32.4360 C.3   292  ARG292      0.0307
    146  CG        72.7980   55.6720   32.4770 C.3   292  ARG292      0.0489
    147  CD        71.8090   54.5820   32.8010 C.3   292  ARG292      0.2205
    148  NE        71.9470   53.3520   32.0100 N.pl3 292  ARG292     -0.0865
    149  CZ        72.3800   52.1840   32.4680 C.cat 292  ARG292      0.5346
    150  NH1       72.7830   51.9980   33.7220 N.pl3 292  ARG292      0.1354
    151  NH2       72.4640   51.1690   31.6380 N.pl3 292  ARG292      0.1354
@<TRIPOS>BOND
     1    61    62    1
     2    76    75   ar
     3    49    50    1
     4    51    52    2
     5    51    50    1
     6    62    63    1
     7    62    65    1
     8    75    74    1
     9    75    77   ar
    10    74    71    1
    11    63    64    2
    12    63    70   am
    13    70    71    1
    14    50    53    1
    15   111   112    1
    16   118   117   ar
    17   119   117   ar
    18   115   112    1
    19   115   116    2
    20    71    72    1
    21   117   116    1
    22    65    66    1
    23   112   113    1
    24    53    54    1
    25   113   114    2
    26    72    73    2
    27    72    78   am
    28    66    67    1
    29    56    54   ar
    30    56    58   ar
    31    54    55   ar
    32     1     2    1
    33   106   107    1
    34   106   103    1
    35    58    59   ar
    36   104   105    2
    37   104   103    1
    38   144   143    2
    39     9    10    1
    40    55    57   ar
    41    78    79    1
    42   109   108   ar
    43    44    43    2
    44     3     2    1
    45     3     4    2
    46    10    11    1
    47    10    13    1
    48    68    67   ar
    49   107   108    1
    50    67    69   ar
    51    59    57   ar
    52    59    60    1
    53     2     5    1
    54   103   102    1
    55   151   149    1
    56    11    12    2
    57   108   110   ar
    58   143   142    1
    59    43    42    1
    60   148   149    2
    61   148   147    1
    62    79    82    1
    63    79    80    1
    64   145   146    1
    65   145   142    1
    66    81    80    2
    67   149   150    1
    68   146   147    1
    69    13    14    1
    70   120   121    1
    71   142   141    1
    72   102    95   am
    73    83    82    1
    74     5     6    1
    75    26    25    2
    76    80    84   am
    77    25    24    1
    78    42    45    1
    79    42    41    1
    80    45    46    1
    81     7     6   ar
    82   124   121    1
    83   124   125    1
    84    27    24    1
    85    27    28    1
    86   121   122    1
    87    36    35    2
    88     6     8   ar
    89    95    96    2
    90    95    94    1
    91    24    23    1
    92    15    16    1
    93    84    85    1
    94    23    17   am
    95    29    28   ar
    96    29    31   ar
    97    35    34    1
    98    28    30   ar
    99    46    48   ar
   100    46    47   ar
   101   125   126   ar
   102   125   127   ar
   103    93    86   am
   104    93    94    1
   105   122   123    2
   106   140   138   ar
   107    85    86    1
   108    85    88    1
   109    86    87    2
   110    94    97    1
   111   139   138   ar
   112   126   128   ar
   113   138   137    1
   114    33    34    1
   115    31    32   ar
   116    21    20    2
   117    17    16    1
   118    17    18    2
   119    16    19    1
   120    34    37    1
   121   136   137    1
   122   136   133    1
   123   127   129   ar
   124    97    98    1
   125   132   133    1
   126    30    32   ar
   127    37    38    1
   128   133   134    1
   129    88    89    1
   130   128   130   ar
   131    20    19    1
   132    20    22   am
   133    89    90    1
   134    39    38   ar
   135    38    40   ar
   136   129   130   ar
   137    91    90   ar
   138    98    99    1
   139   130   131    1
   140    90    92   ar
   141   100    99   ar
   142    99   101   ar
   143   134   135    2
