@<TRIPOS>MOLECULE
tmp/6cf5C00.pdb
 110 105 0 0 0
SMALL
GASTEIGER

@<TRIPOS>ATOM
      1  N        -11.9320  -19.8470    5.1620 N.3    93  TYR93      -0.1241
      2  CA       -10.9500  -18.8720    5.6210 C.3    93  TYR93       0.1605
      3  C         -9.8430  -19.6250    6.3540 C.2    93  TYR93       0.2264
      4  O        -10.1340  -20.3420    7.3170 O.2    93  TYR93      -0.2867
      5  CB       -11.5880  -17.8200    6.5220 C.3    93  TYR93       0.0534
      6  CG       -10.7500  -16.5600    6.6510 C.ar   93  TYR93      -0.0201
      7  CD1       -9.5510  -16.5670    7.3580 C.ar   93  TYR93      -0.0009
      8  CD2      -11.1480  -15.3700    6.0530 C.ar   93  TYR93      -0.0009
      9  CE1       -8.7790  -15.4250    7.4810 C.ar   93  TYR93       0.0417
     10  CE2      -10.3810  -14.2210    6.1670 C.ar   93  TYR93       0.0417
     11  CZ        -9.1960  -14.2580    6.8820 C.ar   93  TYR93       0.1957
     12  OH        -8.4270  -13.1250    7.0050 O.3    93  TYR93      -0.2866
     13  N        -21.0740   -7.6440    8.2940 N.3   131  LEU131     -0.1231
     14  CA       -20.0020   -7.2560    7.3890 C.3   131  LEU131      0.1693
     15  C        -18.8410   -8.2370    7.3820 C.2   131  LEU131      0.2593
     16  O        -17.9230   -8.0800    6.5680 O.2   131  LEU131     -0.2718
     17  CB       -19.4730   -5.8600    7.7610 C.3   131  LEU131      0.0284
     18  CG       -20.4640   -4.6970    7.6720 C.3   131  LEU131      0.0019
     19  CD1      -19.7950   -3.3890    8.0740 C.3   131  LEU131      0.0001
     20  CD2      -21.0410   -4.5950    6.2690 C.3   131  LEU131      0.0001
     21  N        -18.8520   -9.2350    8.2600 N.am  132  GLY132     -0.1942
     22  CA       -17.7490  -10.1670    8.3650 C.3   132  GLY132      0.2014
     23  C        -17.8020  -11.2580    7.3210 C.2   132  GLY132      0.2639
     24  O        -18.0490  -12.4240    7.6410 O.2   132  GLY132     -0.2714
     25  N        -17.5710  -10.8940    6.0650 N.am  133  VAL133     -0.1963
     26  CA       -17.5830  -11.8580    4.9780 C.3   133  VAL133      0.1727
     27  C        -16.2540  -11.7800    4.2480 C.2   133  VAL133      0.2617
     28  O        -15.5230  -10.7910    4.3260 O.2   133  VAL133     -0.2715
     29  CB       -18.7610  -11.6380    4.0060 C.3   133  VAL133      0.0290
     30  CG1      -20.0810  -11.8280    4.7340 C.3   133  VAL133      0.0023
     31  CG2      -18.6830  -10.2580    3.3750 C.3   133  VAL133      0.0023
     32  N        -15.9380  -12.8570    3.5420 N.am  134  SER134     -0.1936
     33  CA       -14.6800  -12.9800    2.8360 C.3   134  SER134      0.2055
     34  C        -14.9060  -13.7050    1.5190 C.2   134  SER134      0.2643
     35  O        -15.8200  -14.5340    1.3900 O.2   134  SER134     -0.2714
     36  CB       -13.6430  -13.7330    3.6860 C.3   134  SER134      0.2130
     37  OG       -12.4640  -13.9810    2.9460 O.3   134  SER134     -0.2179
     38  N        -14.0640  -13.3560    0.5420 N.am  135  SER135     -0.1949
     39  CA       -14.0220  -14.0700   -0.7240 C.3   135  SER135      0.1924
     40  C        -13.4200  -15.4580   -0.5690 C.2   135  SER135      0.2314
     41  O        -13.5810  -16.2940   -1.4640 O.2   135  SER135     -0.2863
     42  CB       -13.2450  -13.2560   -1.7630 C.3   135  SER135      0.2116
     43  OG       -11.8710  -13.1490   -1.4270 O.3   135  SER135     -0.2180
     44  N        -19.1440  -13.1990   -1.4490 N.3   143  SER143     -0.1217
     45  CA       -18.3580  -13.3730   -0.2360 C.3   143  SER143      0.1889
     46  C        -19.2590  -13.7200    0.9410 C.2   143  SER143      0.2288
     47  O        -20.3290  -13.1310    1.1240 O.2   143  SER143     -0.2866
     48  CB       -17.5670  -12.0990    0.0610 C.3   143  SER143      0.2089
     49  OG       -16.5600  -11.8950   -0.9130 O.3   143  SER143     -0.2183
     50  N        -18.2690  -13.0340   12.4270 N.3   151  TRP151     -0.1241
     51  CA       -17.0780  -12.1910   12.3490 C.3   151  TRP151      0.1605
     52  C        -17.5110  -10.7510   12.6110 C.2   151  TRP151      0.2264
     53  O        -17.9310  -10.0310   11.7060 O.2   151  TRP151     -0.2867
     54  CB       -16.4130  -12.3520   10.9870 C.3   151  TRP151      0.0550
     55  CG       -15.0920  -11.6560   10.8340 C.ar  151  TRP151      0.0003
     56  CD1      -14.4720  -10.8530   11.7460 C.ar  151  TRP151      0.0946
     57  CD2      -14.2350  -11.6960    9.6870 C.ar  151  TRP151      0.0152
     58  NE1      -13.2800  -10.3960   11.2400 N.ar  151  TRP151     -0.2442
     59  CE2      -13.1110  -10.9010    9.9780 C.ar  151  TRP151      0.0810
     60  CE3      -14.3070  -12.3350    8.4450 C.ar  151  TRP151      0.0012
     61  CZ2      -12.0680  -10.7240    9.0720 C.ar  151  TRP151      0.0191
     62  CZ3      -13.2720  -12.1590    7.5470 C.ar  151  TRP151      0.0001
     63  CH2      -12.1670  -11.3600    7.8640 C.ar  151  TRP151      0.0015
     64  N        -17.3770   -6.7640   13.4430 N.3   153  ILE153     -0.1245
     65  CA       -16.5910   -5.6490   12.9320 C.3   153  ILE153      0.1561
     66  C        -16.9810   -4.3960   13.7050 C.2   153  ILE153      0.2260
     67  O        -18.0940   -4.2930   14.2320 O.2   153  ILE153     -0.2867
     68  CB       -16.8130   -5.4700   11.4070 C.3   153  ILE153      0.0252
     69  CG1      -16.4030   -6.7410   10.6610 C.3   153  ILE153      0.0019
     70  CG2      -16.0280   -4.2910   10.8480 C.3   153  ILE153      0.0019
     71  CD1      -14.9380   -7.0710   10.7990 C.3   153  ILE153      0.0001
     72  N         -4.7710   -3.2130    8.9770 N.3   188  GLU188     -0.1245
     73  CA        -5.9870   -4.0170    8.9460 C.3   188  GLU188      0.1567
     74  C         -6.6130   -4.1300   10.3320 C.2   188  GLU188      0.2260
     75  O         -7.8430   -4.1060   10.4650 O.2   188  GLU188     -0.2867
     76  CB        -5.6850   -5.4060    8.3860 C.3   188  GLU188      0.0388
     77  CG        -6.9000   -6.3150    8.3280 C.3   188  GLU188      0.1160
     78  CD        -6.5700   -7.6980    7.8110 C.2   188  GLU188      0.3649
     79  OE1       -5.3870   -8.0930    7.8780 O.co2 188  GLU188     -0.2457
     80  OE2       -7.4960   -8.4030    7.3560 O.co2 188  GLU188     -0.2457
     81  N         -8.4590   -1.0400   10.7480 N.3   191  LYS191     -0.1231
     82  CA        -9.5610   -1.0070    9.7910 C.3   191  LYS191      0.1693
     83  C        -10.7520   -1.8020   10.3000 C.2   191  LYS191      0.2591
     84  O        -11.9020   -1.3620   10.1860 O.2   191  LYS191     -0.2718
     85  CB        -9.0940   -1.6090    8.4610 C.3   191  LYS191      0.0285
     86  CG       -10.1330   -1.6940    7.3450 C.3   191  LYS191      0.0035
     87  CD       -10.4090   -0.3040    6.7730 C.3   191  LYS191      0.0206
     88  CE       -11.0330   -0.3310    5.3650 C.3   191  LYS191      0.1093
     89  NZ       -12.5390   -0.3880    5.3860 N.3   191  LYS191     -0.1314
     90  N        -10.4910   -2.9750   10.8740 N.am  192  LEU192     -0.1980
     91  CA       -11.5570   -3.8830   11.2760 C.3   192  LEU192      0.1596
     92  C        -12.0550   -3.6420   12.6970 C.2   192  LEU192      0.2287
     93  O        -13.2660   -3.6810   12.9380 O.2   192  LEU192     -0.2864
     94  CB       -11.0810   -5.3340   11.1460 C.3   192  LEU192      0.0297
     95  CG       -10.6970   -5.8320    9.7500 C.3   192  LEU192      0.0022
     96  CD1      -10.3910   -7.3240    9.7890 C.3   192  LEU192      0.0001
     97  CD2      -11.7960   -5.5310    8.7470 C.3   192  LEU192      0.0001
     98  N         -6.5060  -16.9510   -0.9030 N.3   223  GLY223     -0.1210
     99  CA        -6.4310  -15.5180   -1.0910 C.3   223  GLY223      0.1956
    100  C         -6.2430  -14.6980    0.1660 C.2   223  GLY223      0.2611
    101  O         -6.2480  -13.4640    0.0800 O.2   223  GLY223     -0.2717
    102  N         -6.0590  -15.3280    1.3270 N.am  224  GLN224     -0.1979
    103  CA        -6.0200  -14.6130    2.5960 C.3   224  GLN224      0.1601
    104  C         -4.6760  -14.8090    3.2790 C.2   224  GLN224      0.2287
    105  O         -4.1910  -15.9400    3.3970 O.2   224  GLN224     -0.2864
    106  CB        -7.1330  -15.0890    3.5310 C.3   224  GLN224      0.0394
    107  CG        -8.5060  -15.0470    2.9080 C.3   224  GLN224      0.0908
    108  CD        -8.9090  -13.6570    2.4850 C.2   224  GLN224      0.2608
    109  OE1       -8.6540  -12.6800    3.1870 O.2   224  GLN224     -0.2717
    110  NE2       -9.5310  -13.5590    1.3170 N.am  224  GLN224     -0.0878
@<TRIPOS>BOND
     1    42    43    1
     2    42    39    1
     3    41    40    2
     4    44    45    1
     5    99    98    1
     6    99   100    1
     7    49    48    1
     8    39    40    1
     9    39    38    1
    10    45    48    1
    11    45    46    1
    12   101   100    2
    13   100   102   am
    14    38    34   am
    15    46    47    2
    16   110   108   am
    17   102   103    1
    18    35    34    2
    19    34    33    1
    20   108   107    1
    21   108   109    2
    22   103   104    1
    23   103   106    1
    24    33    32    1
    25    33    36    1
    26   107   106    1
    27    37    36    1
    28   104   105    2
    29    31    29    1
    30    32    27   am
    31    29    30    1
    32    29    26    1
    33    27    28    2
    34    27    26    1
    35    26    25    1
    36     1     2    1
    37    88    89    1
    38    88    87    1
    39     2     3    1
    40     2     5    1
    41     8    10   ar
    42     8     6   ar
    43    25    23   am
    44    10    11   ar
    45    20    18    1
    46     3     4    2
    47     5     6    1
    48    16    15    2
    49     6     7   ar
    50    87    86    1
    51    11    12    1
    52    11     9   ar
    53    23    24    2
    54    23    22    1
    55    86    85    1
    56    80    78   ar
    57     7     9   ar
    58    15    14    1
    59    15    21   am
    60    14    17    1
    61    14    13    1
    62    62    63   ar
    63    62    60   ar
    64    18    17    1
    65    18    19    1
    66    78    79   ar
    67    78    77    1
    68    63    61   ar
    69    21    22    1
    70    77    76    1
    71    76    73    1
    72    60    57   ar
    73    85    82    1
    74    97    95    1
    75    73    72    1
    76    73    74    1
    77    61    59   ar
    78    57    59   ar
    79    57    55   ar
    80    95    96    1
    81    95    94    1
    82    82    83    1
    83    82    81    1
    84    59    58   ar
    85    84    83    2
    86    83    90   am
    87    74    75    2
    88    69    71    1
    89    69    68    1
    90    55    54    1
    91    55    56   ar
    92    70    68    1
    93    90    91    1
    94    54    51    1
    95    94    91    1
    96    58    56   ar
    97    91    92    1
    98    68    65    1
    99    53    52    2
   100    51    50    1
   101    51    52    1
   102    92    93    2
   103    65    64    1
   104    65    66    1
   105    66    67    2
