@<TRIPOS>MOLECULE
tmp/6cf7B00.pdb
 103 99 0 0 0
SMALL
GASTEIGER

@<TRIPOS>ATOM
      1  N         18.5690   55.2820   39.2970 N.3    17  MET17      -0.1230
      2  CA        19.2240   55.3740   37.9960 C.3    17  MET17       0.1702
      3  C         18.2940   54.7590   36.9560 C.2    17  MET17       0.2592
      4  O         18.0540   53.5480   36.9700 O.2    17  MET17      -0.2718
      5  CB        20.5790   54.6720   38.0180 C.3    17  MET17       0.0401
      6  CG        21.3320   54.7520   36.7050 C.3    17  MET17       0.0596
      7  SD        22.9850   54.0470   36.8160 S.3    17  MET17      -0.1393
      8  CE        22.6130   52.3740   37.3320 C.3    17  MET17       0.0692
      9  N         17.7730   55.5940   36.0560 N.am   18  VAL18      -0.1966
     10  CA        16.7120   55.2030   35.1400 C.3    18  VAL18       0.1727
     11  C         17.1180   55.3530   33.6790 C.2    18  VAL18       0.2616
     12  O         16.2740   55.2270   32.7940 O.2    18  VAL18      -0.2715
     13  CB        15.4210   55.9970   35.4200 C.3    18  VAL18       0.0290
     14  CG1       14.9720   55.8030   36.8580 C.3    18  VAL18       0.0023
     15  CG2       15.6350   57.4720   35.1110 C.3    18  VAL18       0.0023
     16  N         18.3930   55.6240   33.4020 N.am   19  ASP19      -0.1957
     17  CA        18.8420   55.8530   32.0330 C.3    19  ASP19       0.1840
     18  C         19.8640   54.8280   31.5580 C.2    19  ASP19       0.2623
     19  O         20.4560   55.0150   30.4880 O.2    19  ASP19      -0.2715
     20  CB        19.4190   57.2650   31.8920 C.3    19  ASP19       0.1450
     21  CG        20.5340   57.5410   32.8780 C.2    19  ASP19       0.3671
     22  OD1       20.5570   56.8850   33.9380 O.co2  19  ASP19      -0.2456
     23  OD2       21.3850   58.4130   32.5960 O.co2  19  ASP19      -0.2456
     24  N         20.0860   53.7560   32.3070 N.am   20  GLY20      -0.1940
     25  CA        21.0560   52.7630   31.8820 C.3    20  GLY20       0.2014
     26  C         21.1300   51.6190   32.8660 C.2    20  GLY20       0.2638
     27  O         20.4310   51.5920   33.8840 O.2    20  GLY20      -0.2714
     28  N         22.0040   50.6670   32.5430 N.am   21  TRP21      -0.1973
     29  CA        22.1800   49.4590   33.3430 C.3    21  TRP21       0.1640
     30  C         23.2900   49.6290   34.3750 C.2    21  TRP21       0.2290
     31  O         23.0630   49.4610   35.5760 O.2    21  TRP21      -0.2864
     32  CB        22.4810   48.2660   32.4300 C.3    21  TRP21       0.0576
     33  CG        21.2710   47.6440   31.8100 C.ar   21  TRP21       0.0006
     34  CD1       20.0150   47.5870   32.3390 C.ar   21  TRP21       0.0946
     35  CD2       21.2010   46.9870   30.5400 C.ar   21  TRP21       0.0152
     36  NE1       19.1700   46.9310   31.4790 N.ar   21  TRP21      -0.2442
     37  CE2       19.8730   46.5550   30.3660 C.ar   21  TRP21       0.0810
     38  CE3       22.1340   46.7230   29.5320 C.ar   21  TRP21       0.0012
     39  CZ2       19.4520   45.8730   29.2260 C.ar   21  TRP21       0.0191
     40  CZ3       21.7160   46.0460   28.4020 C.ar   21  TRP21       0.0001
     41  CH2       20.3860   45.6290   28.2570 C.ar   21  TRP21       0.0015
     42  N         27.1060   50.3260   29.0830 N.3    41  THR41      -0.1203
     43  CA        25.7020   50.0180   28.8350 C.3    41  THR41       0.1994
     44  C         25.4420   49.7860   27.3520 C.2    41  THR41       0.2617
     45  O         24.7580   48.8250   26.9780 O.2    41  THR41      -0.2717
     46  CB        24.8180   51.1460   29.3680 C.3    41  THR41       0.1784
     47  OG1       24.8570   51.1460   30.8000 O.3    41  THR41      -0.2211
     48  CG2       23.3810   50.9750   28.9070 C.3    41  THR41       0.0376
     49  N         26.0010   50.6390   26.4900 N.am   42  GLN42      -0.1979
     50  CA        25.7840   50.4730   25.0570 C.3    42  GLN42       0.1601
     51  C         26.4160   49.1860   24.5400 C.2    42  GLN42       0.2287
     52  O         25.8460   48.5170   23.6710 O.2    42  GLN42      -0.2864
     53  CB        26.3280   51.6790   24.2960 C.3    42  GLN42       0.0394
     54  CG        25.9740   51.6560   22.8230 C.3    42  GLN42       0.0908
     55  CD        24.4790   51.5720   22.5980 C.2    42  GLN42       0.2608
     56  OE1       23.6980   52.2100   23.3050 O.2    42  GLN42      -0.2717
     57  NE2       24.0700   50.7760   21.6180 N.am   42  GLN42      -0.0878
     58  N         24.0720   46.4500   25.4330 N.3    45  ILE45      -0.1245
     59  CA        22.9010   46.4840   24.5620 C.3    45  ILE45       0.1561
     60  C         23.2250   45.8770   23.2030 C.2    45  ILE45       0.2260
     61  O         22.4260   45.1190   22.6410 O.2    45  ILE45      -0.2867
     62  CB        22.3770   47.9260   24.4260 C.3    45  ILE45       0.0252
     63  CG1       21.8720   48.4430   25.7730 C.3    45  ILE45       0.0019
     64  CG2       21.2800   47.9990   23.3810 C.3    45  ILE45       0.0019
     65  CD1       21.4590   49.8930   25.7440 C.3    45  ILE45       0.0001
     66  N         23.7310   41.9070   23.6580 N.3    48  ILE48      -0.1231
     67  CA        22.4880   41.1890   23.9220 C.3    48  ILE48       0.1692
     68  C         21.5480   41.2800   22.7240 C.2    48  ILE48       0.2592
     69  O         20.8430   40.3160   22.3940 O.2    48  ILE48      -0.2718
     70  CB        21.8410   41.7230   25.2110 C.3    48  ILE48       0.0266
     71  CG1       22.7380   41.4160   26.4070 C.3    48  ILE48       0.0019
     72  CG2       20.4630   41.1260   25.4140 C.3    48  ILE48       0.0020
     73  CD1       22.2650   42.0440   27.6860 C.3    48  ILE48       0.0001
     74  N         21.5280   42.4320   22.0490 N.am   49  THR49      -0.1953
     75  CA        20.7500   42.5590   20.8210 C.3    49  THR49       0.1897
     76  C         21.2090   41.5410   19.7860 C.2    49  THR49       0.2313
     77  O         20.3880   40.8770   19.1400 O.2    49  THR49      -0.2863
     78  CB        20.8700   43.9810   20.2660 C.3    49  THR49       0.1794
     79  OG1       20.2440   44.9040   21.1650 O.3    49  THR49      -0.2208
     80  CG2       20.2010   44.0780   18.8990 C.3    49  THR49       0.0378
     81  N         19.9940   37.8690   21.0000 N.3    52  VAL52      -0.1231
     82  CA        18.5950   37.5930   20.6780 C.3    52  VAL52       0.1692
     83  C         18.4060   37.4920   19.1700 C.2    52  VAL52       0.2592
     84  O         17.6830   36.6160   18.6750 O.2    52  VAL52      -0.2718
     85  CB        17.6800   38.6710   21.2890 C.3    52  VAL52       0.0266
     86  CG1       16.2240   38.3950   20.9360 C.3    52  VAL52       0.0020
     87  CG2       17.8670   38.7330   22.7940 C.3    52  VAL52       0.0020
     88  N         19.0570   38.3840   18.4170 N.am   53  ASN53      -0.1974
     89  CA        18.9760   38.3190   16.9620 C.3    53  ASN53       0.1688
     90  C         19.4910   36.9860   16.4410 C.2    53  ASN53       0.2292
     91  O         18.8900   36.3950   15.5410 O.2    53  ASN53      -0.2864
     92  CB        19.7560   39.4730   16.3330 C.3    53  ASN53       0.1181
     93  CG        18.9530   40.7530   16.2700 C.2    53  ASN53       0.2629
     94  OD1       17.7310   40.7420   16.4170 O.2    53  ASN53      -0.2716
     95  ND2       19.6350   41.8650   16.0340 N.am   53  ASN53      -0.0877
     96  N         16.8730   34.2700   17.0860 N.3    56  ILE56      -0.1245
     97  CA        15.7570   34.3290   16.1460 C.3    56  ILE56       0.1561
     98  C         16.1990   33.8980   14.7500 C.2    56  ILE56       0.2260
     99  O         15.4540   33.2250   14.0270 O.2    56  ILE56      -0.2867
    100  CB        15.1440   35.7420   16.1440 C.3    56  ILE56       0.0252
    101  CG1       14.5870   36.0730   17.5300 C.3    56  ILE56       0.0019
    102  CG2       14.0620   35.8610   15.0820 C.3    56  ILE56       0.0019
    103  CD1       13.9950   37.4520   17.6380 C.3    56  ILE56       0.0001
@<TRIPOS>BOND
     1    99    98    2
     2    98    97    1
     3   102   100    1
     4    91    90    2
     5    95    93   am
     6   100    97    1
     7   100   101    1
     8    97    96    1
     9    93    92    1
    10    93    94    2
    11    92    89    1
    12    90    89    1
    13    89    88    1
    14   101   103    1
    15    88    83   am
    16    84    83    2
    17    80    78    1
    18    77    76    2
    19    83    82    1
    20    76    75    1
    21    78    75    1
    22    78    79    1
    23    82    81    1
    24    82    85    1
    25    75    74    1
    26    86    85    1
    27    85    87    1
    28    57    55   am
    29    74    68   am
    30    69    68    2
    31    55    54    1
    32    55    56    2
    33    61    60    2
    34    68    67    1
    35    54    53    1
    36    60    59    1
    37    64    62    1
    38    66    67    1
    39    52    51    2
    40    67    70    1
    41    53    50    1
    42    62    59    1
    43    62    63    1
    44    51    50    1
    45    59    58    1
    46    50    49    1
    47    70    72    1
    48    70    71    1
    49    65    63    1
    50    71    73    1
    51    49    44   am
    52    45    44    2
    53    44    43    1
    54    41    40   ar
    55    41    39   ar
    56    40    38   ar
    57    43    42    1
    58    43    46    1
    59    48    46    1
    60    39    37   ar
    61    46    47    1
    62    38    35   ar
    63    37    35   ar
    64    37    36   ar
    65    19    18    2
    66    35    33   ar
    67    36    34   ar
    68    18    17    1
    69    18    24   am
    70    33    34   ar
    71    33    32    1
    72    25    24    1
    73    25    26    1
    74    20    17    1
    75    20    21    1
    76    17    16    1
    77    32    29    1
    78    28    26   am
    79    28    29    1
    80    23    21   ar
    81    12    11    2
    82    26    27    2
    83    21    22   ar
    84    29    30    1
    85    16    11   am
    86    11    10    1
    87    30    31    2
    88    15    13    1
    89    10    13    1
    90    10     9    1
    91    13    14    1
    92     9     3   am
    93     6     7    1
    94     6     5    1
    95     7     8    1
    96     3     4    2
    97     3     2    1
    98     2     5    1
    99     2     1    1
