@<TRIPOS>MOLECULE
tmp/6cfcA00.pdb
 163 159 0 0 0
SMALL
GASTEIGER

@<TRIPOS>ATOM
      1  N        -32.9490   33.3400    8.3700 N.3    13  LEU13      -0.1245
      2  CA       -34.1720   32.9530    7.6710 C.3    13  LEU13       0.1561
      3  C        -35.2180   32.3670    8.6210 C.2    13  LEU13       0.2260
      4  O        -36.4050   32.5220    8.3790 O.2    13  LEU13      -0.2867
      5  CB       -33.8930   32.0020    6.5160 C.3    13  LEU13       0.0270
      6  CG       -33.3210   32.7080    5.2740 C.3    13  LEU13       0.0019
      7  CD1      -32.8120   31.6750    4.2590 C.3    13  LEU13       0.0001
      8  CD2      -34.3400   33.6510    4.6380 C.3    13  LEU13       0.0001
      9  N        -32.5170   19.1150   -1.6080 N.3   364  GLU364     -0.1245
     10  CA       -33.3260   20.1440   -0.9740 C.3   364  GLU364      0.1567
     11  C        -32.7040   20.7730    0.2440 C.2   364  GLU364      0.2260
     12  O        -32.6910   21.9840    0.3690 O.2   364  GLU364     -0.2867
     13  CB       -34.6810   19.5510   -0.5590 C.3   364  GLU364      0.0388
     14  CG       -35.6040   19.2400   -1.7230 C.3   364  GLU364      0.1160
     15  CD       -36.0590   20.4610   -2.4920 C.2   364  GLU364      0.3649
     16  OE1      -35.7570   21.6160   -2.0970 O.co2 364  GLU364     -0.2457
     17  OE2      -36.7340   20.2380   -3.5200 O.co2 364  GLU364     -0.2457
     18  N        -35.8220   27.7230    3.3010 N.3   373  SER373     -0.1202
     19  CA       -35.3780   28.4330    2.1110 C.3   373  SER373      0.2020
     20  C        -35.7500   29.9010    2.1650 C.2   373  SER373      0.2619
     21  O        -36.5300   30.3420    3.0160 O.2   373  SER373     -0.2717
     22  CB       -36.0150   27.8160    0.8590 C.3   373  SER373      0.2103
     23  OG       -37.3210   28.3390    0.6250 O.3   373  SER373     -0.2182
     24  N        -35.2540   30.6420    1.1830 N.am  374  VAL374     -0.1965
     25  CA       -35.6190   32.0490    1.0120 C.3   374  VAL374      0.1727
     26  C        -37.0940   32.3260    0.7280 C.2   374  VAL374      0.2616
     27  O        -37.5550   33.4340    0.9800 O.2   374  VAL374     -0.2715
     28  CB       -34.7730   32.7500   -0.0780 C.3   374  VAL374      0.0290
     29  CG1      -33.2940   32.6660    0.2760 C.3   374  VAL374      0.0023
     30  CG2      -35.0580   32.1850   -1.4690 C.3   374  VAL374      0.0023
     31  N        -37.8330   31.3390    0.2320 N.am  375  SER375     -0.1950
     32  CA       -39.2870   31.4550    0.0810 C.3   375  SER375      0.1924
     33  C        -40.0410   30.7320    1.2120 C.2   375  SER375      0.2314
     34  O        -41.2340   30.5150    1.1150 O.2   375  SER375     -0.2863
     35  CB       -39.7000   30.8830   -1.2810 C.3   375  SER375      0.2116
     36  OG       -39.1320   29.6120   -1.4780 O.3   375  SER375     -0.2180
     37  N        -39.8060   27.5410    2.2340 N.3   377  ALA377     -0.1245
     38  CA       -40.0160   26.1020    2.1260 C.3   377  ALA377      0.1562
     39  C        -39.3400   25.4700    3.3400 C.2   377  ALA377      0.2260
     40  O        -38.2860   25.9530    3.7840 O.2   377  ALA377     -0.2867
     41  CB       -39.4380   25.5460    0.8380 C.3   377  ALA377      0.0290
     42  N        -38.3860   20.2330    2.1020 N.3   382  GLN382     -0.1231
     43  CA       -38.6250   21.5890    1.5770 C.3   382  GLN382      0.1698
     44  C        -40.0180   21.7720    0.9510 C.2   382  GLN382      0.2592
     45  O        -40.1650   22.1800   -0.2000 O.2   382  GLN382     -0.2718
     46  CB       -37.4980   22.0030    0.6180 C.3   382  GLN382      0.0381
     47  CG       -36.1870   22.2490    1.3340 C.3   382  GLN382      0.0905
     48  CD       -36.2070   23.5460    2.1150 C.2   382  GLN382      0.2608
     49  OE1      -36.0490   24.6200    1.5350 O.2   382  GLN382     -0.2717
     50  NE2      -36.4070   23.4600    3.4270 N.am  382  GLN382     -0.0878
     51  N        -41.0330   21.5050    1.7520 N.am  383  PHE383     -0.1962
     52  CA       -42.4100   21.8340    1.3740 C.3   383  PHE383      0.1771
     53  C        -42.7100   23.3010    1.5750 C.2   383  PHE383      0.2619
     54  O        -42.4080   23.8730    2.6430 O.2   383  PHE383     -0.2715
     55  CB       -43.4310   20.9980    2.1720 C.3   383  PHE383      0.0574
     56  CG       -43.6710   19.6460    1.5820 C.ar  383  PHE383     -0.0200
     57  CD1      -42.7480   18.6290    1.7600 C.ar  383  PHE383     -0.0042
     58  CD2      -44.8020   19.3980    0.8160 C.ar  383  PHE383     -0.0042
     59  CE1      -42.9370   17.3850    1.1880 C.ar  383  PHE383     -0.0003
     60  CE2      -45.0040   18.1520    0.2570 C.ar  383  PHE383     -0.0003
     61  CZ       -44.0720   17.1440    0.4460 C.ar  383  PHE383     -0.0000
     62  N        -43.3320   23.8960    0.5550 N.am  384  MET384     -0.1977
     63  CA       -43.9330   25.2150    0.6980 C.3   384  MET384      0.1605
     64  C        -45.1080   25.0910    1.6870 C.2   384  MET384      0.2287
     65  O        -45.8340   24.0850    1.6650 O.2   384  MET384     -0.2864
     66  CB       -44.4160   25.7480   -0.6530 C.3   384  MET384      0.0413
     67  CG       -43.2940   26.2090   -1.5700 C.3   384  MET384      0.0598
     68  SD       -42.3920   27.6600   -0.9660 S.3   384  MET384     -0.1393
     69  CE       -43.7250   28.8570   -1.0040 C.3   384  MET384      0.0692
     70  N        -48.0640   26.3050    1.7860 N.3   386  PHE386     -0.1227
     71  CA       -49.3770   26.0630    1.1840 C.3   386  PHE386      0.1736
     72  C        -49.5900   24.5770    0.8560 C.2   386  PHE386      0.2595
     73  O        -50.6830   24.0550    1.0330 O.2   386  PHE386     -0.2718
     74  CB       -49.6240   26.9670   -0.0340 C.3   386  PHE386      0.0547
     75  CG       -49.1650   26.3820   -1.3320 C.ar  386  PHE386     -0.0202
     76  CD1      -50.0020   25.5450   -2.0610 C.ar  386  PHE386     -0.0042
     77  CD2      -47.9020   26.6770   -1.8350 C.ar  386  PHE386     -0.0042
     78  CE1      -49.5840   25.0000   -3.2690 C.ar  386  PHE386     -0.0003
     79  CE2      -47.4730   26.1290   -3.0370 C.ar  386  PHE386     -0.0003
     80  CZ       -48.3180   25.2910   -3.7530 C.ar  386  PHE386     -0.0000
     81  N        -48.5380   23.8910    0.4000 N.am  387  LEU387     -0.1980
     82  CA       -48.6450   22.4780    0.0500 C.3   387  LEU387      0.1596
     83  C        -48.7050   21.5910    1.2880 C.2   387  LEU387      0.2287
     84  O        -49.4480   20.6120    1.3290 O.2   387  LEU387     -0.2864
     85  CB       -47.4770   22.0620   -0.8570 C.3   387  LEU387      0.0297
     86  CG       -47.5310   20.6400   -1.4140 C.3   387  LEU387      0.0022
     87  CD1      -48.8030   20.3850   -2.2400 C.3   387  LEU387      0.0001
     88  CD2      -46.2760   20.3760   -2.2450 C.3   387  LEU387      0.0001
     89  N        -46.5760   13.1030   -1.8570 N.3   419  HIS419     -0.1241
     90  CA       -46.5010   14.0120   -2.9720 C.3   419  HIS419      0.1621
     91  C        -45.7240   13.4450   -4.1710 C.2   419  HIS419      0.2264
     92  O        -46.1560   13.6160   -5.3120 O.2   419  HIS419     -0.2867
     93  CB       -45.8980   15.3530   -2.5420 C.3   419  HIS419      0.0745
     94  CG       -46.0230   16.4060   -3.5920 C.ar  419  HIS419      0.0817
     95  ND1      -47.2340   16.7510   -4.1490 N.ar  419  HIS419     -0.2268
     96  CD2      -45.0910   17.1800   -4.1980 C.ar  419  HIS419      0.1154
     97  CE1      -47.0430   17.6910   -5.0580 C.ar  419  HIS419      0.1986
     98  NE2      -45.7540   17.9840   -5.0910 N.ar  419  HIS419     -0.2212
     99  N        -41.1580   18.7820  -11.4670 N.3   436  ALA436     -0.1231
    100  CA       -42.4710   19.1130  -10.9030 C.3   436  ALA436      0.1694
    101  C        -42.4480   19.3620   -9.3870 C.2   436  ALA436      0.2592
    102  O        -43.2010   20.1980   -8.8850 O.2   436  ALA436     -0.2718
    103  CB       -43.4750   18.0430  -11.2620 C.3   436  ALA436      0.0304
    104  N        -41.5710   18.6420   -8.6720 N.am  437  TYR437     -0.1962
    105  CA       -41.3740   18.8350   -7.2480 C.3   437  TYR437      0.1771
    106  C        -40.8930   20.2510   -6.9660 C.2   437  TYR437      0.2620
    107  O        -41.4210   20.9040   -6.0770 O.2   437  TYR437     -0.2715
    108  CB       -40.3650   17.8060   -6.7030 C.3   437  TYR437      0.0574
    109  CG       -40.3800   17.6890   -5.2210 C.ar  437  TYR437     -0.0198
    110  CD1      -41.2480   16.7890   -4.5940 C.ar  437  TYR437     -0.0009
    111  CD2      -39.5800   18.5250   -4.4210 C.ar  437  TYR437     -0.0009
    112  CE1      -41.2740   16.6650   -3.2180 C.ar  437  TYR437      0.0417
    113  CE2      -39.6140   18.4320   -3.0380 C.ar  437  TYR437      0.0417
    114  CZ       -40.4620   17.5000   -2.4370 C.ar  437  TYR437      0.1957
    115  OH       -40.5200   17.3820   -1.0820 O.3   437  TYR437     -0.2866
    116  N        -39.9000   20.7100   -7.7320 N.am  438  ASN438     -0.1958
    117  CA       -39.3090   22.0510   -7.5990 C.3   438  ASN438      0.1819
    118  C        -40.1500   23.1890   -8.2100 C.2   438  ASN438      0.2622
    119  O        -40.3180   24.2590   -7.5980 O.2   438  ASN438     -0.2715
    120  CB       -37.9070   22.0730   -8.2110 C.3   438  ASN438      0.1195
    121  CG       -37.2250   23.4270   -8.0900 C.2   438  ASN438      0.2630
    122  OD1      -37.0840   24.1490   -9.0750 O.2   438  ASN438     -0.2716
    123  ND2      -36.8160   23.7870   -6.8840 N.am  438  ASN438     -0.0877
    124  N        -40.6460   22.9560   -9.4180 N.am  439  GLY439     -0.1940
    125  CA       -41.2590   24.0070  -10.2180 C.3   439  GLY439      0.2014
    126  C        -42.7670   23.9360  -10.3640 C.2   439  GLY439      0.2639
    127  O        -43.3710   24.8660  -10.8860 O.2   439  GLY439     -0.2714
    128  N        -43.3760   22.8360   -9.9240 N.am  440  GLY440     -0.1939
    129  CA       -44.8130   22.6560  -10.0370 C.3   440  GLY440      0.2014
    130  C        -45.1580   21.7860  -11.2260 C.2   440  GLY440      0.2639
    131  O        -44.4870   21.8020  -12.2680 O.2   440  GLY440     -0.2714
    132  N        -46.2160   21.0170  -11.0720 N.am  441  ILE441     -0.1963
    133  CA       -46.6500   20.1090  -12.1580 C.3   441  ILE441      0.1727
    134  C        -47.2470   20.8870  -13.3460 C.2   441  ILE441      0.2617
    135  O        -47.1290   20.4500  -14.4970 O.2   441  ILE441     -0.2715
    136  CB       -47.6060   19.0140  -11.6570 C.3   441  ILE441      0.0290
    137  CG1      -47.7480   17.9230  -12.7320 C.3   441  ILE441      0.0022
    138  CG2      -48.9600   19.5980  -11.2170 C.3   441  ILE441      0.0023
    139  CD1      -48.3630   16.6410  -12.2410 C.3   441  ILE441      0.0001
    140  N        -47.8480   22.0450  -13.0650 N.am  442  GLY442     -0.1940
    141  CA       -48.3520   22.9500  -14.1260 C.3   442  GLY442      0.2014
    142  C        -47.3030   23.2570  -15.1820 C.2   442  GLY442      0.2638
    143  O        -47.5170   22.9760  -16.3690 O.2   442  GLY442     -0.2714
    144  N        -46.1430   23.7740  -14.7600 N.am  443  PHE443     -0.1973
    145  CA       -45.0700   24.1150  -15.7300 C.3   443  PHE443      0.1639
    146  C        -44.5260   22.8650  -16.4330 C.2   443  PHE443      0.2290
    147  O        -44.1950   22.9150  -17.6220 O.2   443  PHE443     -0.2864
    148  CB       -43.9370   24.9620  -15.0930 C.3   443  PHE443      0.0560
    149  CG       -42.5730   24.3110  -15.1080 C.ar  443  PHE443     -0.0200
    150  CD1      -41.7260   24.4500  -16.2160 C.ar  443  PHE443     -0.0042
    151  CD2      -42.1170   23.5800  -14.0090 C.ar  443  PHE443     -0.0042
    152  CE1      -40.4560   23.8620  -16.2260 C.ar  443  PHE443     -0.0003
    153  CE2      -40.8460   22.9980  -14.0100 C.ar  443  PHE443     -0.0003
    154  CZ       -40.0170   23.1370  -15.1190 C.ar  443  PHE443     -0.0000
    155  N        -33.9720   27.3940  -12.3260 N.3   472  GLU472     -0.1245
    156  CA       -33.8410   26.6740  -11.0520 C.3   472  GLU472      0.1567
    157  C        -34.2130   25.2020  -11.2330 C.2   472  GLU472      0.2260
    158  O        -33.5290   24.3210  -10.7170 O.2   472  GLU472     -0.2867
    159  CB       -34.7140   27.3070   -9.9650 C.3   472  GLU472      0.0388
    160  CG       -34.6360   26.6080   -8.6010 C.3   472  GLU472      0.1160
    161  CD       -35.4440   27.3190   -7.5110 C.2   472  GLU472      0.3649
    162  OE1      -35.5990   26.7630   -6.4030 O.co2 472  GLU472     -0.2457
    163  OE2      -35.9450   28.4340   -7.7670 O.co2 472  GLU472     -0.2457
@<TRIPOS>BOND
     1   147   146    2
     2   146   145    1
     3   143   142    2
     4   152   150   ar
     5   152   154   ar
     6   150   149   ar
     7   145   148    1
     8   145   144    1
     9   142   144   am
    10   142   141    1
    11   154   153   ar
    12   149   148    1
    13   149   151   ar
    14   135   134    2
    15   141   140    1
    16   153   151   ar
    17   134   140   am
    18   134   133    1
    19   137   139    1
    20   137   136    1
    21   155   156    1
    22   131   130    2
    23   133   136    1
    24   133   132    1
    25   136   138    1
    26    99   100    1
    27   103   100    1
    28   157   156    1
    29   157   158    2
    30   130   132   am
    31   130   129    1
    32   156   159    1
    33   100   101    1
    34   127   126    2
    35   126   125    1
    36   126   128   am
    37   125   124    1
    38   129   128    1
    39   159   160    1
    40   124   118   am
    41   101   102    2
    42   101   104   am
    43   122   121    2
    44   104   105    1
    45   160   161    1
    46   120   121    1
    47   120   117    1
    48   118   117    1
    49   118   119    2
    50   121   123   am
    51   163   161   ar
    52   116   117    1
    53   116   106   am
    54   161   162   ar
    55   105   106    1
    56   105   108    1
    57   106   107    2
    58   108   109    1
    59    92    91    2
    60   109   110   ar
    61   109   111   ar
    62    98    97   ar
    63    98    96   ar
    64    97    95   ar
    65   110   112   ar
    66   111   113   ar
    67    96    94   ar
    68    91    90    1
    69    95    94   ar
    70    80    78   ar
    71    80    79   ar
    72    94    93    1
    73    17    15   ar
    74    78    76   ar
    75   112   114   ar
    76   113   114   ar
    77    79    77   ar
    78    90    93    1
    79    90    89    1
    80    15    16   ar
    81    15    14    1
    82   114   115    1
    83    88    86    1
    84    87    86    1
    85    76    75   ar
    86    77    75   ar
    87    14    13    1
    88     9    10    1
    89    67    68    1
    90    67    66    1
    91    36    35    1
    92    30    28    1
    93    86    85    1
    94    75    74    1
    95    35    32    1
    96    69    68    1
    97    10    13    1
    98    10    11    1
    99    85    82    1
   100    66    63    1
   101    45    44    2
   102    28    29    1
   103    28    25    1
   104    74    71    1
   105    82    81    1
   106    82    83    1
   107    32    31    1
   108    32    33    1
   109    31    26   am
   110    11    12    2
   111    60    61   ar
   112    60    58   ar
   113    81    72   am
   114    61    59   ar
   115    62    63    1
   116    62    53   am
   117    46    47    1
   118    46    43    1
   119    23    22    1
   120    63    64    1
   121    26    27    2
   122    26    25    1
   123    58    56   ar
   124    41    38    1
   125    72    73    2
   126    72    71    1
   127    22    19    1
   128    44    43    1
   129    44    51   am
   130    25    24    1
   131    34    33    2
   132    24    20   am
   133    71    70    1
   134    59    57   ar
   135    83    84    2
   136    47    48    1
   137    52    53    1
   138    52    51    1
   139    52    55    1
   140    49    48    2
   141    53    54    2
   142    43    42    1
   143    56    57   ar
   144    56    55    1
   145    65    64    2
   146    19    20    1
   147    19    18    1
   148    48    50   am
   149    38    37    1
   150    38    39    1
   151    20    21    2
   152    39    40    2
   153     7     6    1
   154     8     6    1
   155     6     5    1
   156     5     2    1
   157     2     1    1
   158     2     3    1
   159     4     3    2
