@<TRIPOS>MOLECULE
tmp/6cfdH00.pdb
 103 99 0 0 0
SMALL
GASTEIGER

@<TRIPOS>ATOM
      1  N          4.3260   49.3050    3.3160 N.3    68  VAL68      -0.1245
      2  CA         4.4390   49.0310    4.7360 C.3    68  VAL68       0.1561
      3  C          3.5630   47.8640    5.1910 C.2    68  VAL68       0.2260
      4  O          4.0280   47.0090    5.9360 O.2    68  VAL68      -0.2867
      5  CB         4.1390   50.2540    5.5850 C.3    68  VAL68       0.0252
      6  CG1        4.2440   49.9170    7.0470 C.3    68  VAL68       0.0019
      7  CG2        5.1810   51.3260    5.3290 C.3    68  VAL68       0.0019
      8  N         14.5460   50.4200    3.3500 N.3    95  SER95      -0.1202
      9  CA        13.2100   50.6190    3.9050 C.3    95  SER95       0.2020
     10  C         12.6030   49.2920    4.3920 C.2    95  SER95       0.2618
     11  O         13.2060   48.6120    5.1840 O.2    95  SER95      -0.2717
     12  CB        12.3430   51.3570    2.8990 C.3    95  SER95       0.2103
     13  OG        13.0670   52.5180    2.5220 O.3    95  SER95      -0.2182
     14  N         11.4530   48.8920    3.9020 N.am   96  MET96      -0.1979
     15  CA        10.8850   47.6680    4.3510 C.3    96  MET96       0.1605
     16  C         11.8150   46.4780    4.0890 C.2    96  MET96       0.2287
     17  O         11.7050   45.4560    4.7670 O.2    96  MET96      -0.2864
     18  CB         9.4990   47.4540    3.7210 C.3    96  MET96       0.0413
     19  CG         8.5890   46.4830    4.5050 C.3    96  MET96       0.0598
     20  SD         8.1480   46.8280    6.2590 S.3    96  MET96      -0.1393
     21  CE         8.0430   48.5930    6.1000 C.3    96  MET96       0.0692
     22  N         15.1480   46.4380    4.5410 N.3    98  SER98      -0.1202
     23  CA        16.0140   46.3710    5.6870 C.3    98  SER98       0.2020
     24  C         15.2500   45.9130    6.9580 C.2    98  SER98       0.2618
     25  O         15.8150   45.2550    7.8270 O.2    98  SER98      -0.2717
     26  CB        16.7460   47.7090    5.9200 C.3    98  SER98       0.2103
     27  OG        15.8720   48.7140    6.3800 O.3    98  SER98      -0.2182
     28  N         13.9720   46.2650    7.0500 N.am   99  PHE99      -0.1975
     29  CA        13.1550   45.8650    8.1790 C.3    99  PHE99       0.1639
     30  C         12.9760   44.3430    8.1870 C.2    99  PHE99       0.2290
     31  O         13.0010   43.7100    9.2280 O.2    99  PHE99      -0.2864
     32  CB        11.8170   46.5800    8.1080 C.3    99  PHE99       0.0560
     33  CG        10.9280   46.3640    9.3040 C.ar   99  PHE99      -0.0200
     34  CD1       10.9730   47.2320   10.3670 C.ar   99  PHE99      -0.0042
     35  CD2       10.0070   45.3300    9.3130 C.ar   99  PHE99      -0.0042
     36  CE1       10.1180   47.0670   11.4310 C.ar   99  PHE99      -0.0003
     37  CE2        9.1680   45.1400   10.3770 C.ar   99  PHE99      -0.0003
     38  CZ         9.2150   46.0090   11.4300 C.ar   99  PHE99      -0.0000
     39  N         17.9140   52.6300    6.1070 N.3   119  ILE119     -0.1231
     40  CA        16.7830   52.8260    6.9590 C.3   119  ILE119      0.1692
     41  C         16.3710   54.2670    6.8890 C.2   119  ILE119      0.2592
     42  O         17.2120   55.1580    6.7440 O.2   119  ILE119     -0.2718
     43  CB        17.0970   52.4340    8.4300 C.3   119  ILE119      0.0266
     44  CG1       18.2440   53.2930    9.0450 C.3   119  ILE119      0.0019
     45  CG2       17.3570   50.9140    8.4750 C.3   119  ILE119      0.0020
     46  CD1       18.4780   53.0500   10.5310 C.3   119  ILE119      0.0001
     47  N         15.0670   54.4950    6.9600 N.am  120  HIS120     -0.1962
     48  CA        14.5240   55.8710    7.0150 C.3   120  HIS120      0.1787
     49  C         13.1400   55.8880    7.6710 C.2   120  HIS120      0.2620
     50  O         12.7830   54.9310    8.3200 O.2   120  HIS120     -0.2715
     51  CB        14.5580   56.5370    5.6160 C.3   120  HIS120      0.0785
     52  CG        13.6770   55.8960    4.6120 C.ar  120  HIS120      0.0821
     53  ND1       13.6900   56.2810    3.2880 N.ar  120  HIS120     -0.2267
     54  CD2       12.7760   54.8860    4.7080 C.ar  120  HIS120      0.1154
     55  CE1       12.8170   55.5470    2.6180 C.ar  120  HIS120      0.1986
     56  NE2       12.2540   54.6920    3.4550 N.ar  120  HIS120     -0.2212
     57  N         12.3910   56.9770    7.5370 N.am  121  GLN121     -0.1964
     58  CA        11.0150   57.0130    8.0400 C.3   121  GLN121      0.1718
     59  C         10.0120   56.6380    6.9500 C.2   121  GLN121      0.2458
     60  O         10.3440   56.6770    5.7600 O.2   121  GLN121     -0.2730
     61  CB        10.6480   58.3080    8.7660 C.3   121  GLN121      0.0407
     62  CG        11.2880   59.5870    8.3520 C.3   121  GLN121      0.0908
     63  CD        10.7490   60.7830    9.1150 C.2   121  GLN121      0.2608
     64  OE1        9.5710   60.8210    9.4650 O.2   121  GLN121     -0.2717
     65  NE2       11.5830   61.7820    9.3240 N.am  121  GLN121     -0.0878
     66  N          8.8010   56.2130    7.3650 N.am  122  PRO122     -0.2727
     67  CA         7.7480   55.9030    6.3970 C.3   122  PRO122      0.1402
     68  C          7.3460   57.1250    5.5880 C.2   122  PRO122      0.2269
     69  O          7.4180   58.2720    6.0730 O.2   122  PRO122     -0.2865
     70  CB         6.5750   55.4790    7.2590 C.3   122  PRO122      0.0296
     71  CG         7.1000   55.2410    8.6250 C.3   122  PRO122      0.0237
     72  CD         8.3190   56.0840    8.7580 C.3   122  PRO122      0.0939
     73  N          7.1280   50.9020   14.0940 N.3   147  LEU147     -0.1231
     74  CA         8.2410   50.3150   13.3840 C.3   147  LEU147      0.1693
     75  C          9.5570   50.6260   14.1200 C.2   147  LEU147      0.2592
     76  O         10.3860   49.7890   14.2550 O.2   147  LEU147     -0.2718
     77  CB         8.3030   50.8510   11.9660 C.3   147  LEU147      0.0284
     78  CG         7.1830   50.4570   11.0150 C.3   147  LEU147      0.0019
     79  CD1        7.4370   51.1150    9.6660 C.3   147  LEU147      0.0001
     80  CD2        7.0370   48.9710   10.8240 C.3   147  LEU147      0.0001
     81  N          9.7100   51.8360   14.5950 N.am  148  ASN148     -0.1974
     82  CA        10.8080   52.2110   15.4310 C.3   148  ASN148      0.1688
     83  C         10.9530   51.3710   16.7110 C.2   148  ASN148      0.2292
     84  O         12.0460   50.9410   17.0180 O.2   148  ASN148     -0.2864
     85  CB        10.7300   53.7050   15.7600 C.3   148  ASN148      0.1181
     86  CG        11.1190   54.5750   14.5620 C.2   148  ASN148      0.2629
     87  OD1       11.5080   54.0540   13.5120 O.2   148  ASN148     -0.2716
     88  ND2       11.0370   55.8990   14.7190 N.am  148  ASN148     -0.0877
     89  N         12.3970   48.1510   15.7190 N.3   151  LEU151     -0.1245
     90  CA        13.7690   48.2630   15.3270 C.3   151  LEU151      0.1561
     91  C         14.6380   48.3260   16.5520 C.2   151  LEU151      0.2260
     92  O         15.7140   47.7380   16.6010 O.2   151  LEU151     -0.2867
     93  CB        14.0430   49.5170   14.4860 C.3   151  LEU151      0.0270
     94  CG        13.9150   49.4380   12.9690 C.3   151  LEU151      0.0019
     95  CD1       14.4670   50.7630   12.4720 C.3   151  LEU151      0.0001
     96  CD2       14.6770   48.2790   12.3560 C.3   151  LEU151      0.0001
     97  N         16.8290   57.3830   11.8590 N.3   166  THR166     -0.1218
     98  CA        15.8510   57.2420   10.7770 C.3   166  THR166      0.1862
     99  C         15.2270   58.5670   10.3070 C.2   166  THR166      0.2287
    100  O         14.3930   58.5640    9.3980 O.2   166  THR166     -0.2866
    101  CB        14.7280   56.2990   11.1700 C.3   166  THR166      0.1770
    102  OG1       14.1120   56.7680   12.3670 O.3   166  THR166     -0.2211
    103  CG2       15.2400   54.9060   11.3760 C.3   166  THR166      0.0375
@<TRIPOS>BOND
     1    13    12    1
     2    55    53   ar
     3    55    56   ar
     4    12     9    1
     5    53    52   ar
     6     1     2    1
     7     8     9    1
     8    56    54   ar
     9    18    15    1
    10    18    19    1
    11    14    15    1
    12    14    10   am
    13     9    10    1
    14    16    15    1
    15    16    17    2
    16    10    11    2
    17    19    20    1
    18    22    23    1
    19    52    54   ar
    20    52    51    1
    21     2     3    1
    22     2     5    1
    23     3     4    2
    24     7     5    1
    25     5     6    1
    26    68    69    2
    27    68    67    1
    28    51    48    1
    29    23    26    1
    30    23    24    1
    31    60    59    2
    32    26    27    1
    33    21    20    1
    34    39    40    1
    35    67    70    1
    36    67    66    1
    37    42    41    2
    38    41    40    1
    39    41    47   am
    40    59    66   am
    41    59    58    1
    42    24    28   am
    43    24    25    2
    44    40    43    1
    45    47    48    1
    46    48    49    1
    47    28    29    1
    48    70    71    1
    49    66    72    1
    50    57    49   am
    51    57    58    1
    52    49    50    2
    53    58    61    1
    54    32    29    1
    55    32    33    1
    56    29    30    1
    57    30    31    2
    58    62    61    1
    59    62    63    1
    60    43    45    1
    61    43    44    1
    62    71    72    1
    63    44    46    1
    64    63    65   am
    65    63    64    2
    66    33    35   ar
    67    33    34   ar
    68    35    37   ar
    69   100    99    2
    70    79    78    1
    71    99    98    1
    72    34    36   ar
    73    37    38   ar
    74    98   101    1
    75    98    97    1
    76    80    78    1
    77    78    77    1
    78   101   103    1
    79   101   102    1
    80    38    36   ar
    81    77    74    1
    82    96    94    1
    83    95    94    1
    84    94    93    1
    85    74    73    1
    86    74    75    1
    87    87    86    2
    88    75    76    2
    89    75    81   am
    90    93    90    1
    91    86    88   am
    92    86    85    1
    93    81    82    1
    94    90    89    1
    95    90    91    1
    96    82    85    1
    97    82    83    1
    98    91    92    2
    99    83    84    2
