@<TRIPOS>MOLECULE
tmp/6cfdH02.pdb
 82 79 0 0 0
SMALL
GASTEIGER

@<TRIPOS>ATOM
      1  N          4.5180   34.7080    1.6200 N.3    42  ILE42      -0.1245
      2  CA         3.7600   34.2010    2.7530 C.3    42  ILE42       0.1561
      3  C          3.3530   32.7480    2.4850 C.2    42  ILE42       0.2260
      4  O          3.4840   31.8820    3.3140 O.2    42  ILE42      -0.2867
      5  CB         2.5300   35.1020    3.0410 C.3    42  ILE42       0.0252
      6  CG1        2.9990   36.3810    3.7350 C.3    42  ILE42       0.0019
      7  CG2        1.5310   34.4060    3.9460 C.3    42  ILE42       0.0019
      8  CD1        1.9670   37.4690    3.8410 C.3    42  ILE42       0.0001
      9  N          4.6280   29.6010    4.7930 N.3    46  LEU46      -0.1231
     10  CA         3.6560   28.6770    5.3870 C.3    46  LEU46       0.1693
     11  C          3.8690   27.2350    4.9410 C.2    46  LEU46       0.2592
     12  O          3.9010   26.3090    5.7760 O.2    46  LEU46      -0.2718
     13  CB         2.2250   29.1020    5.0460 C.3    46  LEU46       0.0284
     14  CG         1.7740   30.4160    5.7090 C.3    46  LEU46       0.0019
     15  CD1        0.3380   30.6680    5.3340 C.3    46  LEU46       0.0001
     16  CD2        1.9370   30.4520    7.2280 C.3    46  LEU46       0.0001
     17  N          4.0210   27.0660    3.6320 N.am   47  PHE47      -0.1976
     18  CA         4.2570   25.7470    3.0450 C.3    47  PHE47       0.1639
     19  C          5.5040   25.0850    3.6140 C.2    47  PHE47       0.2290
     20  O          5.4610   23.9440    4.0050 O.2    47  PHE47      -0.2864
     21  CB         4.3450   25.8410    1.5340 C.3    47  PHE47       0.0560
     22  CG         4.8090   24.5830    0.8720 C.ar   47  PHE47      -0.0200
     23  CD1        3.9260   23.5380    0.6610 C.ar   47  PHE47      -0.0042
     24  CD2        6.1260   24.4510    0.4310 C.ar   47  PHE47      -0.0042
     25  CE1        4.3320   22.3790    0.0260 C.ar   47  PHE47      -0.0003
     26  CE2        6.5440   23.2850   -0.2020 C.ar   47  PHE47      -0.0003
     27  CZ         5.6420   22.2520   -0.4090 C.ar   47  PHE47      -0.0000
     28  N          7.0050   25.5960    6.5310 N.3    49  ASP49      -0.1225
     29  CA         6.8780   25.3180    7.9740 C.3    49  ASP49       0.1805
     30  C          6.0060   24.1020    8.2370 C.2    49  ASP49       0.2598
     31  O          6.3030   23.3290    9.1330 O.2    49  ASP49      -0.2718
     32  CB         6.3060   26.5080    8.7360 C.3    49  ASP49       0.1424
     33  CG         6.6950   26.5070   10.2330 C.2    49  ASP49       0.3668
     34  OD1        7.9090   26.3830   10.5520 O.co2  49  ASP49      -0.2456
     35  OD2        5.8060   26.7130   11.1080 O.co2  49  ASP49      -0.2456
     36  N          4.9360   23.9610    7.4510 N.am   50  ALA50      -0.1966
     37  CA         4.1060   22.7420    7.4080 C.3    50  ALA50       0.1728
     38  C          4.8740   21.4550    7.0410 C.2    50  ALA50       0.2616
     39  O          4.7350   20.4030    7.6840 O.2    50  ALA50      -0.2715
     40  CB         2.9580   22.9380    6.4300 C.3    50  ALA50       0.0334
     41  N          5.6580   21.5610    5.9850 N.am   51  GLN51      -0.1977
     42  CA         6.4850   20.4740    5.4830 C.3    51  GLN51       0.1601
     43  C          7.5120   20.0210    6.5500 C.2    51  GLN51       0.2287
     44  O          7.6860   18.8270    6.7530 O.2    51  GLN51      -0.2864
     45  CB         7.1320   20.9320    4.1730 C.3    51  GLN51       0.0394
     46  CG         8.0870   19.9830    3.5000 C.3    51  GLN51       0.0908
     47  CD         8.8540   20.6720    2.3740 C.2    51  GLN51       0.2608
     48  OE1        8.3240   20.7810    1.2660 O.2    51  GLN51      -0.2717
     49  NE2       10.1070   21.1350    2.6450 N.am   51  GLN51      -0.0878
     50  N          5.1220   39.5100   10.1450 N.3    76  ASP76      -0.1225
     51  CA         4.3040   38.7590   11.0630 C.3    76  ASP76       0.1805
     52  C          4.3420   37.2520   10.7330 C.2    76  ASP76       0.2598
     53  O          4.3260   36.4260   11.6260 O.2    76  ASP76      -0.2718
     54  CB         2.8600   39.2980   11.0890 C.3    76  ASP76       0.1424
     55  CG         2.6620   40.4910   12.0830 C.2    76  ASP76       0.3668
     56  OD1        3.5590   40.8400   12.9230 O.co2  76  ASP76      -0.2456
     57  OD2        1.5560   41.1010   12.0390 O.co2  76  ASP76      -0.2456
     58  N          4.3990   36.9110    9.4640 N.am   77  THR77      -0.1953
     59  CA         4.4700   35.5200    9.0470 C.3    77  THR77       0.1897
     60  C          5.8260   34.8910    9.4060 C.2    77  THR77       0.2313
     61  O          5.9010   33.7360    9.7920 O.2    77  THR77      -0.2863
     62  CB         4.2190   35.3720    7.5430 C.3    77  THR77       0.1794
     63  OG1        2.9870   36.0030    7.2290 O.3    77  THR77      -0.2208
     64  CG2        4.1110   33.8730    7.1510 C.3    77  THR77       0.0378
     65  N          5.5630   34.1290   12.9500 N.3    80  PHE80      -0.1227
     66  CA         4.6020   33.0790   13.2190 C.3    80  PHE80       0.1736
     67  C          5.1180   31.6460   13.0630 C.2    80  PHE80       0.2595
     68  O          4.8950   30.7910   13.9110 O.2    80  PHE80      -0.2718
     69  CB         3.3900   33.2050   12.3330 C.3    80  PHE80       0.0547
     70  CG         2.3620   32.1800   12.6440 C.ar   80  PHE80      -0.0202
     71  CD1        2.4520   30.9000   12.0850 C.ar   80  PHE80      -0.0042
     72  CD2        1.3470   32.4520   13.5640 C.ar   80  PHE80      -0.0042
     73  CE1        1.5220   29.9300   12.4000 C.ar   80  PHE80      -0.0003
     74  CE2        0.4180   31.4780   13.8790 C.ar   80  PHE80      -0.0003
     75  CZ         0.5010   30.2210   13.2950 C.ar   80  PHE80      -0.0000
     76  N          5.7230   31.3650   11.9290 N.am   81  VAL81      -0.1980
     77  CA         6.1690   30.0080   11.6240 C.3    81  VAL81       0.1595
     78  C          7.1520   29.5450   12.7210 C.2    81  VAL81       0.2287
     79  O          7.9130   30.3950   13.2930 O.2    81  VAL81      -0.2864
     80  CB         6.7990   29.9020   10.1990 C.3    81  VAL81       0.0276
     81  CG1        5.7540   30.1730    9.1270 C.3    81  VAL81       0.0022
     82  CG2        8.0200   30.8050   10.0310 C.3    81  VAL81       0.0022
@<TRIPOS>BOND
     1    27    26   ar
     2    27    25   ar
     3    26    24   ar
     4    25    23   ar
     5    24    22   ar
     6    23    22   ar
     7    22    21    1
     8    48    47    2
     9    21    18    1
    10     1     2    1
    11    47    49   am
    12    47    46    1
    13     3     2    1
    14     3     4    2
    15     2     5    1
    16     5     6    1
    17     5     7    1
    18    18    19    1
    19    18    17    1
    20    46    45    1
    21    19    20    2
    22    17    11   am
    23     6     8    1
    24    45    42    1
    25     9    10    1
    26    11    10    1
    27    11    12    2
    28    13    10    1
    29    13    14    1
    30    15    14    1
    31    42    41    1
    32    42    43    1
    33    14    16    1
    34    41    38   am
    35    40    37    1
    36    28    29    1
    37    43    44    2
    38    38    37    1
    39    38    39    2
    40    64    62    1
    41    63    62    1
    42    37    36    1
    43    36    30   am
    44    62    59    1
    45    29    30    1
    46    29    32    1
    47    30    31    2
    48    32    33    1
    49    59    60    1
    50    59    58    1
    51    81    80    1
    52    60    61    2
    53    58    52   am
    54    82    80    1
    55    50    51    1
    56    80    77    1
    57    33    34   ar
    58    33    35   ar
    59    52    51    1
    60    52    53    2
    61    51    54    1
    62    54    55    1
    63    77    76    1
    64    77    78    1
    65    76    67   am
    66    57    55   ar
    67    55    56   ar
    68    71    73   ar
    69    71    70   ar
    70    69    70    1
    71    69    66    1
    72    73    75   ar
    73    70    72   ar
    74    78    79    2
    75    65    66    1
    76    67    66    1
    77    67    68    2
    78    75    74   ar
    79    72    74   ar
