@<TRIPOS>MOLECULE
tmp/6cfdH01.pdb
 131 123 0 0 0
SMALL
GASTEIGER

@<TRIPOS>ATOM
      1  N         13.1020   25.1180   -7.8350 N.3    20  ARG20      -0.1231
      2  CA        14.1700   24.1940   -7.4070 C.3    20  ARG20       0.1694
      3  C         14.8500   24.6690   -6.1250 C.2    20  ARG20       0.2591
      4  O         15.1020   23.8790   -5.2470 O.2    20  ARG20      -0.2718
      5  CB        15.1970   23.9900   -8.5310 C.3    20  ARG20       0.0321
      6  CG        16.3570   23.0830   -8.1900 C.3    20  ARG20       0.0489
      7  CD        15.9650   21.6270   -7.9480 C.3    20  ARG20       0.2205
      8  NE        17.1230   20.8960   -7.4040 N.pl3  20  ARG20      -0.0865
      9  CZ        17.5330   20.9290   -6.1380 C.cat  20  ARG20       0.5346
     10  NH1       16.8700   21.6210   -5.2140 N.pl3  20  ARG20       0.1354
     11  NH2       18.6190   20.2630   -5.7870 N.pl3  20  ARG20       0.1354
     12  N         15.1430   25.9580   -6.0320 N.am   21  LEU21      -0.1980
     13  CA        15.6260   26.5540   -4.7800 C.3    21  LEU21       0.1596
     14  C         14.6510   26.4310   -3.5720 C.2    21  LEU21       0.2287
     15  O         15.0840   26.3350   -2.4270 O.2    21  LEU21      -0.2864
     16  CB        15.9940   28.0280   -5.0140 C.3    21  LEU21       0.0297
     17  CG        17.4660   28.2630   -5.3490 C.3    21  LEU21       0.0022
     18  CD1       17.8730   27.4690   -6.5780 C.3    21  LEU21       0.0001
     19  CD2       17.7320   29.7450   -5.5360 C.3    21  LEU21       0.0001
     20  N         14.9110   23.2330   -1.6130 N.3    24  ASP24      -0.1225
     21  CA        15.8800   23.3220   -0.5350 C.3    24  ASP24       0.1805
     22  C         15.6240   24.4440    0.4700 C.2    24  ASP24       0.2598
     23  O         16.5610   24.9070    1.1550 O.2    24  ASP24      -0.2718
     24  CB        17.2820   23.4160   -1.1430 C.3    24  ASP24       0.1424
     25  CG        17.6990   22.1130   -1.8290 C.2    24  ASP24       0.3668
     26  OD1       17.4330   21.0320   -1.2450 O.co2  24  ASP24      -0.2456
     27  OD2       18.2770   22.1620   -2.9430 O.co2  24  ASP24      -0.2456
     28  N         14.3660   24.8750    0.5770 N.am   25  ARG25      -0.1966
     29  CA        13.9440   25.8580    1.6050 C.3    25  ARG25       0.1729
     30  C         14.4680   27.3170    1.4670 C.2    25  ARG25       0.2616
     31  O         14.4860   28.0960    2.4440 O.2    25  ARG25      -0.2715
     32  CB        14.2180   25.2790    3.0070 C.3    25  ARG25       0.0348
     33  CG        13.5510   23.9050    3.1850 C.3    25  ARG25       0.0492
     34  CD        13.8470   23.3110    4.5410 C.3    25  ARG25       0.2205
     35  NE        13.2070   24.0180    5.6540 N.pl3  25  ARG25      -0.0865
     36  CZ        11.9010   23.9480    5.9360 C.cat  25  ARG25       0.5346
     37  NH1       11.0560   23.2600    5.1620 N.pl3  25  ARG25       0.1354
     38  NH2       11.4240   24.6040    6.9850 N.pl3  25  ARG25       0.1354
     39  N         14.8660   27.6820    0.2420 N.am   26  ILE26      -0.1977
     40  CA        15.2610   29.0490   -0.0690 C.3    26  ILE26       0.1596
     41  C         14.1020   29.8510   -0.6980 C.2    26  ILE26       0.2287
     42  O         13.4620   29.4140   -1.6420 O.2    26  ILE26      -0.2864
     43  CB        16.4540   29.0230   -1.0090 C.3    26  ILE26       0.0276
     44  CG1       17.6610   28.4980   -0.2600 C.3    26  ILE26       0.0022
     45  CG2       16.7720   30.4100   -1.5410 C.3    26  ILE26       0.0022
     46  CD1       18.7660   28.0230   -1.1800 C.3    26  ILE26       0.0001
     47  N         15.5810   29.8920    4.5270 N.3    58  TYR58      -0.1241
     48  CA        16.5060   30.9360    4.0790 C.3    58  TYR58       0.1605
     49  C         15.8140   31.9660    3.1670 C.2    58  TYR58       0.2264
     50  O         15.2650   31.6370    2.1110 O.2    58  TYR58      -0.2867
     51  CB        17.6600   30.2770    3.3660 C.3    58  TYR58       0.0534
     52  CG        18.2380   29.1660    4.1830 C.ar   58  TYR58      -0.0201
     53  CD1       19.2710   29.4200    5.0810 C.ar   58  TYR58      -0.0009
     54  CD2       17.7150   27.8640    4.1160 C.ar   58  TYR58      -0.0009
     55  CE1       19.8090   28.4020    5.8720 C.ar   58  TYR58       0.0417
     56  CE2       18.2350   26.8450    4.9040 C.ar   58  TYR58       0.0417
     57  CZ        19.2940   27.1230    5.7780 C.ar   58  TYR58       0.1957
     58  OH        19.8520   26.1490    6.5710 O.3    58  TYR58      -0.2866
     59  N         16.3970   35.1570    1.0030 N.3    60  TYR60      -0.1241
     60  CA        17.3400   36.0640    0.3630 C.3    60  TYR60       0.1605
     61  C         16.6220   37.3420   -0.0250 C.2    60  TYR60       0.2264
     62  O         15.5520   37.2890   -0.6130 O.2    60  TYR60      -0.2867
     63  CB        17.9780   35.3690   -0.8490 C.3    60  TYR60       0.0534
     64  CG        18.7330   34.0800   -0.5620 C.ar   60  TYR60      -0.0201
     65  CD1       19.1900   33.7630    0.7140 C.ar   60  TYR60      -0.0009
     66  CD2       19.0500   33.1990   -1.5730 C.ar   60  TYR60      -0.0009
     67  CE1       19.9070   32.5910    0.9740 C.ar   60  TYR60       0.0417
     68  CE2       19.7830   32.0310   -1.3210 C.ar   60  TYR60       0.0417
     69  CZ        20.1990   31.7270   -0.0360 C.ar   60  TYR60       0.1957
     70  OH        20.9230   30.5790    0.2620 O.3    60  TYR60      -0.2866
     71  N         16.3440   32.4890    8.4810 N.3    86  GLN86      -0.1245
     72  CA        17.6070   33.1830    8.2240 C.3    86  GLN86       0.1566
     73  C         17.4130   34.1890    7.1030 C.2    86  GLN86       0.2260
     74  O         16.6720   33.9030    6.1610 O.2    86  GLN86      -0.2867
     75  CB        18.6690   32.1960    7.7780 C.3    86  GLN86       0.0367
     76  CG        18.9170   31.1080    8.8120 C.3    86  GLN86       0.0905
     77  CD        20.2040   30.3100    8.6210 C.2    86  GLN86       0.2608
     78  OE1       21.2550   30.8270    8.2410 O.2    86  GLN86      -0.2717
     79  NE2       20.1210   29.0500    8.9260 N.am   86  GLN86      -0.0878
     80  N         19.4590   36.8370    4.3860 N.3    88  ILE88      -0.1245
     81  CA        20.6930   37.2780    3.7230 C.3    88  ILE88       0.1561
     82  C         20.3340   38.4280    2.8050 C.2    88  ILE88       0.2260
     83  O         19.5510   38.2450    1.8770 O.2    88  ILE88      -0.2867
     84  CB        21.3370   36.2280    2.8180 C.3    88  ILE88       0.0252
     85  CG1       21.7120   34.9520    3.5810 C.3    88  ILE88       0.0019
     86  CG2       22.6310   36.8180    2.2350 C.3    88  ILE88       0.0019
     87  CD1       20.5780   34.0630    3.9650 C.3    88  ILE88       0.0001
     88  N         21.5530   40.5750   -0.2660 N.3    90  MET90      -0.1245
     89  CA        22.4590   40.6390   -1.4330 C.3    90  MET90       0.1570
     90  C         22.0890   41.9010   -2.2370 C.2    90  MET90       0.2261
     91  O         20.9620   42.0710   -2.6500 O.2    90  MET90      -0.2867
     92  CB        22.2740   39.4190   -2.2930 C.3    90  MET90       0.0387
     93  CG        20.8430   38.9650   -2.3360 C.3    90  MET90       0.0595
     94  SD        20.3180   37.7380   -3.5380 S.3    90  MET90      -0.1393
     95  CE        21.6150   36.6070   -3.1230 C.3    90  MET90       0.0692
     96  N         22.3610   37.8930    7.9090 N.3   110  PHE110     -0.1241
     97  CA        23.6070   38.1120    7.1950 C.3   110  PHE110      0.1605
     98  C         23.5320   39.1570    6.0910 C.2   110  PHE110      0.2264
     99  O         22.4840   39.4000    5.5230 O.2   110  PHE110     -0.2867
    100  CB        23.9790   36.8160    6.5210 C.3   110  PHE110      0.0534
    101  CG        24.0980   35.6610    7.4650 C.ar  110  PHE110     -0.0203
    102  CD1       25.2640   35.4610    8.1900 C.ar  110  PHE110     -0.0042
    103  CD2       23.0570   34.7670    7.6140 C.ar  110  PHE110     -0.0042
    104  CE1       25.3670   34.3900    9.0350 C.ar  110  PHE110     -0.0003
    105  CE2       23.1650   33.6790    8.4480 C.ar  110  PHE110     -0.0003
    106  CZ        24.3140   33.4940    9.1610 C.ar  110  PHE110     -0.0000
    107  N         25.9020   40.0010    2.4350 N.3   112  LEU112     -0.1245
    108  CA        27.0370   39.8390    1.5500 C.3   112  LEU112      0.1561
    109  C         27.8570   41.1070    1.6300 C.2   112  LEU112      0.2260
    110  O         27.3260   42.1610    1.9740 O.2   112  LEU112     -0.2867
    111  CB        26.6020   39.5250    0.1350 C.3   112  LEU112      0.0270
    112  CG        25.7850   38.2240    0.0380 C.3   112  LEU112      0.0019
    113  CD1       25.3910   37.9120   -1.3870 C.3   112  LEU112      0.0001
    114  CD2       26.5620   37.0310    0.5420 C.3   112  LEU112      0.0001
    115  N         26.2400   38.9170   11.0680 N.3   185  GLU185     -0.1245
    116  CA        27.5050   38.6680   10.3880 C.3   185  GLU185      0.1567
    117  C         27.5250   39.1040    8.9240 C.2   185  GLU185      0.2260
    118  O         26.5410   39.0000    8.2330 O.2   185  GLU185     -0.2867
    119  CB        27.8750   37.1710   10.5220 C.3   185  GLU185      0.0388
    120  CG        28.5460   36.8900   11.8700 C.3   185  GLU185      0.1160
    121  CD        28.5600   35.4460   12.3060 C.2   185  GLU185      0.3649
    122  OE1       28.2410   34.5340   11.5100 O.co2 185  GLU185     -0.2457
    123  OE2       28.8980   35.2480   13.4950 O.co2 185  GLU185     -0.2457
    124  N         29.0220   37.7950    5.5520 N.3   187  MET187     -0.1245
    125  CA        29.5940   36.5110    5.0580 C.3   187  MET187      0.1570
    126  C         30.4850   36.6000    3.8080 C.2   187  MET187      0.2261
    127  O         30.0210   36.9860    2.7480 O.2   187  MET187     -0.2867
    128  CB        28.5360   35.4170    4.8700 C.3   187  MET187      0.0387
    129  CG        27.4390   35.6540    3.8760 C.3   187  MET187      0.0595
    130  SD        26.0850   34.4610    4.0920 S.3   187  MET187     -0.1393
    131  CE        26.9360   32.9180    4.0120 C.3   187  MET187      0.0692
@<TRIPOS>BOND
     1     5     6    1
     2     5     2    1
     3     6     7    1
     4     7     8    1
     5     1     2    1
     6     2     3    1
     7     8     9    2
     8    18    17    1
     9     9    11    1
    10     9    10    1
    11     3    12   am
    12     3     4    2
    13    12    13    1
    14    19    17    1
    15    17    16    1
    16    16    13    1
    17    13    14    1
    18    14    15    2
    19    94    95    1
    20    94    93    1
    21    27    25   ar
    22    91    90    2
    23    93    92    1
    24    92    89    1
    25    90    89    1
    26    25    26   ar
    27    25    24    1
    28    42    41    2
    29    20    21    1
    30    66    68   ar
    31    66    64   ar
    32    45    43    1
    33    89    88    1
    34   113   112    1
    35    68    69   ar
    36    46    44    1
    37    24    21    1
    38    43    44    1
    39    43    40    1
    40    63    64    1
    41    63    60    1
    42    41    40    1
    43    62    61    2
    44    64    65   ar
    45    21    22    1
    46    40    39    1
    47    69    70    1
    48    69    67   ar
    49    61    60    1
    50   112   111    1
    51   112   114    1
    52   111   108    1
    53    39    30   am
    54    60    59    1
    55    22    28   am
    56    22    23    2
    57    28    29    1
    58    65    67   ar
    59    30    29    1
    60    30    31    2
    61   108   109    1
    62   108   107    1
    63    29    32    1
    64   109   110    2
    65    83    82    2
    66    50    49    2
    67    86    84    1
    68   127   126    2
    69    82    81    1
    70    84    85    1
    71    84    81    1
    72    32    33    1
    73    49    48    1
    74    33    34    1
    75    51    48    1
    76    51    52    1
    77    85    87    1
    78    81    80    1
    79   126   125    1
    80   129   130    1
    81   129   128    1
    82   131   130    1
    83    48    47    1
    84    54    52   ar
    85    54    56   ar
    86    52    53   ar
    87    34    35    1
    88   128   125    1
    89    56    57   ar
    90   125   124    1
    91    53    55   ar
    92    37    36    1
    93    99    98    2
    94    35    36    2
    95    57    55   ar
    96    57    58    1
    97    36    38    1
    98    98    97    1
    99    74    73    2
   100   100    97    1
   101   100   101    1
   102    73    72    1
   103    97    96    1
   104   101   103   ar
   105   101   102   ar
   106   103   105   ar
   107    75    72    1
   108    75    76    1
   109   102   104   ar
   110    72    71    1
   111   118   117    2
   112    78    77    2
   113   105   106   ar
   114    77    76    1
   115    77    79   am
   116   117   116    1
   117   104   106   ar
   118   116   119    1
   119   116   115    1
   120   119   120    1
   121   122   121   ar
   122   120   121    1
   123   121   123   ar
