@<TRIPOS>MOLECULE
tmp/6cffA00.pdb
 104 102 0 0 0
SMALL
GASTEIGER

@<TRIPOS>ATOM
      1  N        -24.0370  -27.1120   -5.0020 N.3     9  SER9       -0.1202
      2  CA       -23.6610  -25.7620   -4.5120 C.3     9  SER9        0.2020
      3  C        -22.1670  -25.5150   -4.4930 C.2     9  SER9        0.2618
      4  O        -21.7040  -24.4400   -4.8750 O.2     9  SER9       -0.2717
      5  CB       -24.1860  -25.5980   -3.0820 C.3     9  SER9        0.2103
      6  OG       -23.8400  -24.3580   -2.5830 O.3     9  SER9       -0.2182
      7  N        -21.4240  -26.5000   -4.0010 N.am   10  TYR10      -0.1975
      8  CA       -19.9540  -26.4850   -4.0740 C.3    10  TYR10       0.1639
      9  C        -19.4290  -26.3390   -5.5250 C.2    10  TYR10       0.2290
     10  O        -18.4570  -25.6440   -5.7660 O.2    10  TYR10      -0.2864
     11  CB       -19.3670  -27.7440   -3.4500 C.3    10  TYR10       0.0560
     12  CG       -17.8730  -27.6680   -3.1210 C.ar   10  TYR10      -0.0198
     13  CD1      -17.3550  -26.6620   -2.2930 C.ar   10  TYR10      -0.0009
     14  CD2      -17.0100  -28.6430   -3.5530 C.ar   10  TYR10      -0.0009
     15  CE1      -16.0130  -26.6020   -1.9870 C.ar   10  TYR10       0.0417
     16  CE2      -15.6780  -28.5950   -3.2360 C.ar   10  TYR10       0.0417
     17  CZ       -15.1790  -27.5660   -2.4660 C.ar   10  TYR10       0.1957
     18  OH       -13.8420  -27.5490   -2.1500 O.3    10  TYR10      -0.2866
     19  N        -21.3260  -22.6710   -7.0510 N.3    13  GLY13      -0.1210
     20  CA       -20.8730  -21.4720   -6.3210 C.3    13  GLY13       0.1956
     21  C        -19.3600  -21.2920   -6.1620 C.2    13  GLY13       0.2611
     22  O        -18.9110  -20.2690   -5.5990 O.2    13  GLY13      -0.2717
     23  N        -18.5600  -22.2550   -6.6410 N.am   14  TYR14      -0.1976
     24  CA       -17.1480  -22.2280   -6.3230 C.3    14  TYR14       0.1639
     25  C        -16.2890  -22.9100   -7.3590 C.2    14  TYR14       0.2290
     26  O        -15.5930  -22.2150   -8.0900 O.2    14  TYR14      -0.2864
     27  CB       -16.9380  -22.8150   -4.9350 C.3    14  TYR14       0.0560
     28  CG       -15.5280  -22.7570   -4.4340 C.ar   14  TYR14      -0.0198
     29  CD1      -14.8900  -21.5370   -4.2870 C.ar   14  TYR14      -0.0009
     30  CD2      -14.8580  -23.9180   -4.0300 C.ar   14  TYR14      -0.0009
     31  CE1      -13.6010  -21.4660   -3.7990 C.ar   14  TYR14       0.0417
     32  CE2      -13.5520  -23.8670   -3.5630 C.ar   14  TYR14       0.0417
     33  CZ       -12.9190  -22.6300   -3.4440 C.ar   14  TYR14       0.1957
     34  OH       -11.6390  -22.5190   -2.9460 O.3    14  TYR14      -0.2866
     35  N        -20.6660  -10.5840   -7.3310 N.3    71  ARG71      -0.1245
     36  CA       -21.4170  -11.8330   -7.1360 C.3    71  ARG71       0.1563
     37  C        -22.6380  -11.4950   -6.3060 C.2    71  ARG71       0.2260
     38  O        -22.4940  -11.0700   -5.1650 O.2    71  ARG71      -0.2867
     39  CB       -20.5600  -12.8770   -6.3940 C.3    71  ARG71       0.0307
     40  CG       -19.2630  -13.3170   -7.0710 C.3    71  ARG71       0.0489
     41  CD       -19.4510  -14.4800   -8.0490 C.3    71  ARG71       0.2205
     42  NE       -19.9960  -15.6550   -7.3490 N.pl3  71  ARG71      -0.0865
     43  CZ       -21.2410  -16.1150   -7.4140 C.cat  71  ARG71       0.5346
     44  NH1      -22.1210  -15.5760   -8.2420 N.pl3  71  ARG71       0.1354
     45  NH2      -21.5960  -17.1650   -6.6590 N.pl3  71  ARG71       0.1354
     46  N        -16.3050   -9.8070   -4.5090 N.3    77  ARG77      -0.1231
     47  CA       -16.2080  -11.0070   -3.7200 C.3    77  ARG77       0.1694
     48  C        -14.8760  -11.7020   -4.0140 C.2    77  ARG77       0.2592
     49  O        -14.4650  -11.8340   -5.1660 O.2    77  ARG77      -0.2718
     50  CB       -17.3610  -11.9520   -4.0140 C.3    77  ARG77       0.0321
     51  CG       -17.3920  -13.1430   -3.0790 C.3    77  ARG77       0.0489
     52  CD       -18.7560  -13.8140   -3.0180 C.3    77  ARG77       0.2205
     53  NE       -18.6520  -15.1380   -2.3990 N.pl3  77  ARG77      -0.0865
     54  CZ       -19.6320  -16.0290   -2.3270 C.cat  77  ARG77       0.5346
     55  NH1      -20.8380  -15.7600   -2.8140 N.pl3  77  ARG77       0.1354
     56  NH2      -19.4040  -17.2120   -1.7770 N.pl3  77  ARG77       0.1354
     57  N        -14.2210  -12.1560   -2.9540 N.am   78  VAL78      -0.1966
     58  CA       -12.8680  -12.6270   -3.0400 C.3    78  VAL78       0.1727
     59  C        -12.8290  -14.1440   -2.8580 C.2    78  VAL78       0.2616
     60  O        -13.3170  -14.6840   -1.8500 O.2    78  VAL78      -0.2715
     61  CB       -12.0110  -11.9330   -1.9550 C.3    78  VAL78       0.0290
     62  CG1      -10.5210  -12.2460   -2.1290 C.3    78  VAL78       0.0023
     63  CG2      -12.2360  -10.4230   -1.9850 C.3    78  VAL78       0.0023
     64  N        -12.2270  -14.8060   -3.8430 N.am   79  TYR79      -0.1960
     65  CA       -11.8310  -16.2160   -3.7940 C.3    79  TYR79       0.1771
     66  C        -10.2990  -16.2750   -3.6030 C.2    79  TYR79       0.2620
     67  O         -9.5730  -16.0340   -4.5710 O.2    79  TYR79      -0.2715
     68  CB       -12.2600  -16.8720   -5.1300 C.3    79  TYR79       0.0574
     69  CG       -13.7650  -16.7460   -5.3200 C.ar   79  TYR79      -0.0198
     70  CD1      -14.6520  -17.6660   -4.7400 C.ar   79  TYR79      -0.0009
     71  CD2      -14.3140  -15.6320   -5.9660 C.ar   79  TYR79      -0.0009
     72  CE1      -16.0260  -17.4920   -4.8320 C.ar   79  TYR79       0.0417
     73  CE2      -15.6870  -15.4600   -6.0750 C.ar   79  TYR79       0.0417
     74  CZ       -16.5460  -16.3880   -5.5170 C.ar   79  TYR79       0.1957
     75  OH       -17.9190  -16.1970   -5.6400 O.3    79  TYR79      -0.2866
     76  N         -9.8010  -16.5220   -2.3760 N.am   80  SER80      -0.1950
     77  CA        -8.3730  -16.8990   -2.1740 C.3    80  SER80       0.1924
     78  C         -8.1430  -18.3630   -1.8170 C.2    80  SER80       0.2314
     79  O         -8.9900  -19.0130   -1.2150 O.2    80  SER80      -0.2863
     80  CB        -7.6330  -16.0330   -1.1460 C.3    80  SER80       0.2116
     81  OG        -8.3980  -15.8900    0.0060 O.3    80  SER80      -0.2180
     82  N         -7.0510  -27.6860    0.3290 N.3    99  GLU99      -0.1245
     83  CA        -8.1390  -27.2650    1.2210 C.3    99  GLU99       0.1567
     84  C         -9.1420  -28.3610    1.4880 C.2    99  GLU99       0.2260
     85  O         -9.1930  -29.3660    0.7820 O.2    99  GLU99      -0.2867
     86  CB        -8.8670  -26.0510    0.6560 C.3    99  GLU99       0.0388
     87  CG        -9.6260  -26.2700   -0.6340 C.3    99  GLU99       0.1160
     88  CD        -9.9450  -24.9410   -1.3180 C.2    99  GLU99       0.3649
     89  OE1       -8.9810  -24.1420   -1.5390 O.co2  99  GLU99      -0.2457
     90  OE2      -11.1520  -24.6730   -1.6030 O.co2  99  GLU99      -0.2457
     91  N        -15.5090  -27.3790    2.4610 N.3   102  THR102     -0.1204
     92  CA       -16.2120  -26.6750    3.5200 C.3   102  THR102      0.1979
     93  C        -17.6270  -27.1470    3.7910 C.2   102  THR102      0.2459
     94  O        -18.0460  -27.1510    4.9240 O.2   102  THR102     -0.2732
     95  CB       -16.3200  -25.1800    3.1590 C.3   102  THR102      0.1783
     96  OG1      -15.0450  -24.7110    2.7370 O.3   102  THR102     -0.2211
     97  CG2      -16.7790  -24.3310    4.3570 C.3   102  THR102      0.0376
     98  N        -18.3950  -27.5100    2.7480 N.am  103  PRO103     -0.2728
     99  CA       -19.7510  -27.9540    3.0240 C.3   103  PRO103      0.1401
    100  C        -19.8520  -29.1650    3.9890 C.2   103  PRO103      0.2269
    101  O        -20.9380  -29.4440    4.5290 O.2   103  PRO103     -0.2865
    102  CB       -20.2700  -28.3170    1.6380 C.3   103  PRO103      0.0296
    103  CG       -19.4790  -27.4830    0.7040 C.3   103  PRO103      0.0237
    104  CD       -18.1240  -27.4910    1.3050 C.3   103  PRO103      0.0939
@<TRIPOS>BOND
     1    44    43    1
     2    26    25    2
     3    41    42    1
     4    41    40    1
     5    43    42    2
     6    43    45    1
     7    25    24    1
     8    35    36    1
     9    36    39    1
    10    36    37    1
    11    40    39    1
    12    19    20    1
    13    23    24    1
    14    23    21   am
    15    24    27    1
    16    20    21    1
    17    37    38    2
    18    21    22    2
    19    73    71   ar
    20    73    74   ar
    21    71    69   ar
    22    10     9    2
    23    75    74    1
    24     9     8    1
    25    74    72   ar
    26    69    68    1
    27    69    70   ar
    28    49    48    2
    29    68    65    1
    30     1     2    1
    31    27    28    1
    32     4     3    2
    33    72    70   ar
    34    67    66    2
    35     2     3    1
    36     2     5    1
    37    46    47    1
    38     3     7   am
    39    28    29   ar
    40    28    30   ar
    41    29    31   ar
    42     8     7    1
    43     8    11    1
    44    30    32   ar
    45    50    47    1
    46    50    51    1
    47    48    47    1
    48    48    57   am
    49    64    65    1
    50    64    59   am
    51    31    33   ar
    52    65    66    1
    53    66    76   am
    54    32    33   ar
    55    14    16   ar
    56    14    12   ar
    57    11    12    1
    58    33    34    1
    59    16    17   ar
    60    12    13   ar
    61     5     6    1
    62    51    52    1
    63    58    57    1
    64    58    59    1
    65    58    61    1
    66    52    53    1
    67    59    60    2
    68    55    54    1
    69    17    18    1
    70    17    15   ar
    71    53    54    2
    72    76    77    1
    73    54    56    1
    74    13    15   ar
    75    77    78    1
    76    77    80    1
    77    62    61    1
    78    63    61    1
    79    78    79    2
    80    90    88   ar
    81    89    88   ar
    82    88    87    1
    83    80    81    1
    84    87    86    1
    85    82    83    1
    86    86    83    1
    87   103   104    1
    88   103   102    1
    89    85    84    2
    90    83    84    1
    91   104    98    1
    92   102    99    1
    93    91    92    1
    94    96    95    1
    95    98    99    1
    96    98    93   am
    97    99   100    1
    98    95    92    1
    99    95    97    1
   100    92    93    1
   101    93    94    2
   102   100   101    2
