@<TRIPOS>MOLECULE
tmp/6cfgA01.pdb
 78 77 0 0 0
SMALL
GASTEIGER

@<TRIPOS>ATOM
      1  N         -4.5460  -40.2160   60.8070 N.3    11  HIS11      -0.1241
      2  CA        -5.1200  -38.9880   60.2540 C.3    11  HIS11       0.1621
      3  C         -6.4970  -39.2480   59.6500 C.2    11  HIS11       0.2264
      4  O         -6.7350  -40.2940   59.0380 O.2    11  HIS11      -0.2867
      5  CB        -4.1590  -38.4390   59.1890 C.3    11  HIS11       0.0745
      6  CG        -4.6510  -37.2280   58.4600 C.ar   11  HIS11       0.0817
      7  ND1       -4.6060  -35.9640   59.0010 N.ar   11  HIS11      -0.2268
      8  CD2       -5.1470  -37.0800   57.2070 C.ar   11  HIS11       0.1154
      9  CE1       -5.0790  -35.0900   58.1320 C.ar   11  HIS11       0.1986
     10  NE2       -5.4180  -35.7420   57.0340 N.ar   11  HIS11      -0.2212
     11  N         -6.1080  -39.2690   50.8940 N.3    31  HIS31      -0.1226
     12  CA        -5.3340  -38.6860   49.8090 C.3    31  HIS31       0.1752
     13  C         -5.3100  -39.6610   48.6420 C.2    31  HIS31       0.2596
     14  O         -5.2370  -40.8760   48.8420 O.2    31  HIS31      -0.2718
     15  CB        -3.9090  -38.3430   50.2550 C.3    31  HIS31       0.0759
     16  CG        -3.8520  -37.3480   51.3740 C.ar   31  HIS31       0.0818
     17  ND1       -3.8780  -37.7170   52.7070 N.ar   31  HIS31      -0.2268
     18  CD2       -3.8020  -35.9930   51.3600 C.ar   31  HIS31       0.1154
     19  CE1       -3.8220  -36.6330   53.4610 C.ar   31  HIS31       0.1986
     20  NE2       -3.7850  -35.5730   52.6680 N.ar   31  HIS31      -0.2212
     21  N         -5.3830  -39.1270   47.4260 N.am   32  ALA32      -0.1966
     22  CA        -5.3190  -39.9550   46.2210 C.3    32  ALA32       0.1728
     23  C         -4.6800  -39.1620   45.0930 C.2    32  ALA32       0.2616
     24  O         -4.6010  -37.9310   45.1330 O.2    32  ALA32      -0.2715
     25  CB        -6.7070  -40.4530   45.7820 C.3    32  ALA32       0.0334
     26  N         -4.2380  -39.8900   44.0690 N.am   33  GLN33      -0.1963
     27  CA        -3.6150  -39.3180   42.8790 C.3    33  GLN33       0.1733
     28  C         -4.3270  -39.8770   41.6540 C.2    33  GLN33       0.2616
     29  O         -4.2120  -41.0710   41.3490 O.2    33  GLN33      -0.2715
     30  CB        -2.1160  -39.6290   42.8360 C.3    33  GLN33       0.0408
     31  CG        -1.3720  -38.9470   41.6950 C.3    33  GLN33       0.0908
     32  CD        -1.3750  -37.4410   41.8250 C.2    33  GLN33       0.2608
     33  OE1       -0.7280  -36.8860   42.7120 O.2    33  GLN33      -0.2717
     34  NE2       -2.1160  -36.7710   40.9510 N.am   33  GLN33      -0.0878
     35  N         -5.0980  -39.0240   40.9830 N.am   34  ASP34      -0.1957
     36  CA        -5.6750  -39.3780   39.6860 C.3    34  ASP34       0.1840
     37  C         -4.5400  -39.4190   38.6630 C.2    34  ASP34       0.2621
     38  O         -3.7090  -38.5050   38.6140 O.2    34  ASP34      -0.2715
     39  CB        -6.7370  -38.3470   39.2990 C.3    34  ASP34       0.1450
     40  CG        -7.4070  -38.6400   37.9510 C.2    34  ASP34       0.3671
     41  OD1       -7.2010  -39.7260   37.3450 O.co2  34  ASP34      -0.2456
     42  OD2       -8.1930  -37.7750   37.5090 O.co2  34  ASP34      -0.2456
     43  N         -4.4380  -40.5190   37.9170 N.am   35  ILE35      -0.1977
     44  CA        -3.3730  -40.6740   36.9330 C.3    35  ILE35       0.1596
     45  C         -3.9130  -40.8100   35.5080 C.2    35  ILE35       0.2287
     46  O         -3.1790  -41.2130   34.6020 O.2    35  ILE35      -0.2864
     47  CB        -2.4490  -41.8580   37.2900 C.3    35  ILE35       0.0276
     48  CG1       -3.2420  -43.1410   37.4500 C.3    35  ILE35       0.0022
     49  CG2       -1.7520  -41.6320   38.6250 C.3    35  ILE35       0.0022
     50  CD1       -2.3260  -44.3540   37.5300 C.3    35  ILE35       0.0001
     51  N          0.2290  -33.6320   32.5440 N.3   291  SER291     -0.1202
     52  CA         1.3340  -34.2660   33.2510 C.3   291  SER291      0.2020
     53  C          1.0150  -35.6840   33.7180 C.2   291  SER291      0.2619
     54  O          1.9180  -36.3940   34.1680 O.2   291  SER291     -0.2717
     55  CB         1.7370  -33.4200   34.4610 C.3   291  SER291      0.2103
     56  OG         0.5940  -33.0530   35.2140 O.3   291  SER291     -0.2182
     57  N         -0.2340  -36.1130   33.6060 N.am  292  MET292     -0.1965
     58  CA        -0.6240  -37.4460   34.0210 C.3   292  MET292      0.1721
     59  C         -0.0860  -38.5110   33.0660 C.2   292  MET292      0.2458
     60  O          0.0160  -38.2870   31.8600 O.2   292  MET292     -0.2730
     61  CB        -2.1380  -37.5300   34.1140 C.3   292  MET292      0.0427
     62  CG        -2.6630  -36.7530   35.3030 C.3   292  MET292      0.0599
     63  SD        -4.4460  -36.7370   35.3370 S.3   292  MET292     -0.1393
     64  CE        -4.7540  -35.7600   36.7960 C.3   292  MET292      0.0692
     65  N          0.2590  -39.6930   33.5880 N.am  293  PRO293     -0.2727
     66  CA         0.9390  -40.7050   32.7550 C.3   293  PRO293      0.1402
     67  C          0.0420  -41.4430   31.7980 C.2   293  PRO293      0.2269
     68  O          0.5670  -42.1430   30.9220 O.2   293  PRO293     -0.2865
     69  CB         1.5020  -41.6900   33.8060 C.3   293  PRO293      0.0296
     70  CG         0.5100  -41.5880   34.9330 C.3   293  PRO293      0.0237
     71  CD         0.1890  -40.1100   35.0060 C.3   293  PRO293      0.0939
     72  N         -3.0420  -42.7510   47.8400 N.3   318  THR318     -0.1218
     73  CA        -1.7630  -42.4560   48.4600 C.3   318  THR318      0.1862
     74  C         -1.8880  -42.3570   49.9730 C.2   318  THR318      0.2287
     75  O         -0.9890  -42.7960   50.6960 O.2   318  THR318     -0.2866
     76  CB        -1.1680  -41.1700   47.8680 C.3   318  THR318      0.1770
     77  OG1       -2.0870  -40.0970   48.0770 O.3   318  THR318     -0.2211
     78  CG2       -0.8650  -41.3520   46.3320 C.3   318  THR318      0.0375
@<TRIPOS>BOND
     1    68    67    2
     2    67    66    1
     3    60    59    2
     4    51    52    1
     5    66    65    1
     6    66    69    1
     7    59    65   am
     8    59    58    1
     9    52    53    1
    10    52    55    1
    11    65    71    1
    12    57    53   am
    13    57    58    1
    14    53    54    2
    15    69    70    1
    16    58    61    1
    17    61    62    1
    18    55    56    1
    19    46    45    2
    20    70    71    1
    21    62    63    1
    22    63    64    1
    23    45    44    1
    24    44    47    1
    25    44    43    1
    26    47    48    1
    27    47    49    1
    28    41    40   ar
    29    48    50    1
    30    42    40   ar
    31    43    37   am
    32    40    39    1
    33    38    37    2
    34    37    36    1
    35    39    36    1
    36    36    35    1
    37    34    32   am
    38    35    28   am
    39    29    28    2
    40    28    27    1
    41    31    32    1
    42    31    30    1
    43    32    33    2
    44    30    27    1
    45    27    26    1
    46    26    23   am
    47    23    24    2
    48    23    22    1
    49    25    22    1
    50    22    21    1
    51    78    76    1
    52    21    13   am
    53    72    73    1
    54    76    77    1
    55    76    73    1
    56    73    74    1
    57    13    14    2
    58    13    12    1
    59    12    15    1
    60    12    11    1
    61    74    75    2
    62    15    16    1
    63    18    16   ar
    64    18    20   ar
    65    16    17   ar
    66    20    19   ar
    67    17    19   ar
    68    10     8   ar
    69    10     9   ar
    70     8     6   ar
    71     9     7   ar
    72     6     7   ar
    73     6     5    1
    74     4     3    2
    75     5     2    1
    76     3     2    1
    77     2     1    1
