@<TRIPOS>MOLECULE
tmp/6cfgB00.pdb
 111 106 0 0 0
SMALL
GASTEIGER

@<TRIPOS>ATOM
      1  N         -5.2040  -34.1420   64.0230 N.3    17  MET17      -0.1230
      2  CA        -3.7870  -34.3240   63.6940 C.3    17  MET17       0.1702
      3  C         -3.5950  -34.0280   62.2010 C.2    17  MET17       0.2592
      4  O         -3.8330  -34.8940   61.3520 O.2    17  MET17      -0.2718
      5  CB        -3.3180  -35.7280   64.0540 C.3    17  MET17       0.0401
      6  CG        -1.8390  -35.9300   63.8530 C.3    17  MET17       0.0596
      7  SD        -1.3090  -37.5850   64.2960 S.3    17  MET17      -0.1393
      8  CE        -2.3600  -38.5900   63.2480 C.3    17  MET17       0.0692
      9  N         -3.1340  -32.8090   61.8880 N.am   18  VAL18      -0.1966
     10  CA        -3.1260  -32.2970   60.5150 C.3    18  VAL18       0.1727
     11  C         -1.7630  -32.3920   59.8260 C.2    18  VAL18       0.2616
     12  O         -1.6990  -32.2190   58.5980 O.2    18  VAL18      -0.2715
     13  CB        -3.6180  -30.8300   60.4620 C.3    18  VAL18       0.0290
     14  CG1       -4.2030  -30.4980   59.0990 C.3    18  VAL18       0.0023
     15  CG2       -4.6440  -30.5800   61.5140 C.3    18  VAL18       0.0023
     16  N         -0.6790  -32.6770   60.5530 N.am   19  ASP19      -0.1957
     17  CA         0.6660  -32.6110   59.9830 C.3    19  ASP19       0.1840
     18  C          1.3070  -33.9820   59.7590 C.2    19  ASP19       0.2623
     19  O          2.5360  -34.0930   59.7280 O.2    19  ASP19      -0.2715
     20  CB         1.5720  -31.7650   60.8700 C.3    19  ASP19       0.1450
     21  CG         1.6300  -32.2800   62.2940 C.2    19  ASP19       0.3671
     22  OD1        0.7060  -33.0090   62.7130 O.co2  19  ASP19      -0.2456
     23  OD2        2.5960  -31.9400   63.0060 O.co2  19  ASP19      -0.2456
     24  N          0.5110  -35.0330   59.6280 N.am   20  GLY20      -0.1940
     25  CA         1.0790  -36.3520   59.4700 C.3    20  GLY20       0.2014
     26  C         -0.0120  -37.3870   59.3750 C.2    20  GLY20       0.2638
     27  O         -1.1760  -37.1220   59.6920 O.2    20  GLY20      -0.2714
     28  N          0.3930  -38.5780   58.9210 N.am   21  TRP21      -0.1973
     29  CA        -0.5270  -39.7000   58.7560 C.3    21  TRP21       0.1640
     30  C         -0.7330  -40.4760   60.0570 C.2    21  TRP21       0.2290
     31  O         -1.8250  -41.0000   60.2980 O.2    21  TRP21      -0.2864
     32  CB         0.0040  -40.6430   57.6900 C.3    21  TRP21       0.0576
     33  CG        -0.4260  -40.3070   56.2710 C.ar   21  TRP21       0.0006
     34  CD1       -1.5710  -39.6680   55.8800 C.ar   21  TRP21       0.0946
     35  CD2        0.3000  -40.5910   55.0730 C.ar   21  TRP21       0.0152
     36  NE1       -1.6170  -39.5740   54.5090 N.ar   21  TRP21      -0.2442
     37  CE2       -0.4790  -40.1230   53.9880 C.ar   21  TRP21       0.0810
     38  CE3        1.5240  -41.1990   54.8120 C.ar   21  TRP21       0.0012
     39  CZ2       -0.0700  -40.2380   52.6500 C.ar   21  TRP21       0.0191
     40  CZ3        1.9270  -41.3230   53.4610 C.ar   21  TRP21       0.0001
     41  CH2        1.1230  -40.8360   52.4080 C.ar   21  TRP21       0.0015
     42  N          7.0750  -38.4850   62.9670 N.3    38  LYS38      -0.1245
     43  CA         7.6640  -38.0700   61.7000 C.3    38  LYS38       0.1561
     44  C          8.3790  -39.2210   60.9960 C.2    38  LYS38       0.2260
     45  O          8.3460  -39.2990   59.7710 O.2    38  LYS38      -0.2867
     46  CB         8.6210  -36.9040   61.9300 C.3    38  LYS38       0.0271
     47  CG         7.9340  -35.5860   62.2600 C.3    38  LYS38       0.0035
     48  CD         8.9470  -34.4760   62.5400 C.3    38  LYS38       0.0206
     49  CE         8.2690  -33.1930   63.0180 C.3    38  LYS38       0.1093
     50  NZ         7.2910  -32.6690   62.0260 N.3    38  LYS38      -0.1314
     51  N          5.7850  -41.6670   59.4470 N.3    41  THR41      -0.1203
     52  CA         5.1480  -40.9280   58.3570 C.3    41  THR41       0.1994
     53  C          6.0840  -40.8060   57.1550 C.2    41  THR41       0.2617
     54  O          5.6630  -40.9790   56.0040 O.2    41  THR41      -0.2717
     55  CB         4.7030  -39.5430   58.8320 C.3    41  THR41       0.1784
     56  OG1        3.7550  -39.6830   59.9020 O.3    41  THR41      -0.2211
     57  CG2        4.0350  -38.7810   57.6750 C.3    41  THR41       0.0376
     58  N          7.3630  -40.5300   57.4070 N.am   42  GLN42      -0.1979
     59  CA         8.3040  -40.3200   56.3210 C.3    42  GLN42       0.1601
     60  C          8.5890  -41.6280   55.5790 C.2    42  GLN42       0.2287
     61  O          8.5910  -41.6510   54.3360 O.2    42  GLN42      -0.2864
     62  CB         9.5830  -39.6700   56.8640 C.3    42  GLN42       0.0394
     63  CG        10.5000  -39.0860   55.7630 C.3    42  GLN42       0.0908
     64  CD         9.7580  -38.2150   54.7450 C.2    42  GLN42       0.2608
     65  OE1        9.1690  -37.1930   55.0940 O.2    42  GLN42      -0.2717
     66  NE2        9.8020  -38.6170   53.4710 N.am   42  GLN42      -0.0878
     67  N          5.7190  -42.0830   53.3040 N.3    45  ILE45      -0.1245
     68  CA         5.7780  -41.1970   52.1410 C.3    45  ILE45       0.1561
     69  C          6.7770  -41.7280   51.1110 C.2    45  ILE45       0.2260
     70  O          6.4850  -41.7870   49.9060 O.2    45  ILE45      -0.2867
     71  CB         6.1230  -39.7530   52.5750 C.3    45  ILE45       0.0252
     72  CG1        4.9810  -39.1370   53.3750 C.3    45  ILE45       0.0019
     73  CG2        6.3880  -38.8720   51.3290 C.3    45  ILE45       0.0019
     74  CD1        5.4060  -37.8370   54.0620 C.3    45  ILE45       0.0001
     75  N          5.2230  -44.8860   49.3570 N.3    48  VAL48      -0.1231
     76  CA         4.1610  -44.6390   48.3930 C.3    48  VAL48       0.1692
     77  C          4.7100  -43.8950   47.1740 C.2    48  VAL48       0.2592
     78  O          4.2660  -44.1240   46.0420 O.2    48  VAL48      -0.2718
     79  CB         3.0130  -43.8670   49.0750 C.3    48  VAL48       0.0266
     80  CG1        1.9680  -43.4350   48.0500 C.3    48  VAL48       0.0020
     81  CG2        2.3440  -44.7440   50.1440 C.3    48  VAL48       0.0020
     82  N          5.6590  -42.9760   47.3920 N.am   49  THR49      -0.1953
     83  CA         6.3150  -42.2840   46.2920 C.3    49  THR49       0.1897
     84  C          7.0100  -43.2680   45.3590 C.2    49  THR49       0.2313
     85  O          6.8330  -43.2240   44.1250 O.2    49  THR49      -0.2863
     86  CB         7.3120  -41.2960   46.8640 C.3    49  THR49       0.1794
     87  OG1        6.6160  -40.4060   47.7300 O.3    49  THR49      -0.2208
     88  CG2        7.9620  -40.4990   45.7830 C.3    49  THR49       0.0378
     89  N          4.3430  -45.1310   43.3250 N.3    52  VAL52      -0.1231
     90  CA         3.7170  -44.4150   42.2200 C.3    52  VAL52       0.1692
     91  C          4.6990  -44.3020   41.0590 C.2    52  VAL52       0.2592
     92  O          4.3780  -44.6390   39.9140 O.2    52  VAL52      -0.2718
     93  CB         3.2210  -43.0310   42.6780 C.3    52  VAL52       0.0266
     94  CG1        2.5470  -42.3010   41.5060 C.3    52  VAL52       0.0020
     95  CG2        2.2580  -43.1800   43.8420 C.3    52  VAL52       0.0020
     96  N          5.9370  -43.8990   41.3580 N.am   53  ASN53      -0.1974
     97  CA         6.9460  -43.8410   40.3140 C.3    53  ASN53       0.1688
     98  C          7.1710  -45.2060   39.6690 C.2    53  ASN53       0.2292
     99  O          7.3170  -45.2950   38.4510 O.2    53  ASN53      -0.2864
    100  CB         8.2350  -43.2730   40.8840 C.3    53  ASN53       0.1181
    101  CG         8.1310  -41.7920   41.1370 C.2    53  ASN53       0.2629
    102  OD1        7.4270  -41.0900   40.4190 O.2    53  ASN53      -0.2716
    103  ND2        8.8060  -41.3100   42.1660 N.am   53  ASN53      -0.0877
    104  N          4.2990  -45.8040   37.1840 N.3    56  ILE56      -0.1245
    105  CA         4.4770  -45.0040   35.9750 C.3    56  ILE56       0.1561
    106  C          5.6340  -45.5360   35.1320 C.2    56  ILE56       0.2260
    107  O          5.5200  -45.6600   33.9090 O.2    56  ILE56      -0.2867
    108  CB         4.6890  -43.5310   36.3630 C.3    56  ILE56       0.0252
    109  CG1        3.4260  -42.9680   37.0210 C.3    56  ILE56       0.0019
    110  CG2        5.1290  -42.7120   35.1570 C.3    56  ILE56       0.0019
    111  CD1        3.6380  -41.5700   37.6200 C.3    56  ILE56       0.0001
@<TRIPOS>BOND
     1   107   106    2
     2   106   105    1
     3   110   108    1
     4   105   108    1
     5   105   104    1
     6   108   109    1
     7   109   111    1
     8    99    98    2
     9    98    97    1
    10    92    91    2
    11    97   100    1
    12    97    96    1
    13   102   101    2
    14   100   101    1
    15    91    96   am
    16    91    90    1
    17   101   103   am
    18    94    93    1
    19    90    93    1
    20    90    89    1
    21    93    95    1
    22    85    84    2
    23    84    83    1
    24    88    86    1
    25    78    77    2
    26    83    86    1
    27    83    82    1
    28    86    87    1
    29    77    82   am
    30    77    76    1
    31    80    79    1
    32    76    79    1
    33    76    75    1
    34    79    81    1
    35    70    69    2
    36    69    68    1
    37    73    71    1
    38    68    71    1
    39    68    67    1
    40    41    39   ar
    41    41    40   ar
    42    71    72    1
    43    39    37   ar
    44    72    74    1
    45    40    38   ar
    46    66    64   am
    47    37    36   ar
    48    37    35   ar
    49    61    60    2
    50    36    34   ar
    51    64    65    2
    52    64    63    1
    53    38    35   ar
    54    35    33   ar
    55    60    59    1
    56    63    62    1
    57    34    33   ar
    58    54    53    2
    59    33    32    1
    60    59    62    1
    61    59    58    1
    62    53    58   am
    63    53    52    1
    64    57    55    1
    65    32    29    1
    66    52    55    1
    67    52    51    1
    68    12    11    2
    69    29    28    1
    70    29    30    1
    71    55    56    1
    72    28    26   am
    73    14    13    1
    74    26    25    1
    75    26    27    2
    76    25    24    1
    77    24    18   am
    78    19    18    2
    79    18    17    1
    80    45    44    2
    81    11    10    1
    82    11    16   am
    83    17    16    1
    84    17    20    1
    85    30    31    2
    86    13    10    1
    87    13    15    1
    88    10     9    1
    89    20    21    1
    90    44    43    1
    91     4     3    2
    92    43    46    1
    93    43    42    1
    94     9     3   am
    95    46    47    1
    96    50    49    1
    97     3     2    1
    98    47    48    1
    99    21    22   ar
   100    21    23   ar
   101    48    49    1
   102     8     7    1
   103     2     1    1
   104     2     5    1
   105     6     5    1
   106     6     7    1
