@<TRIPOS>MOLECULE
tmp/6cfoA00.pdb
 187 178 0 0 0
SMALL
GASTEIGER

@<TRIPOS>ATOM
      1  N        -14.8000   -0.6970  -63.4000 N.3    62  PHE62      -0.1241
      2  CA       -13.6020   -0.4920  -64.1890 C.3    62  PHE62       0.1605
      3  C        -13.4210   -1.5990  -65.2070 C.2    62  PHE62       0.2264
      4  O        -13.8090   -2.7440  -64.9790 O.2    62  PHE62      -0.2867
      5  CB       -12.3720   -0.3680  -63.2940 C.3    62  PHE62       0.0534
      6  CG       -12.2410    0.9750  -62.6470 C.ar   62  PHE62      -0.0203
      7  CD1      -12.4020    2.1300  -63.3930 C.ar   62  PHE62      -0.0042
      8  CD2      -11.9740    1.0860  -61.2950 C.ar   62  PHE62      -0.0042
      9  CE1      -12.2900    3.3760  -62.8030 C.ar   62  PHE62      -0.0003
     10  CE2      -11.8620    2.3300  -60.6950 C.ar   62  PHE62      -0.0003
     11  CZ       -12.0200    3.4760  -61.4480 C.ar   62  PHE62      -0.0000
     12  N        -10.2420   -2.0610  -68.0760 N.3    64  HIS64      -0.1241
     13  CA        -9.1160   -1.5860  -68.8690 C.3    64  HIS64       0.1621
     14  C         -8.7200   -2.5980  -69.9470 C.2    64  HIS64       0.2264
     15  O         -8.4130   -3.7540  -69.6440 O.2    64  HIS64      -0.2867
     16  CB        -7.9210   -1.2780  -67.9620 C.3    64  HIS64       0.0745
     17  CG        -8.2560   -0.3970  -66.7990 C.ar   64  HIS64       0.0817
     18  ND1       -8.8120   -0.8830  -65.6340 N.ar   64  HIS64      -0.2268
     19  CD2       -8.1090    0.9370  -66.6180 C.ar   64  HIS64       0.1154
     20  CE1       -8.9950    0.1160  -64.7880 C.ar   64  HIS64       0.1986
     21  NE2       -8.5770    1.2310  -65.3600 N.ar   64  HIS64      -0.2212
     22  N         -1.4070   -4.0650  -77.4420 N.3    69  GLN69      -0.1245
     23  CA        -0.2500   -4.5020  -76.6810 C.3    69  GLN69       0.1566
     24  C         -0.1970   -6.0200  -76.6240 C.2    69  GLN69       0.2260
     25  O          0.4340   -6.5790  -75.7320 O.2    69  GLN69      -0.2867
     26  CB        -0.2960   -3.9300  -75.2630 C.3    69  GLN69       0.0367
     27  CG        -0.7630   -2.4760  -75.1900 C.3    69  GLN69       0.0905
     28  CD        -0.6340   -1.8560  -73.8040 C.2    69  GLN69       0.2608
     29  OE1       -0.7620   -0.6420  -73.6490 O.2    69  GLN69      -0.2717
     30  NE2       -0.3560   -2.6810  -72.8000 N.am   69  GLN69      -0.0878
     31  N         -3.6160   -3.2680  -63.4790 N.3    90  TYR90      -0.1227
     32  CA        -5.0370   -3.4840  -63.7740 C.3    90  TYR90       0.1736
     33  C         -5.3530   -3.8520  -65.2460 C.2    90  TYR90       0.2595
     34  O         -6.4440   -4.3470  -65.5520 O.2    90  TYR90      -0.2718
     35  CB        -5.7890   -2.2030  -63.4040 C.3    90  TYR90       0.0548
     36  CG        -5.0830   -0.9990  -63.9680 C.ar   90  TYR90      -0.0200
     37  CD1       -5.3190   -0.5860  -65.2700 C.ar   90  TYR90      -0.0009
     38  CD2       -4.1280   -0.3140  -63.2270 C.ar   90  TYR90      -0.0009
     39  CE1       -4.6550    0.4900  -65.8070 C.ar   90  TYR90       0.0417
     40  CE2       -3.4530    0.7650  -63.7600 C.ar   90  TYR90       0.0417
     41  CZ        -3.7230    1.1610  -65.0510 C.ar   90  TYR90       0.1957
     42  OH        -3.0660    2.2310  -65.5970 O.3    90  TYR90      -0.2866
     43  N         -4.4210   -3.5900  -66.1580 N.am   91  ARG91      -0.1980
     44  CA        -4.6460   -3.8760  -67.5770 C.3    91  ARG91       0.1597
     45  C         -4.1950   -5.2970  -67.9340 C.2    91  ARG91       0.2287
     46  O         -3.3480   -5.4870  -68.8140 O.2    91  ARG91      -0.2864
     47  CB        -3.8970   -2.8490  -68.4360 C.3    91  ARG91       0.0334
     48  CG        -4.5070   -2.5850  -69.7960 C.3    91  ARG91       0.0492
     49  CD        -3.8020   -1.4260  -70.5070 C.3    91  ARG91       0.2205
     50  NE        -4.0350   -0.1260  -69.8690 N.pl3  91  ARG91      -0.0865
     51  CZ        -5.1210    0.6220  -70.0630 C.cat  91  ARG91       0.5346
     52  NH1       -6.0880    0.2020  -70.8690 N.pl3  91  ARG91       0.1354
     53  NH2       -5.2520    1.7900  -69.4500 N.pl3  91  ARG91       0.1354
     54  N         -9.9390   -5.7560  -62.4960 N.3   125  MET125     -0.1245
     55  CA        -8.6120   -5.4340  -62.0010 C.3   125  MET125      0.1570
     56  C         -7.9490   -6.5360  -61.1840 C.2   125  MET125      0.2261
     57  O         -6.7220   -6.5860  -61.0850 O.2   125  MET125     -0.2867
     58  CB        -8.6710   -4.1420  -61.1830 C.3   125  MET125      0.0387
     59  CG        -9.1530   -2.9420  -61.9760 C.3   125  MET125      0.0595
     60  SD        -9.1220   -1.4210  -61.0210 S.3   125  MET125     -0.1393
     61  CE       -10.3360   -1.7960  -59.7610 C.3   125  MET125      0.0692
     62  N         -4.6520   -2.6910  -58.4250 N.3   137  GLY137     -0.1210
     63  CA        -5.3060   -1.4360  -58.7400 C.3   137  GLY137      0.1956
     64  C         -4.5640   -0.2170  -58.2360 C.2   137  GLY137      0.2612
     65  O         -4.8380    0.9010  -58.6730 O.2   137  GLY137     -0.2717
     66  N         -3.6380   -0.4150  -57.3050 N.am  138  ILE138     -0.1965
     67  CA        -2.8770    0.7100  -56.7780 C.3   138  ILE138      0.1727
     68  C         -1.6020    0.8780  -57.5900 C.2   138  ILE138      0.2616
     69  O         -0.7320    0.0100  -57.5760 O.2   138  ILE138     -0.2715
     70  CB        -2.5400    0.5150  -55.2850 C.3   138  ILE138      0.0290
     71  CG1       -3.8050    0.1340  -54.5070 C.3   138  ILE138      0.0022
     72  CG2       -1.8810    1.7630  -54.7190 C.3   138  ILE138      0.0023
     73  CD1       -4.9360    1.1390  -54.6470 C.3   138  ILE138      0.0001
     74  N         -1.4980    2.0020  -58.2920 N.am  139  VAL139     -0.1977
     75  CA        -0.4000    2.2210  -59.2240 C.3   139  VAL139      0.1596
     76  C          0.9640    2.1980  -58.5420 C.2   139  VAL139      0.2287
     77  O          1.2330    2.9910  -57.6460 O.2   139  VAL139     -0.2864
     78  CB        -0.5650    3.5490  -59.9950 C.3   139  VAL139      0.0276
     79  CG1        0.6750    3.8440  -60.8170 C.3   139  VAL139      0.0022
     80  CG2       -1.8040    3.5120  -60.8890 C.3   139  VAL139      0.0022
     81  N          3.4980    0.5510  -65.8250 N.3   167  GLY167     -0.1210
     82  CA         3.3430    1.4270  -66.9710 C.3   167  GLY167      0.1956
     83  C          4.2250    2.6540  -66.9130 C.2   167  GLY167      0.2612
     84  O          4.9790    2.8540  -65.9610 O.2   167  GLY167     -0.2717
     85  N          4.1350    3.4790  -67.9470 N.am  168  ASP168     -0.1959
     86  CA         4.9150    4.7000  -67.9960 C.3   168  ASP168      0.1840
     87  C          4.4470    5.6630  -66.9150 C.2   168  ASP168      0.2623
     88  O          5.2510    6.3910  -66.3350 O.2   168  ASP168     -0.2715
     89  CB         4.8260    5.3510  -69.3780 C.3   168  ASP168      0.1450
     90  CG         3.3910    5.5490  -69.8370 C.2   168  ASP168      0.3671
     91  OD1        2.7580    4.5510  -70.2590 O.co2 168  ASP168     -0.2456
     92  OD2        2.8910    6.6950  -69.7460 O.co2 168  ASP168     -0.2456
     93  N          3.1450    5.6720  -66.6460 N.am  169  GLY169     -0.1940
     94  CA         2.6220    6.4900  -65.5680 C.3   169  GLY169      0.2014
     95  C          3.1420    6.0220  -64.2160 C.2   169  GLY169      0.2638
     96  O          3.5500    6.8280  -63.3780 O.2   169  GLY169     -0.2714
     97  N          3.1600    4.7070  -64.0210 N.am  170  ALA170     -0.1977
     98  CA         3.6570    4.1190  -62.7890 C.3   170  ALA170      0.1597
     99  C          5.1320    4.4060  -62.5730 C.2   170  ALA170      0.2287
    100  O          5.5930    4.4860  -61.4370 O.2   170  ALA170     -0.2864
    101  CB         3.4170    2.6270  -62.7900 C.3   170  ALA170      0.0319
    102  N          6.4110    6.3860  -59.6180 N.3   173  GLN173     -0.1245
    103  CA         6.1020    6.0150  -58.2460 C.3   173  GLN173      0.1566
    104  C          7.3910    5.7980  -57.4670 C.2   173  GLN173      0.2260
    105  O          8.2900    5.1050  -57.9360 O.2   173  GLN173     -0.2867
    106  CB         5.2530    4.7430  -58.2130 C.3   173  GLN173      0.0367
    107  CG         3.7540    4.9680  -58.3680 C.3   173  GLN173      0.0905
    108  CD         3.1030    5.5050  -57.0960 C.2   173  GLN173      0.2608
    109  OE1        3.3530    5.0010  -55.9960 O.2   173  GLN173     -0.2717
    110  NE2        2.2460    6.5210  -57.2460 N.am  173  GLN173     -0.0878
    111  N          8.0150    4.0430  -54.7390 N.3   175  GLN175     -0.1245
    112  CA         8.2590    2.6770  -54.2800 C.3   175  GLN175      0.1566
    113  C          9.0440    1.8750  -55.3160 C.2   175  GLN175      0.2260
    114  O          9.7660    0.9440  -54.9760 O.2   175  GLN175     -0.2867
    115  CB         6.9470    1.9760  -53.9300 C.3   175  GLN175      0.0367
    116  CG         5.9390    1.9450  -55.0670 C.3   175  GLN175      0.0905
    117  CD         4.5340    1.6140  -54.5950 C.2   175  GLN175      0.2608
    118  OE1        4.3260    0.6590  -53.8460 O.2   175  GLN175     -0.2717
    119  NE2        3.5650    2.4180  -55.0160 N.am  175  GLN175     -0.0878
    120  N          5.8970   -1.1460  -69.5400 N.3   195  GLU195     -0.1245
    121  CA         5.0870   -1.0360  -70.7450 C.3   195  GLU195      0.1567
    122  C          4.8210    0.4320  -71.0190 C.2   195  GLU195      0.2260
    123  O          4.0560    1.0700  -70.3040 O.2   195  GLU195     -0.2867
    124  CB         3.7430   -1.7410  -70.5710 C.3   195  GLU195      0.0388
    125  CG         3.7930   -3.2510  -70.4320 C.3   195  GLU195      0.1160
    126  CD         2.4150   -3.8440  -70.1500 C.2   195  GLU195      0.3649
    127  OE1        1.8200   -3.4930  -69.1050 O.co2 195  GLU195     -0.2457
    128  OE2        1.9300   -4.6580  -70.9680 O.co2 195  GLU195     -0.2457
    129  N          2.9840    2.8150  -73.1340 N.3   197  ASN197     -0.1240
    130  CA         1.9410    3.1150  -74.1180 C.3   197  ASN197      0.1653
    131  C          1.7530    4.6150  -74.3680 C.2   197  ASN197      0.2266
    132  O          0.6990    5.0450  -74.8370 O.2   197  ASN197     -0.2867
    133  CB         0.6030    2.4510  -73.7610 C.3   197  ASN197      0.1155
    134  CG         0.1560    2.7370  -72.3340 C.2   197  ASN197      0.2627
    135  OD1        0.5520    3.7300  -71.7190 O.2   197  ASN197     -0.2716
    136  ND2       -0.6980    1.8690  -71.8080 N.am  197  ASN197     -0.0877
    137  N          1.0470    7.0760  -72.6770 N.3   199  TYR199     -0.1227
    138  CA         0.1080    7.8270  -71.8490 C.3   199  TYR199      0.1736
    139  C         -0.0810    7.2100  -70.4670 C.2   199  TYR199      0.2596
    140  O         -0.1000    5.9870  -70.3040 O.2   199  TYR199     -0.2718
    141  CB        -1.2440    7.9870  -72.5550 C.3   199  TYR199      0.0548
    142  CG        -1.1200    8.5880  -73.9300 C.ar  199  TYR199     -0.0200
    143  CD1       -1.0790    9.9600  -74.1080 C.ar  199  TYR199     -0.0009
    144  CD2       -1.0110    7.7780  -75.0510 C.ar  199  TYR199     -0.0009
    145  CE1       -0.9450   10.5110  -75.3670 C.ar  199  TYR199      0.0417
    146  CE2       -0.8780    8.3170  -76.3110 C.ar  199  TYR199      0.0417
    147  CZ        -0.8460    9.6830  -76.4650 C.ar  199  TYR199      0.1957
    148  OH        -0.7120   10.2210  -77.7260 O.3   199  TYR199     -0.2866
    149  N         -0.1860    8.0800  -69.4700 N.am  200  GLY200     -0.1942
    150  CA        -0.5310    7.6810  -68.1210 C.3   200  GLY200      0.2014
    151  C         -1.9260    8.2000  -67.8690 C.2   200  GLY200      0.2638
    152  O         -2.0890    9.3300  -67.3980 O.2   200  GLY200     -0.2714
    153  N         -2.9170    7.3740  -68.2090 N.am  201  MET201     -0.1976
    154  CA        -4.3280    7.7590  -68.2270 C.3   201  MET201      0.1605
    155  C         -4.5740    8.7670  -69.3450 C.2   201  MET201      0.2287
    156  O         -4.8700    8.3810  -70.4740 O.2   201  MET201     -0.2864
    157  CB        -4.7800    8.3080  -66.8710 C.3   201  MET201      0.0413
    158  CG        -6.2400    8.7130  -66.8030 C.3   201  MET201      0.0598
    159  SD        -6.8590    8.6780  -65.1110 S.3   201  MET201     -0.1393
    160  CE        -8.5290    9.2610  -65.3530 C.3   201  MET201      0.0692
    161  N         -1.8810    1.4520  -76.8600 N.3   260  ARG260     -0.1245
    162  CA        -3.2530    0.9720  -76.6310 C.3   260  ARG260      0.1563
    163  C         -4.2860    1.6550  -77.5350 C.2   260  ARG260      0.2260
    164  O         -4.3230    2.8820  -77.6430 O.2   260  ARG260     -0.2867
    165  CB        -3.6650    1.1100  -75.1560 C.3   260  ARG260      0.0307
    166  CG        -3.5870    2.5270  -74.6010 C.3   260  ARG260      0.0489
    167  CD        -4.3600    2.6590  -73.2930 C.3   260  ARG260      0.2205
    168  NE        -4.0510    3.9040  -72.5940 N.pl3 260  ARG260     -0.0865
    169  CZ        -4.5180    5.0980  -72.9440 C.cat 260  ARG260      0.5346
    170  NH1       -5.3300    5.2180  -73.9820 N.pl3 260  ARG260      0.1354
    171  NH2       -4.1780    6.1750  -72.2490 N.pl3 260  ARG260      0.1354
    172  N         -7.7940    5.0580  -71.7840 N.3   264  HIS264     -0.1226
    173  CA        -7.3780    4.4690  -70.5170 C.3   264  HIS264      0.1752
    174  C         -8.2970    3.3490  -70.0320 C.2   264  HIS264      0.2596
    175  O         -7.8590    2.2190  -69.8190 O.2   264  HIS264     -0.2718
    176  CB        -7.2490    5.5330  -69.4360 C.3   264  HIS264      0.0759
    177  CG        -6.8180    4.9740  -68.1220 C.ar  264  HIS264      0.0818
    178  ND1       -5.6000    4.3540  -67.9500 N.ar  264  HIS264     -0.2268
    179  CD2       -7.4540    4.9000  -66.9300 C.ar  264  HIS264      0.1154
    180  CE1       -5.4990    3.9360  -66.7020 C.ar  264  HIS264      0.1986
    181  NE2       -6.6080    4.2570  -66.0620 N.ar  264  HIS264     -0.2212
    182  N         -9.5680    3.6880  -69.8520 N.am  265  SER265     -0.1952
    183  CA       -10.5990    2.7290  -69.4850 C.3   265  SER265      0.1924
    184  C        -11.8380    2.9320  -70.3460 C.2   265  SER265      0.2314
    185  O        -11.8450    3.7550  -71.2610 O.2   265  SER265     -0.2863
    186  CB       -10.9580    2.8520  -68.0020 C.3   265  SER265      0.2116
    187  OG       -11.4190    4.1580  -67.6860 O.3   265  SER265     -0.2180
@<TRIPOS>BOND
     1   148   147    1
     2   164   163    2
     3   163   162    1
     4    22    23    1
     5   161   162    1
     6    23    24    1
     7    23    26    1
     8   162   165    1
     9    24    25    2
    10   147   146   ar
    11   147   145   ar
    12   146   144   ar
    13   145   143   ar
    14    26    27    1
    15    27    28    1
    16   165   166    1
    17   144   142   ar
    18   132   131    2
    19   166   167    1
    20   131   130    1
    21   130   133    1
    22   130   129    1
    23   143   142   ar
    24   170   169    1
    25   142   141    1
    26    28    29    2
    27    28    30   am
    28   133   134    1
    29   167   168    1
    30   169   168    2
    31   169   171    1
    32   137   138    1
    33   141   138    1
    34   134   136   am
    35   134   135    2
    36   138   139    1
    37   172   173    1
    38   185   184    2
    39   122   121    1
    40   122   123    2
    41   128   126   ar
    42    52    51    1
    43   121   124    1
    44   121   120    1
    45   124   125    1
    46   173   174    1
    47   173   176    1
    48    49    50    1
    49    49    48    1
    50   156   155    2
    51   139   140    2
    52   139   149   am
    53   125   126    1
    54   184   183    1
    55    91    90   ar
    56   126   127   ar
    57    51    50    2
    58    51    53    1
    59   174   182   am
    60   174   175    2
    61    14    15    2
    62    14    13    1
    63   182   183    1
    64    90    92   ar
    65    90    89    1
    66    48    47    1
    67   183   186    1
    68   149   150    1
    69   176   177    1
    70    89    86    1
    71   155   154    1
    72    13    12    1
    73    13    16    1
    74    46    45    2
    75    47    44    1
    76   154   153    1
    77   154   157    1
    78   153   151   am
    79   177   178   ar
    80   177   179   ar
    81   150   151    1
    82   186   187    1
    83    86    85    1
    84    86    87    1
    85    16    17    1
    86   178   180   ar
    87    85    83   am
    88    45    44    1
    89   151   152    2
    90    44    43    1
    91    82    83    1
    92    82    81    1
    93   179   181   ar
    94    87    93   am
    95    87    88    2
    96    83    84    2
    97   157   158    1
    98   158   159    1
    99    17    19   ar
   100    17    18   ar
   101   180   181   ar
   102    93    94    1
   103    19    21   ar
   104    43    33   am
   105    39    37   ar
   106    39    41   ar
   107    18    20   ar
   108    42    41    1
   109    94    95    1
   110    34    33    2
   111    21    20   ar
   112   160   159    1
   113    37    36   ar
   114    33    32    1
   115     3     4    2
   116     3     2    1
   117    41    40   ar
   118    95    97   am
   119    95    96    2
   120     2     1    1
   121     2     5    1
   122    97    98    1
   123    36    35    1
   124    36    38   ar
   125    32    31    1
   126    32    35    1
   127    40    38   ar
   128     7     9   ar
   129     7     6   ar
   130     5     6    1
   131     9    11   ar
   132   101    98    1
   133    98    99    1
   134     6     8   ar
   135    99   100    2
   136    54    55    1
   137    55    56    1
   138    55    58    1
   139    59    58    1
   140    59    60    1
   141    11    10   ar
   142     8    10   ar
   143    56    57    2
   144    60    61    1
   145    80    78    1
   146    79    78    1
   147    78    75    1
   148   102   103    1
   149    75    76    1
   150    75    74    1
   151    63    62    1
   152    63    64    1
   153    65    64    2
   154    76    77    2
   155   107   106    1
   156   107   108    1
   157    74    68   am
   158   103   106    1
   159   103   104    1
   160    64    66   am
   161   105   104    2
   162    68    69    2
   163    68    67    1
   164    66    67    1
   165   110   108   am
   166   108   109    2
   167    67    70    1
   168   113   114    2
   169   113   112    1
   170    70    72    1
   171    70    71    1
   172   116   117    1
   173   116   115    1
   174   119   117   am
   175   111   112    1
   176    73    71    1
   177   117   118    2
   178   112   115    1
