@<TRIPOS>MOLECULE
tmp/6cfoD00.pdb
 92 87 0 0 0
SMALL
GASTEIGER

@<TRIPOS>ATOM
      1  N         -3.5170   14.5920  -60.3230 N.3    29  GLU29      -0.1231
      2  CA        -3.5470   13.8840  -61.5840 C.3    29  GLU29       0.1699
      3  C         -4.7800   14.2790  -62.3720 C.2    29  GLU29       0.2592
      4  O         -5.8930   14.2800  -61.8430 O.2    29  GLU29      -0.2718
      5  CB        -3.5450   12.3780  -61.3310 C.3    29  GLU29       0.0402
      6  CG        -2.2660   11.8630  -60.7020 C.3    29  GLU29       0.1161
      7  CD        -2.5100   10.7620  -59.6880 C.2    29  GLU29       0.3649
      8  OE1       -3.5590   10.0910  -59.7600 O.co2  29  GLU29      -0.2457
      9  OE2       -1.6360   10.5560  -58.8260 O.co2  29  GLU29      -0.2457
     10  N         -4.5610   14.6350  -63.6350 N.am   30  GLU30      -0.1979
     11  CA        -5.6370   14.9040  -64.5850 C.3    30  GLU30       0.1602
     12  C         -6.5730   16.0590  -64.2090 C.2    30  GLU30       0.2287
     13  O         -7.6840   16.1430  -64.7250 O.2    30  GLU30      -0.2864
     14  CB        -6.4540   13.6290  -64.8450 C.3    30  GLU30       0.0415
     15  CG        -5.6260   12.4120  -65.2480 C.3    30  GLU30       0.1163
     16  CD        -4.6890   12.6910  -66.4210 C.2    30  GLU30       0.3649
     17  OE1       -5.0900   13.4380  -67.3420 O.co2  30  GLU30      -0.2457
     18  OE2       -3.5570   12.1500  -66.4270 O.co2  30  GLU30      -0.2457
     19  N        -13.1670   13.1570  -62.8760 N.3    38  TYR38      -0.1241
     20  CA       -14.6110   13.0820  -62.7390 C.3    38  TYR38       0.1605
     21  C        -15.2270   14.4300  -63.0930 C.2    38  TYR38       0.2264
     22  O        -16.2960   14.7930  -62.5990 O.2    38  TYR38      -0.2867
     23  CB       -14.9780   12.6500  -61.3230 C.3    38  TYR38       0.0534
     24  CG       -14.4160   11.2930  -60.9660 C.ar   38  TYR38      -0.0201
     25  CD1      -15.0850   10.1300  -61.3240 C.ar   38  TYR38      -0.0009
     26  CD2      -13.2020   11.1710  -60.2950 C.ar   38  TYR38      -0.0009
     27  CE1      -14.5740    8.8840  -61.0090 C.ar   38  TYR38       0.0417
     28  CE2      -12.6810    9.9260  -59.9780 C.ar   38  TYR38       0.0417
     29  CZ       -13.3730    8.7870  -60.3390 C.ar   38  TYR38       0.1957
     30  OH       -12.8730    7.5410  -60.0310 O.3    38  TYR38      -0.2866
     31  N          1.9330   10.4950  -61.3290 N.3    58  ILE58      -0.1245
     32  CA         1.2890    9.6680  -60.3240 C.3    58  ILE58       0.1561
     33  C          2.2630    9.4700  -59.1680 C.2    58  ILE58       0.2260
     34  O          2.9350    8.4430  -59.0690 O.2    58  ILE58      -0.2867
     35  CB         0.8480    8.3250  -60.9190 C.3    58  ILE58       0.0252
     36  CG1        0.2090    8.5630  -62.2880 C.3    58  ILE58       0.0019
     37  CG2       -0.1200    7.6150  -59.9750 C.3    58  ILE58       0.0019
     38  CD1        0.0830    7.3290  -63.1110 C.3    58  ILE58       0.0001
     39  N          1.7400   10.3250  -55.3970 N.3    60  GLU60      -0.1245
     40  CA         0.9710   10.7770  -54.2410 C.3    60  GLU60       0.1567
     41  C          1.8010   11.3900  -53.1210 C.2    60  GLU60       0.2260
     42  O          1.6330   12.5650  -52.8040 O.2    60  GLU60      -0.2867
     43  CB         0.1020    9.6450  -53.6970 C.3    60  GLU60       0.0388
     44  CG        -1.2220    9.4710  -54.4220 C.3    60  GLU60       0.1160
     45  CD        -1.0660    9.0050  -55.8530 C.2    60  GLU60       0.3649
     46  OE1        0.0150    8.4900  -56.2140 O.co2  60  GLU60      -0.2457
     47  OE2       -2.0440    9.1390  -56.6140 O.co2  60  GLU60      -0.2457
     48  N         -7.2560   11.3160  -56.6790 N.3    82  MET82      -0.1230
     49  CA        -8.2600   10.8300  -57.6230 C.3    82  MET82       0.1702
     50  C         -9.3710   10.0540  -56.9230 C.2    82  MET82       0.2593
     51  O        -10.5300   10.1330  -57.3210 O.2    82  MET82      -0.2718
     52  CB        -7.6250   10.0150  -58.7500 C.3    82  MET82       0.0401
     53  CG        -8.5400    9.8570  -59.9560 C.3    82  MET82       0.0596
     54  SD        -7.7080    9.0820  -61.3510 S.3    82  MET82      -0.1393
     55  CE        -6.5570   10.3830  -61.7840 C.3    82  MET82       0.0692
     56  N         -8.9920    9.2990  -55.8960 N.am   83  THR83      -0.1953
     57  CA        -9.9080    8.7970  -54.8730 C.3    83  THR83       0.1897
     58  C         -9.0930    8.7540  -53.5840 C.2    83  THR83       0.2313
     59  O         -7.8600    8.7210  -53.6270 O.2    83  THR83      -0.2863
     60  CB       -10.4260    7.3690  -55.1430 C.3    83  THR83       0.1794
     61  OG1       -9.3330    6.4490  -55.1340 O.3    83  THR83      -0.2208
     62  CG2      -11.1650    7.2720  -56.4610 C.3    83  THR83       0.0378
     63  N         -6.1610    6.3020  -52.7130 N.3    86  PHE86      -0.1241
     64  CA        -4.7990    6.6070  -53.1210 C.3    86  PHE86       0.1605
     65  C         -4.1320    7.5320  -52.1190 C.2    86  PHE86       0.2264
     66  O         -2.9240    7.7270  -52.1640 O.2    86  PHE86      -0.2867
     67  CB        -4.7760    7.2240  -54.5250 C.3    86  PHE86       0.0534
     68  CG        -5.6540    6.5090  -55.5130 C.ar   86  PHE86      -0.0203
     69  CD1       -5.7570    5.1270  -55.5010 C.ar   86  PHE86      -0.0042
     70  CD2       -6.4090    7.2220  -56.4280 C.ar   86  PHE86      -0.0042
     71  CE1       -6.5860    4.4700  -56.3910 C.ar   86  PHE86      -0.0003
     72  CE2       -7.2390    6.5740  -57.3240 C.ar   86  PHE86      -0.0003
     73  CZ        -7.3280    5.1940  -57.3070 C.ar   86  PHE86      -0.0000
     74  N         -1.0050    6.4120  -49.7190 N.3    89  GLN89      -0.1245
     75  CA         0.4120    6.5310  -50.0440 C.3    89  GLN89       0.1566
     76  C          0.9980    7.8080  -49.4670 C.2    89  GLN89       0.2260
     77  O          2.1980    7.8890  -49.2040 O.2    89  GLN89      -0.2867
     78  CB         0.6250    6.5270  -51.5500 C.3    89  GLN89       0.0367
     79  CG         0.2440    5.2420  -52.2340 C.3    89  GLN89       0.0905
     80  CD         0.8360    5.1570  -53.6210 C.2    89  GLN89       0.2608
     81  OE1        1.1040    6.1780  -54.2470 O.2    89  GLN89      -0.2717
     82  NE2        1.0190    3.9410  -54.1200 N.am   89  GLN89      -0.0878
     83  N        -10.7510    0.2710  -54.3390 N.3   129  HIS129     -0.1241
     84  CA       -11.2650    1.5630  -54.7850 C.3   129  HIS129      0.1621
     85  C        -12.5670    2.0190  -54.1150 C.2   129  HIS129      0.2264
     86  O        -13.1810    2.9830  -54.5710 O.2   129  HIS129     -0.2867
     87  CB       -11.4470    1.5710  -56.3070 C.3   129  HIS129      0.0745
     88  CG       -10.1650    1.4400  -57.0710 C.ar  129  HIS129      0.0817
     89  ND1       -9.4310    0.2740  -57.1050 N.ar  129  HIS129     -0.2268
     90  CD2       -9.4810    2.3360  -57.8230 C.ar  129  HIS129      0.1154
     91  CE1       -8.3520    0.4550  -57.8470 C.ar  129  HIS129      0.1986
     92  NE2       -8.3590    1.6970  -58.2940 N.ar  129  HIS129     -0.2212
@<TRIPOS>BOND
     1    17    16   ar
     2    18    16   ar
     3    16    15    1
     4    15    14    1
     5    14    11    1
     6    13    12    2
     7    11    12    1
     8    11    10    1
     9    10     3   am
    10    38    36    1
    11    21    20    1
    12    21    22    2
    13    19    20    1
    14    20    23    1
    15     3     4    2
    16     3     2    1
    17    36    35    1
    18    55    54    1
    19     2     5    1
    20     2     1    1
    21    54    53    1
    22     5     6    1
    23    31    32    1
    24    25    27   ar
    25    25    24   ar
    26    23    24    1
    27    27    29   ar
    28    24    26   ar
    29    35    32    1
    30    35    37    1
    31     6     7    1
    32    29    30    1
    33    29    28   ar
    34    32    33    1
    35    26    28   ar
    36    53    52    1
    37     8     7   ar
    38     7     9   ar
    39    33    34    2
    40    52    49    1
    41    92    91   ar
    42    92    90   ar
    43    91    89   ar
    44    90    88   ar
    45    49    50    1
    46    49    48    1
    47    72    73   ar
    48    72    70   ar
    49    51    50    2
    50    73    71   ar
    51    89    88   ar
    52    88    87    1
    53    50    56   am
    54    47    45   ar
    55    62    60    1
    56    70    68   ar
    57    71    69   ar
    58    87    84    1
    59    46    45   ar
    60    56    57    1
    61    45    44    1
    62    68    69   ar
    63    68    67    1
    64    39    40    1
    65    60    61    1
    66    60    57    1
    67    57    58    1
    68    84    83    1
    69    84    85    1
    70    86    85    2
    71    67    64    1
    72    44    43    1
    73    81    80    2
    74    40    43    1
    75    40    41    1
    76    82    80   am
    77    59    58    2
    78    80    79    1
    79    41    42    2
    80    64    63    1
    81    64    65    1
    82    79    78    1
    83    66    65    2
    84    78    75    1
    85    75    74    1
    86    75    76    1
    87    76    77    2
