@<TRIPOS>MOLECULE
tmp/6cfpA00.pdb
 132 129 0 0 0
SMALL
GASTEIGER

@<TRIPOS>ATOM
      1  N        -31.9290  -35.2830   61.9200 N.3    38  ILE38      -0.1245
      2  CA       -32.5600  -36.5720   62.1650 C.3    38  ILE38       0.1561
      3  C        -33.5600  -36.8780   61.0590 C.2    38  ILE38       0.2260
      4  O        -33.6040  -37.9980   60.5300 O.2    38  ILE38      -0.2867
      5  CB       -33.1970  -36.5820   63.5690 C.3    38  ILE38       0.0252
      6  CG1      -32.0880  -36.5540   64.6240 C.3    38  ILE38       0.0019
      7  CG2      -34.1030  -37.7920   63.7660 C.3    38  ILE38       0.0019
      8  CD1      -32.5850  -36.4830   66.0210 C.3    38  ILE38       0.0001
      9  N        -31.5880  -38.0510   58.1070 N.3    41  MET41      -0.1230
     10  CA       -31.1890  -39.4480   58.2960 C.3    41  MET41       0.1702
     11  C        -32.3390  -40.4060   57.9980 C.2    41  MET41       0.2592
     12  O        -32.1600  -41.4170   57.3080 O.2    41  MET41      -0.2718
     13  CB       -30.7070  -39.6720   59.7310 C.3    41  MET41       0.0401
     14  CG       -29.5480  -38.8090   60.1800 C.3    41  MET41       0.0596
     15  SD       -27.9880  -39.4750   59.6410 S.3    41  MET41      -0.1393
     16  CE       -27.8450  -40.9600   60.6220 C.3    41  MET41       0.0692
     17  N        -33.5320  -40.0990   58.5100 N.am   42  ARG42      -0.1980
     18  CA       -34.6930  -40.9590   58.3140 C.3    42  ARG42       0.1597
     19  C        -35.1420  -41.0940   56.8610 C.2    42  ARG42       0.2287
     20  O        -35.9880  -41.9530   56.5920 O.2    42  ARG42      -0.2864
     21  CB       -35.8550  -40.4600   59.1650 C.3    42  ARG42       0.0334
     22  CG       -35.7680  -40.9630   60.5850 C.3    42  ARG42       0.0492
     23  CD       -35.6230  -42.4820   60.5680 C.3    42  ARG42       0.2205
     24  NE       -35.1970  -43.0410   61.8500 N.pl3  42  ARG42      -0.0865
     25  CZ       -34.9290  -44.3300   62.0410 C.cat  42  ARG42       0.5346
     26  NH1      -34.5410  -44.7650   63.2350 N.pl3  42  ARG42       0.1354
     27  NH2      -35.0480  -45.1860   61.0340 N.pl3  42  ARG42       0.1354
     28  N        -33.2060  -42.1850   54.5230 N.3    44  PHE44      -0.1241
     29  CA       -32.3460  -43.2020   53.9400 C.3    44  PHE44       0.1605
     30  C        -32.5790  -44.5280   54.6550 C.2    44  PHE44       0.2264
     31  O        -32.6060  -44.5800   55.8900 O.2    44  PHE44      -0.2867
     32  CB       -30.8790  -42.7700   54.0240 C.3    44  PHE44       0.0534
     33  CG       -29.9220  -43.7250   53.3770 C.ar   44  PHE44      -0.0203
     34  CD1      -30.1410  -44.1810   52.0860 C.ar   44  PHE44      -0.0042
     35  CD2      -28.7900  -44.1610   54.0570 C.ar   44  PHE44      -0.0042
     36  CE1      -29.2550  -45.0650   51.4820 C.ar   44  PHE44      -0.0003
     37  CE2      -27.8950  -45.0350   53.4560 C.ar   44  PHE44      -0.0003
     38  CZ       -28.1330  -45.4870   52.1630 C.ar   44  PHE44      -0.0000
     39  N        -28.7480  -48.0510   55.2290 N.3    47  TRP47      -0.1227
     40  CA       -27.6840  -48.1900   56.2090 C.3    47  TRP47       0.1737
     41  C        -27.3680  -49.6590   56.4380 C.2    47  TRP47       0.2595
     42  O        -28.1860  -50.5410   56.1790 O.2    47  TRP47      -0.2718
     43  CB       -28.0800  -47.5600   57.5480 C.3    47  TRP47       0.0564
     44  CG       -28.4840  -46.1130   57.4880 C.ar   47  TRP47       0.0003
     45  CD1      -29.7540  -45.6140   57.5670 C.ar   47  TRP47       0.0946
     46  CD2      -27.6150  -44.9800   57.3540 C.ar   47  TRP47       0.0152
     47  NE1      -29.7300  -44.2440   57.4810 N.ar   47  TRP47      -0.2442
     48  CE2      -28.4300  -43.8280   57.3490 C.ar   47  TRP47       0.0810
     49  CE3      -26.2320  -44.8280   57.2160 C.ar   47  TRP47       0.0012
     50  CZ2      -27.9030  -42.5400   57.2210 C.ar   47  TRP47       0.0191
     51  CZ3      -25.7110  -43.5550   57.0920 C.ar   47  TRP47       0.0001
     52  CH2      -26.5450  -42.4260   57.1010 C.ar   47  TRP47       0.0015
     53  N        -26.1670  -49.9170   56.9440 N.am   48  LYS48      -0.1966
     54  CA       -25.7590  -51.2750   57.2780 C.3    48  LYS48       0.1728
     55  C        -24.5940  -51.1730   58.2460 C.2    48  LYS48       0.2616
     56  O        -24.0190  -50.0990   58.4300 O.2    48  LYS48      -0.2715
     57  CB       -25.3720  -52.0780   56.0290 C.3    48  LYS48       0.0311
     58  CG       -24.1590  -51.5210   55.3200 C.3    48  LYS48       0.0038
     59  CD       -23.8540  -52.2370   54.0020 C.3    48  LYS48       0.0206
     60  CE       -22.7840  -51.4490   53.2380 C.3    48  LYS48       0.1093
     61  NZ       -22.3540  -52.1300   51.9990 N.3    48  LYS48      -0.1314
     62  N        -24.2600  -52.3040   58.8680 N.am   49  GLU49      -0.1964
     63  CA       -23.1810  -52.3550   59.8430 C.3    49  GLU49       0.1718
     64  C        -21.9050  -51.7700   59.2390 C.2    49  GLU49       0.2458
     65  O        -21.4240  -52.2810   58.2220 O.2    49  GLU49      -0.2730
     66  CB       -22.9420  -53.7930   60.2950 C.3    49  GLU49       0.0428
     67  CG       -21.8470  -53.9450   61.3450 C.3    49  GLU49       0.1163
     68  CD       -22.1490  -53.1960   62.6400 C.2    49  GLU49       0.3649
     69  OE1      -23.3320  -53.1080   63.0260 O.co2  49  GLU49      -0.2457
     70  OE2      -21.1960  -52.6900   63.2690 O.co2  49  GLU49      -0.2457
     71  N        -21.3420  -50.7140   59.8140 N.am   50  PRO50      -0.2727
     72  CA       -20.2160  -50.0410   59.1610 C.3    50  PRO50       0.1402
     73  C        -18.9110  -50.7990   59.3580 C.2    50  PRO50       0.2269
     74  O        -18.7100  -51.4800   60.3620 O.2    50  PRO50      -0.2865
     75  CB       -20.1760  -48.6790   59.8650 C.3    50  PRO50       0.0296
     76  CG       -20.6440  -49.0110   61.2730 C.3    50  PRO50       0.0237
     77  CD       -21.6760  -50.1070   61.1190 C.3    50  PRO50       0.0939
     78  N        -18.4080  -43.3310   64.8880 N.3    68  TRP68      -0.1241
     79  CA       -19.5950  -43.2860   64.0440 C.3    68  TRP68       0.1605
     80  C        -20.7160  -44.1200   64.6500 C.2    68  TRP68       0.2264
     81  O        -21.8750  -43.6890   64.6710 O.2    68  TRP68      -0.2867
     82  CB       -19.2590  -43.7530   62.6330 C.3    68  TRP68       0.0550
     83  CG       -20.4420  -44.0830   61.7630 C.ar   68  TRP68       0.0003
     84  CD1      -20.7650  -45.3220   61.2520 C.ar   68  TRP68       0.0946
     85  CD2      -21.4610  -43.1780   61.2950 C.ar   68  TRP68       0.0152
     86  NE1      -21.9140  -45.2310   60.4900 N.ar   68  TRP68      -0.2442
     87  CE2      -22.3570  -43.9310   60.4980 C.ar   68  TRP68       0.0810
     88  CE3      -21.7070  -41.8100   61.4780 C.ar   68  TRP68       0.0012
     89  CZ2      -23.4820  -43.3560   59.8830 C.ar   68  TRP68       0.0191
     90  CZ3      -22.8210  -41.2360   60.8590 C.ar   68  TRP68       0.0001
     91  CH2      -23.6920  -42.0150   60.0730 C.ar   68  TRP68       0.0015
     92  N        -24.6070  -42.7150   65.7090 N.3    72  LEU72      -0.1245
     93  CA       -25.8640  -43.3850   65.3860 C.3    72  LEU72       0.1561
     94  C        -26.6110  -43.8130   66.6400 C.2    72  LEU72       0.2260
     95  O        -27.8480  -43.7700   66.6860 O.2    72  LEU72      -0.2867
     96  CB       -25.5960  -44.6100   64.5200 C.3    72  LEU72       0.0270
     97  CG       -25.1220  -44.3390   63.0940 C.3    72  LEU72       0.0019
     98  CD1      -24.6510  -45.6620   62.5140 C.3    72  LEU72       0.0001
     99  CD2      -26.2780  -43.7520   62.2990 C.3    72  LEU72       0.0001
    100  N        -27.9620  -40.5110   68.3790 N.3    75  LEU75      -0.1231
    101  CA       -29.1100  -40.0370   67.6130 C.3    75  LEU75       0.1693
    102  C        -30.3100  -40.9410   67.8350 C.2    75  LEU75       0.2591
    103  O        -31.4540  -40.4730   67.8860 O.2    75  LEU75      -0.2718
    104  CB       -28.7750  -39.9680   66.1230 C.3    75  LEU75       0.0284
    105  CG       -27.7490  -38.9060   65.7420 C.3    75  LEU75       0.0019
    106  CD1      -27.3690  -39.0770   64.2950 C.3    75  LEU75       0.0001
    107  CD2      -28.3020  -37.4960   66.0150 C.3    75  LEU75       0.0001
    108  N        -30.0660  -42.2450   67.9620 N.am   76  GLN76      -0.1979
    109  CA       -31.1510  -43.1650   68.2670 C.3    76  GLN76       0.1601
    110  C        -31.7700  -42.8640   69.6340 C.2    76  GLN76       0.2287
    111  O        -32.9850  -43.0120   69.8120 O.2    76  GLN76      -0.2864
    112  CB       -30.6420  -44.6000   68.1950 C.3    76  GLN76       0.0394
    113  CG       -31.7460  -45.6300   68.1100 C.3    76  GLN76       0.0908
    114  CD       -32.3870  -45.6660   66.7430 C.2    76  GLN76       0.2608
    115  OE1      -31.6970  -45.8230   65.7310 O.2    76  GLN76      -0.2717
    116  NE2      -33.7140  -45.5110   66.6990 N.am   76  GLN76      -0.0878
    117  N        -34.1480  -39.8770   69.3560 N.3    79  GLU79      -0.1245
    118  CA       -35.4120  -40.2920   68.7640 C.3    79  GLU79       0.1567
    119  C        -36.3480  -40.9510   69.7660 C.2    79  GLU79       0.2260
    120  O        -37.5530  -41.0210   69.5050 O.2    79  GLU79      -0.2867
    121  CB       -35.1580  -41.2490   67.6020 C.3    79  GLU79       0.0388
    122  CG       -35.0220  -40.5670   66.2630 C.3    79  GLU79       0.1160
    123  CD       -35.1760  -41.5390   65.1220 C.2    79  GLU79       0.3649
    124  OE1      -35.9610  -41.2510   64.1910 O.co2  79  GLU79      -0.2457
    125  OE2      -34.5210  -42.6010   65.1680 O.co2  79  GLU79      -0.2457
    126  N        -20.8720  -47.6100   54.9350 N.3   249  VAL249     -0.1245
    127  CA       -21.9330  -47.4970   55.9290 C.3   249  VAL249      0.1561
    128  C        -23.3130  -47.7380   55.3380 C.2   249  VAL249      0.2260
    129  O        -24.3000  -47.7570   56.0790 O.2   249  VAL249     -0.2867
    130  CB       -21.8990  -46.1140   56.6010 C.3   249  VAL249      0.0252
    131  CG1      -20.5460  -45.8640   57.2570 C.3   249  VAL249      0.0019
    132  CG2      -22.1980  -45.0450   55.5740 C.3   249  VAL249      0.0019
@<TRIPOS>BOND
     1    36    34   ar
     2    36    38   ar
     3    61    60    1
     4    34    33   ar
     5    38    37   ar
     6    60    59    1
     7    33    32    1
     8    33    35   ar
     9    37    35   ar
    10    29    32    1
    11    29    28    1
    12    29    30    1
    13    59    58    1
    14    30    31    2
    15   126   127    1
    16    39    40    1
    17    58    57    1
    18   128   127    1
    19   128   129    2
    20   132   130    1
    21   127   130    1
    22    57    54    1
    23    42    41    2
    24    40    41    1
    25    40    43    1
    26    41    53   am
    27    20    19    2
    28   130   131    1
    29    19    18    1
    30    53    54    1
    31    51    52   ar
    32    51    49   ar
    33    52    50   ar
    34    49    46   ar
    35    50    48   ar
    36    54    55    1
    37    12    11    2
    38    48    46   ar
    39    48    47   ar
    40    46    44   ar
    41    47    45   ar
    42    44    43    1
    43    44    45   ar
    44    11    10    1
    45    11    17   am
    46     9    10    1
    47    65    64    2
    48    55    56    2
    49    55    62   am
    50    10    13    1
    51    18    17    1
    52    18    21    1
    53    62    63    1
    54    72    73    1
    55    72    71    1
    56    72    75    1
    57    21    22    1
    58    64    71   am
    59    64    63    1
    60    73    74    2
    61    15    14    1
    62    15    16    1
    63    13    14    1
    64    71    77    1
    65    63    66    1
    66    75    76    1
    67    89    91   ar
    68    89    87   ar
    69    91    90   ar
    70    66    67    1
    71    86    87   ar
    72    86    84   ar
    73    87    85   ar
    74     4     3    2
    75    23    22    1
    76    23    24    1
    77    90    88   ar
    78    27    25    1
    79     3     2    1
    80    77    76    1
    81    84    83   ar
    82    85    88   ar
    83    85    83   ar
    84    67    68    1
    85    83    82    1
    86    24    25    2
    87     1     2    1
    88    25    26    1
    89     2     5    1
    90    99    97    1
    91    98    97    1
    92    82    79    1
    93    68    69   ar
    94    68    70   ar
    95    97    96    1
    96     5     7    1
    97     5     6    1
    98    79    80    1
    99    79    78    1
   100   124   123   ar
   101   106   105    1
   102    96    93    1
   103     6     8    1
   104    80    81    2
   105   123   125   ar
   106   123   122    1
   107    93    92    1
   108    93    94    1
   109   115   114    2
   110   105   107    1
   111   105   104    1
   112   104   101    1
   113   122   121    1
   114    94    95    2
   115   116   114   am
   116   114   113    1
   117   121   118    1
   118   101   102    1
   119   101   100    1
   120   102   103    2
   121   102   108   am
   122   108   109    1
   123   113   112    1
   124   112   109    1
   125   109   110    1
   126   118   117    1
   127   118   119    1
   128   120   119    2
   129   110   111    2
