@<TRIPOS>MOLECULE
tmp/6cfvA00.pdb
 149 140 0 0 0
SMALL
GASTEIGER

@<TRIPOS>ATOM
      1  N         17.7100   21.0660   87.7860 N.3    17  ARG17      -0.1245
      2  CA        17.2030   21.0980   89.1680 C.3    17  ARG17       0.1563
      3  C         15.8000   20.5110   89.3840 C.2    17  ARG17       0.2260
      4  O         15.3240   20.4670   90.5110 O.2    17  ARG17      -0.2867
      5  CB        17.2880   22.5110   89.7650 C.3    17  ARG17       0.0307
      6  CG        18.7050   22.9880   90.0070 C.3    17  ARG17       0.0489
      7  CD        18.7520   24.3380   90.7260 C.3    17  ARG17       0.2205
      8  NE        18.5220   25.4720   89.8300 N.pl3  17  ARG17      -0.0865
      9  CZ        19.3990   25.9050   88.9280 C.cat  17  ARG17       0.5346
     10  NH1       20.5670   25.2910   88.7790 N.pl3  17  ARG17       0.1354
     11  NH2       19.1060   26.9470   88.1610 N.pl3  17  ARG17       0.1354
     12  N         26.0790   17.9570   92.3670 N.3    43  SER43      -0.1217
     13  CA        25.2360   18.2020   93.5550 C.3    43  SER43       0.1889
     14  C         25.4050   17.1050   94.5980 C.2    43  SER43       0.2288
     15  O         25.8510   16.0000   94.2780 O.2    43  SER43      -0.2866
     16  CB        23.7500   18.2490   93.1650 C.3    43  SER43       0.2089
     17  OG        23.4690   19.2560   92.2110 O.3    43  SER43      -0.2183
     18  N         31.9590   20.8700  101.9630 N.3   121  ARG121     -0.1245
     19  CA        31.3280   19.6720  101.4030 C.3   121  ARG121      0.1563
     20  C         32.3470   18.5350  101.2440 C.2   121  ARG121      0.2260
     21  O         33.5220   18.7050  101.5390 O.2   121  ARG121     -0.2867
     22  CB        30.6490   19.9890  100.0620 C.3   121  ARG121      0.0307
     23  CG        29.6720   21.1720  100.1270 C.3   121  ARG121      0.0489
     24  CD        28.9310   21.3960   98.8170 C.3   121  ARG121      0.2205
     25  NE        28.1010   22.5970   98.8700 N.pl3 121  ARG121     -0.0865
     26  CZ        27.6120   23.2280   97.8070 C.cat 121  ARG121      0.5346
     27  NH1       27.8540   22.7720   96.5790 N.pl3 121  ARG121      0.1354
     28  NH2       26.8790   24.3240   97.9720 N.pl3 121  ARG121      0.1354
     29  N         34.2340   19.6290   97.7180 N.3   124  MET124     -0.1245
     30  CA        34.6220   21.0160   97.4820 C.3   124  MET124      0.1570
     31  C         34.3510   21.8860   98.6990 C.2   124  MET124      0.2261
     32  O         33.7510   21.4280   99.6660 O.2   124  MET124     -0.2867
     33  CB        33.7720   21.5700   96.3480 C.3   124  MET124      0.0387
     34  CG        32.3150   21.6080   96.7390 C.3   124  MET124      0.0595
     35  SD        31.2050   22.1790   95.4500 S.3   124  MET124     -0.1393
     36  CE        30.9920   23.7940   96.0540 C.3   124  MET124      0.0692
     37  N         32.2000   25.4310   99.0860 N.3   126  ASN126     -0.1240
     38  CA        31.3360   26.3820   98.3950 C.3   126  ASN126      0.1653
     39  C         31.4290   27.7140   99.1030 C.2   126  ASN126      0.2266
     40  O         31.1990   27.7890  100.3290 O.2   126  ASN126     -0.2867
     41  CB        29.8720   25.9030   98.3910 C.3   126  ASN126      0.1155
     42  CG        28.9460   26.8470   97.6350 C.2   126  ASN126      0.2627
     43  OD1       28.2050   27.6280   98.2400 O.2   126  ASN126     -0.2716
     44  ND2       28.9850   26.7820   96.3050 N.am  126  ASN126     -0.0877
     45  N         24.8740   31.2640  102.1540 N.3   132  ARG132     -0.1245
     46  CA        23.8990   30.3200  101.6020 C.3   132  ARG132      0.1563
     47  C         22.5380   30.3200  102.2970 C.2   132  ARG132      0.2260
     48  O         21.5400   29.9050  101.7040 O.2   132  ARG132     -0.2867
     49  CB        24.4680   28.8980  101.5890 C.3   132  ARG132      0.0307
     50  CG        25.7090   28.7240  100.7130 C.3   132  ARG132      0.0489
     51  CD        25.9010   27.2580  100.3050 C.3   132  ARG132      0.2205
     52  NE        24.7680   26.8160   99.5030 N.pl3 132  ARG132     -0.0865
     53  CZ        24.5850   27.1180   98.2220 C.cat 132  ARG132      0.5346
     54  NH1       25.4690   27.8560   97.5600 N.pl3 132  ARG132      0.1354
     55  NH2       23.4980   26.6880   97.6020 N.pl3 132  ARG132      0.1354
     56  N         18.6440   36.1910   97.3950 N.3   139  ARG139     -0.1245
     57  CA        19.4890   35.5890   96.3800 C.3   139  ARG139      0.1563
     58  C         19.4160   36.3400   95.0370 C.2   139  ARG139      0.2260
     59  O         20.4430   36.6390   94.4330 O.2   139  ARG139     -0.2867
     60  CB        19.1150   34.1190   96.2240 C.3   139  ARG139      0.0307
     61  CG        19.3400   33.5400   94.8620 C.3   139  ARG139      0.0489
     62  CD        18.8320   32.1100   94.8290 C.3   139  ARG139      0.2205
     63  NE        19.5590   31.2380   95.7500 N.pl3 139  ARG139     -0.0865
     64  CZ        20.5870   30.4750   95.3840 C.cat 139  ARG139      0.5346
     65  NH1       20.9990   30.4850   94.1230 N.pl3 139  ARG139      0.1354
     66  NH2       21.2000   29.7000   96.2740 N.pl3 139  ARG139      0.1354
     67  N         34.9440   27.0050   90.0970 N.3   171  SER171     -0.1202
     68  CA        33.8290   26.8970   89.1680 C.3   171  SER171      0.2020
     69  C         33.5680   28.2400   88.5070 C.2   171  SER171      0.2619
     70  O         33.9310   29.2980   89.0440 O.2   171  SER171     -0.2717
     71  CB        32.5630   26.4440   89.8910 C.3   171  SER171      0.2103
     72  OG        32.1100   27.4680   90.7610 O.3   171  SER171     -0.2182
     73  N         32.9350   28.2010   87.3410 N.am  172  ARG172     -0.1965
     74  CA        32.6810   29.4230   86.5820 C.3   172  ARG172      0.1729
     75  C         31.2110   29.8100   86.6240 C.2   172  ARG172      0.2617
     76  O         30.8530   30.9170   86.2210 O.2   172  ARG172     -0.2715
     77  CB        33.1560   29.2770   85.1350 C.3   172  ARG172      0.0348
     78  CG        34.6240   28.9190   85.0030 C.3   172  ARG172      0.0492
     79  CD        35.4010   30.0140   84.2960 C.3   172  ARG172      0.2205
     80  NE        36.6340   29.5150   83.6960 N.pl3 172  ARG172     -0.0865
     81  CZ        36.7820   29.2470   82.4020 C.cat 172  ARG172      0.5346
     82  NH1       35.7760   29.4380   81.5610 N.pl3 172  ARG172      0.1354
     83  NH2       37.9420   28.7950   81.9460 N.pl3 172  ARG172      0.1354
     84  N         30.3710   28.9090   87.1360 N.am  173  GLY173     -0.1940
     85  CA        28.9360   29.1380   87.1860 C.3   173  GLY173      0.2014
     86  C         28.4480   29.5760   88.5540 C.2   173  GLY173      0.2639
     87  O         29.1640   30.2880   89.2560 O.2   173  GLY173     -0.2714
     88  N         27.2350   29.1550   88.9240 N.am  174  GLY174     -0.1939
     89  CA        26.6430   29.4880   90.2170 C.3   174  GLY174      0.2014
     90  C         25.8970   30.8160   90.1990 C.2   174  GLY174      0.2639
     91  O         26.0020   31.5670   89.2290 O.2   174  GLY174     -0.2714
     92  N         25.1470   31.1110   91.2620 N.am  175  MET175     -0.1963
     93  CA        24.3760   32.3530   91.3450 C.3   175  MET175      0.1736
     94  C         24.7620   33.2040   92.5550 C.2   175  MET175      0.2616
     95  O         24.9900   34.4050   92.4340 O.2   175  MET175     -0.2715
     96  CB        22.8790   32.0520   91.3980 C.3   175  MET175      0.0427
     97  CG        21.9800   33.2800   91.4290 C.3   175  MET175      0.0599
     98  SD        20.2360   32.8020   91.3840 S.3   175  MET175     -0.1393
     99  CE        19.4150   34.3830   91.3660 C.3   175  MET175      0.0692
    100  N         24.8070   32.5870   93.7290 N.am  176  ILE176     -0.1963
    101  CA        25.2590   33.3040   94.9160 C.3   176  ILE176      0.1727
    102  C         26.6040   32.7790   95.3910 C.2   176  ILE176      0.2617
    103  O         27.1150   33.2230   96.4080 O.2   176  ILE176     -0.2715
    104  CB        24.2670   33.1950   96.0930 C.3   176  ILE176      0.0290
    105  CG1       24.1480   31.7480   96.5760 C.3   176  ILE176      0.0022
    106  CG2       22.9040   33.7720   95.7320 C.3   176  ILE176      0.0023
    107  CD1       23.3080   31.6270   97.8570 C.3   176  ILE176      0.0001
    108  N         27.1730   31.8330   94.6560 N.am  177  SER177     -0.1936
    109  CA        28.3650   31.1570   95.1400 C.3   177  SER177      0.2055
    110  C         29.2890   30.7160   94.0310 C.2   177  SER177      0.2643
    111  O         28.9570   30.8140   92.8470 O.2   177  SER177     -0.2714
    112  CB        27.9730   29.9310   95.9700 C.3   177  SER177      0.2130
    113  OG        27.4080   28.9240   95.1460 O.3   177  SER177     -0.2179
    114  N         30.4590   30.2260   94.4280 N.am  178  PHE178     -0.1959
    115  CA        31.3240   29.5090   93.5040 C.3   178  PHE178      0.1771
    116  C         31.9810   28.3440   94.2370 C.2   178  PHE178      0.2619
    117  O         32.0790   28.3340   95.4800 O.2   178  PHE178     -0.2715
    118  CB        32.3570   30.4470   92.8480 C.3   178  PHE178      0.0574
    119  CG        33.2700   31.1300   93.8370 C.ar  178  PHE178     -0.0200
    120  CD1       34.4060   30.4920   94.3060 C.ar  178  PHE178     -0.0042
    121  CD2       32.9900   32.4110   94.2840 C.ar  178  PHE178     -0.0042
    122  CE1       35.2500   31.1160   95.2300 C.ar  178  PHE178     -0.0003
    123  CE2       33.8330   33.0430   95.1950 C.ar  178  PHE178     -0.0003
    124  CZ        34.9630   32.3950   95.6620 C.ar  178  PHE178     -0.0000
    125  N         32.4060   27.3480   93.4720 N.am  179  ASP179     -0.1971
    126  CA        32.9910   26.1390   94.0250 C.3   179  ASP179      0.1709
    127  C         34.5180   26.2080   94.0020 C.2   179  ASP179      0.2293
    128  O         35.1030   26.7000   93.0330 O.2   179  ASP179     -0.2864
    129  CB        32.5400   24.9230   93.1970 C.3   179  ASP179      0.1436
    130  CG        31.0140   24.8280   93.0430 C.2   179  ASP179      0.3671
    131  OD1       30.2740   25.4590   93.8310 O.co2 179  ASP179     -0.2456
    132  OD2       30.5500   24.0970   92.1410 O.co2 179  ASP179     -0.2456
    133  N         27.1400   19.4910   78.8550 N.3   208  GLU208     -0.1245
    134  CA        28.1490   20.5440   78.9650 C.3   208  GLU208      0.1567
    135  C         29.5340   20.0250   78.5700 C.2   208  GLU208      0.2260
    136  O         30.4740   20.0790   79.3610 O.2   208  GLU208     -0.2867
    137  CB        28.1830   21.1410   80.3750 C.3   208  GLU208      0.0388
    138  CG        26.9600   21.9850   80.7340 C.3   208  GLU208      0.1160
    139  CD        27.0880   22.6700   82.0920 C.2   208  GLU208      0.3649
    140  OE1       28.2300   22.9650   82.5090 O.co2 208  GLU208     -0.2457
    141  OE2       26.0450   22.8990   82.7470 O.co2 208  GLU208     -0.2457
    142  N         30.9570   21.5390   82.6400 N.3   214  ASN214     -0.1240
    143  CA        31.3020   20.6090   83.7240 C.3   214  ASN214      0.1653
    144  C         31.2880   19.1300   83.3130 C.2   214  ASN214      0.2266
    145  O         31.4670   18.2510   84.1580 O.2   214  ASN214     -0.2867
    146  CB        30.4710   20.8510   85.0020 C.3   214  ASN214      0.1155
    147  CG        28.9830   20.5880   84.8090 C.2   214  ASN214      0.2627
    148  OD1       28.5450   20.0870   83.7720 O.2   214  ASN214     -0.2716
    149  ND2       28.1950   20.9200   85.8310 N.am  214  ASN214     -0.0877
@<TRIPOS>BOND
     1   135   134    1
     2   135   136    2
     3   133   134    1
     4   134   137    1
     5   137   138    1
     6   138   139    1
     7    82    81    1
     8    83    81    1
     9   139   140   ar
    10   139   141   ar
    11    81    80    2
    12   142   143    1
    13   144   143    1
    14   144   145    2
    15    80    79    1
    16   143   146    1
    17   148   147    2
    18    79    78    1
    19   147   146    1
    20   147   149   am
    21    78    77    1
    22    77    74    1
    23    76    75    2
    24    74    75    1
    25    74    73    1
    26    75    84   am
    27    84    85    1
    28    85    86    1
    29    73    69   am
    30     1     2    1
    31    11     9    1
    32    69    70    2
    33    69    68    1
    34    86    88   am
    35    86    87    2
    36    10     9    1
    37    88    89    1
    38     9     8    2
    39    68    71    1
    40    68    67    1
    41     2     3    1
    42     2     5    1
    43    91    90    2
    44     3     4    2
    45     5     6    1
    46     8     7    1
    47    71    72    1
    48     6     7    1
    49    90    89    1
    50    90    92   am
    51    92    93    1
    52    93    96    1
    53    93    94    1
    54    99    98    1
    55    98    97    1
    56    96    97    1
    57   132   130   ar
    58    17    16    1
    59    12    13    1
    60    95    94    2
    61    94   100   am
    62   111   110    2
    63   118   115    1
    64   118   119    1
    65   128   127    2
    66   130   129    1
    67   130   131   ar
    68    16    13    1
    69   129   126    1
    70   125   126    1
    71   125   116   am
    72   115   116    1
    73   115   114    1
    74    13    14    1
    75   100   101    1
    76   119   121   ar
    77   119   120   ar
    78   127   126    1
    79   110   114   am
    80   110   109    1
    81    65    64    1
    82   116   117    2
    83    15    14    2
    84   121   123   ar
    85   120   122   ar
    86    59    58    2
    87   108   109    1
    88   108   102   am
    89    62    61    1
    90    62    63    1
    91    61    60    1
    92   101   102    1
    93   101   104    1
    94    58    57    1
    95   109   112    1
    96   113   112    1
    97   123   124   ar
    98   122   124   ar
    99    64    63    2
   100    64    66    1
   101   102   103    2
   102    35    36    1
   103    35    34    1
   104   106   104    1
   105   104   105    1
   106    60    57    1
   107    44    42   am
   108    33    34    1
   109    33    30    1
   110    57    56    1
   111   105   107    1
   112    27    26    1
   113    30    29    1
   114    30    31    1
   115    54    53    1
   116    55    53    1
   117    42    43    2
   118    42    41    1
   119    26    28    1
   120    26    25    2
   121    53    52    2
   122    41    38    1
   123    38    37    1
   124    38    39    1
   125    31    32    2
   126    24    25    1
   127    24    23    1
   128    39    40    2
   129    52    51    1
   130    22    23    1
   131    22    19    1
   132    51    50    1
   133    50    49    1
   134    20    19    1
   135    20    21    2
   136    19    18    1
   137    49    46    1
   138    46    45    1
   139    46    47    1
   140    48    47    2
