@<TRIPOS>MOLECULE
tmp/6cg1D00.pdb
 181 170 0 0 0
SMALL
GASTEIGER

@<TRIPOS>ATOM
      1  N         -4.5940   88.7040   20.2700 N.3    67  ILE67      -0.1245
      2  CA        -5.9660   88.7050   19.8310 C.3    67  ILE67       0.1561
      3  C         -5.9790   88.2010   18.3830 C.2    67  ILE67       0.2260
      4  O         -5.2760   88.7530   17.5350 O.2    67  ILE67      -0.2867
      5  CB        -6.5520   90.1430   20.1230 C.3    67  ILE67       0.0252
      6  CG1       -7.8640   90.0450   20.8570 C.3    67  ILE67       0.0019
      7  CG2       -6.6810   91.0000   18.9010 C.3    67  ILE67       0.0019
      8  CD1       -7.6810   89.7550   22.3180 C.3    67  ILE67       0.0001
      9  N         -7.7330   88.0600   14.9720 N.3    69  GLN69      -0.1245
     10  CA        -8.7630   88.9360   14.3860 C.3    69  GLN69       0.1566
     11  C         -9.5160   88.2150   13.2810 C.2    69  GLN69       0.2260
     12  O         -9.0260   88.1070   12.1490 O.2    69  GLN69      -0.2867
     13  CB        -8.1630   90.2200   13.8820 C.3    69  GLN69       0.0367
     14  CG        -7.4220   90.9990   14.9450 C.3    69  GLN69       0.0905
     15  CD        -6.8730   92.3300   14.3980 C.2    69  GLN69       0.2608
     16  OE1       -6.0530   92.3240   13.4790 O.2    69  GLN69      -0.2717
     17  NE2       -7.2790   93.4440   14.9900 N.am   69  GLN69      -0.0878
     18  N        -15.1700   93.1220   12.6000 N.3    80  GLN80      -0.1245
     19  CA       -14.0520   92.3950   13.1230 C.3    80  GLN80       0.1566
     20  C        -14.3800   91.8130   14.4740 C.2    80  GLN80       0.2260
     21  O        -14.7190   92.5450   15.3630 O.2    80  GLN80      -0.2867
     22  CB       -12.8820   93.3170   13.2450 C.3    80  GLN80       0.0367
     23  CG       -11.6290   92.6880   13.7860 C.3    80  GLN80       0.0905
     24  CD       -10.5080   93.7030   13.8350 C.2    80  GLN80       0.2608
     25  OE1       -9.7140   93.7960   12.9080 O.2    80  GLN80      -0.2717
     26  NE2      -10.5030   94.5310   14.8760 N.am   80  GLN80      -0.0878
     27  N        -12.9490   89.3610   17.7860 N.3    82  ASN82      -0.1240
     28  CA       -11.7350   88.9550   18.5220 C.3    82  ASN82       0.1653
     29  C        -11.8550   87.5680   19.1500 C.2    82  ASN82       0.2266
     30  O        -12.8660   87.1900   19.7390 O.2    82  ASN82      -0.2867
     31  CB       -11.4360   89.9600   19.6150 C.3    82  ASN82       0.1155
     32  CG       -11.1280   91.3440   19.0580 C.2    82  ASN82       0.2627
     33  OD1      -10.7610   91.5050   17.8930 O.2    82  ASN82      -0.2716
     34  ND2      -11.2910   92.3590   19.8970 N.am   82  ASN82      -0.0877
     35  N         -2.8620   89.5830   16.6120 N.3   128  TYR128     -0.1241
     36  CA        -2.4460   90.9760   16.9500 C.3   128  TYR128      0.1605
     37  C         -2.0060   90.9850   18.4020 C.2   128  TYR128      0.2264
     38  O         -2.7790   90.6870   19.2620 O.2   128  TYR128     -0.2867
     39  CB        -3.5500   92.0730   16.7150 C.3   128  TYR128      0.0534
     40  CG        -3.0260   93.4940   16.4440 C.ar  128  TYR128     -0.0201
     41  CD1       -1.6360   93.8090   16.4730 C.ar  128  TYR128     -0.0009
     42  CD2       -3.9020   94.5490   16.1500 C.ar  128  TYR128     -0.0009
     43  CE1       -1.1680   95.0910   16.1840 C.ar  128  TYR128      0.0417
     44  CE2       -3.4290   95.8370   15.8830 C.ar  128  TYR128      0.0417
     45  CZ        -2.0600   96.1130   15.8900 C.ar  128  TYR128      0.1957
     46  OH        -1.5600   97.4070   15.6270 O.3   128  TYR128     -0.2866
     47  N         -1.9040   93.0110   20.7360 N.3   130  ALA130     -0.1231
     48  CA        -2.3830   94.3570   20.9920 C.3   130  ALA130      0.1694
     49  C         -2.5600   94.6720   22.4540 C.2   130  ALA130      0.2592
     50  O         -2.6380   93.7990   23.2700 O.2   130  ALA130     -0.2718
     51  CB        -3.7020   94.5730   20.2740 C.3   130  ALA130      0.0304
     52  N         -2.6270   95.9680   22.7740 N.am  131  ASP131     -0.1974
     53  CA        -2.9190   96.4500   24.1450 C.3   131  ASP131      0.1709
     54  C         -1.9680   95.8820   25.2150 C.2   131  ASP131      0.2293
     55  O         -2.3950   95.5080   26.2860 O.2   131  ASP131     -0.2864
     56  CB        -4.4070   96.1910   24.4930 C.3   131  ASP131      0.1436
     57  CG        -5.3630   96.9620   23.5800 C.2   131  ASP131      0.3671
     58  OD1       -4.8930   97.8100   22.7770 O.co2 131  ASP131     -0.2456
     59  OD2       -6.5920   96.7410   23.6840 O.co2 131  ASP131     -0.2456
     60  N          1.9060   97.6280   20.6680 N.3   168  TYR168     -0.1241
     61  CA         1.1800   96.8420   19.6720 C.3   168  TYR168      0.1605
     62  C          2.1770   96.1180   18.8260 C.2   168  TYR168      0.2264
     63  O          2.9230   96.7560   18.0770 O.2   168  TYR168     -0.2867
     64  CB         0.3800   97.7900   18.7640 C.3   168  TYR168      0.0534
     65  CG        -0.7320   98.4480   19.4970 C.ar  168  TYR168     -0.0201
     66  CD1       -0.5130   99.6050   20.2040 C.ar  168  TYR168     -0.0009
     67  CD2       -1.9990   97.8730   19.5350 C.ar  168  TYR168     -0.0009
     68  CE1       -1.5590  100.2070   20.9050 C.ar  168  TYR168      0.0417
     69  CE2       -3.0310   98.4350   20.2420 C.ar  168  TYR168      0.0417
     70  CZ        -2.8070   99.5970   20.9390 C.ar  168  TYR168      0.1957
     71  OH        -3.8130  100.1590   21.6580 O.3   168  TYR168     -0.2866
     72  N         -5.3320   94.6030   11.9440 N.3   175  SER175     -0.1202
     73  CA        -6.1000   95.8050   11.6240 C.3   175  SER175      0.2020
     74  C         -6.4580   96.6080   12.8470 C.2   175  SER175      0.2619
     75  O         -6.6110   96.0740   13.9240 O.2   175  SER175     -0.2717
     76  CB        -7.3910   95.3720   10.9660 C.3   175  SER175      0.2103
     77  OG        -7.0770   94.7840    9.7280 O.3   175  SER175     -0.2182
     78  N         -6.6390   97.8910   12.6610 N.am  176  PHE176     -0.1961
     79  CA        -7.4410   98.6530   13.6160 C.3   176  PHE176      0.1771
     80  C         -8.6280   99.2770   12.8990 C.2   176  PHE176      0.2619
     81  O         -8.4870   99.9280   11.8760 O.2   176  PHE176     -0.2715
     82  CB        -6.6100   99.6600   14.3750 C.3   176  PHE176      0.0574
     83  CG        -5.7240  100.5620   13.5320 C.ar  176  PHE176     -0.0200
     84  CD1       -4.5320  100.1400   13.0950 C.ar  176  PHE176     -0.0042
     85  CD2       -6.0570  101.8990   13.3610 C.ar  176  PHE176     -0.0042
     86  CE1       -3.7030  100.9930   12.3510 C.ar  176  PHE176     -0.0003
     87  CE2       -5.2640  102.7700   12.6790 C.ar  176  PHE176     -0.0003
     88  CZ        -4.0710  102.3320   12.1570 C.ar  176  PHE176     -0.0000
     89  N         -9.8090   99.0530   13.4570 N.am  177  ALA177     -0.1977
     90  CA       -11.0550   99.5000   12.8780 C.3   177  ALA177      0.1597
     91  C        -11.2750  100.9750   13.0850 C.2   177  ALA177      0.2287
     92  O        -10.6240  101.6010   13.8670 O.2   177  ALA177     -0.2864
     93  CB       -12.2170   98.7290   13.5290 C.3   177  ALA177      0.0319
     94  N        -12.3300  104.3800   14.3810 N.3   179  HIS179     -0.1241
     95  CA       -12.6090  104.9510   15.6410 C.3   179  HIS179      0.1621
     96  C        -11.9920  106.3200   15.8310 C.2   179  HIS179      0.2264
     97  O        -11.0060  106.6730   15.1780 O.2   179  HIS179     -0.2867
     98  CB       -12.1430  104.0220   16.7650 C.3   179  HIS179      0.0745
     99  CG       -10.6650  103.9890   16.9350 C.ar  179  HIS179      0.0817
    100  ND1       -9.8460  103.3690   16.0270 N.ar  179  HIS179     -0.2268
    101  CD2       -9.8490  104.5530   17.8580 C.ar  179  HIS179      0.1154
    102  CE1       -8.5940  103.5200   16.4010 C.ar  179  HIS179      0.1986
    103  NE2       -8.5600  104.2370   17.5150 N.ar  179  HIS179     -0.2212
    104  N        -10.4800  108.3000   19.4650 N.3   181  GLU181     -0.1245
    105  CA       -10.0240  107.9490   20.8180 C.3   181  GLU181      0.1567
    106  C        -11.0890  108.0670   21.8920 C.2   181  GLU181      0.2260
    107  O        -12.1020  108.7500   21.7460 O.2   181  GLU181     -0.2867
    108  CB        -8.8520  108.8250   21.2110 C.3   181  GLU181      0.0388
    109  CG        -7.6850  108.7810   20.2700 C.3   181  GLU181      0.1160
    110  CD        -7.2080  107.3620   20.0880 C.2   181  GLU181      0.3649
    111  OE1       -6.6610  106.7730   21.0720 O.co2 181  GLU181     -0.2457
    112  OE2       -7.4120  106.8500   19.0010 O.co2 181  GLU181     -0.2457
    113  N         -4.1540  111.1300   20.2190 N.3   187  SER187     -0.1217
    114  CA        -3.2080  110.0740   20.4620 C.3   187  SER187      0.1889
    115  C         -1.8870  110.3230   19.8020 C.2   187  SER187      0.2288
    116  O         -1.7680  111.1040   18.8440 O.2   187  SER187     -0.2866
    117  CB        -3.7610  108.6930   20.0850 C.3   187  SER187      0.2089
    118  OG        -4.0120  108.5710   18.7220 O.3   187  SER187     -0.2183
    119  N          1.4550  107.7390   18.4210 N.3   189  ASN189     -0.1240
    120  CA         1.8170  106.3620   18.0690 C.3   189  ASN189      0.1653
    121  C          3.1960  106.4820   17.4780 C.2   189  ASN189      0.2266
    122  O          3.3870  107.1970   16.5030 O.2   189  ASN189     -0.2867
    123  CB         0.8460  105.7420   16.9970 C.3   189  ASN189      0.1155
    124  CG         1.1660  104.2440   16.5920 C.2   189  ASN189      0.2627
    125  OD1        2.1450  103.9780   15.8240 O.2   189  ASN189     -0.2716
    126  ND2        0.2220  103.2520   16.9960 N.am  189  ASN189     -0.0877
    127  N          2.9540  100.5960    8.9590 N.3   197  LYS197     -0.1245
    128  CA         1.5450  100.6450    9.3640 C.3   197  LYS197      0.1561
    129  C          0.8990  101.7070    8.4400 C.2   197  LYS197      0.2260
    130  O          1.3610  102.8530    8.3940 O.2   197  LYS197     -0.2867
    131  CB         1.4890  101.1230   10.7990 C.3   197  LYS197      0.0271
    132  CG         0.1370  101.0430   11.5040 C.3   197  LYS197      0.0035
    133  CD         0.2410  101.7050   12.9010 C.3   197  LYS197      0.0206
    134  CE         1.0910  100.8720   13.8980 C.3   197  LYS197      0.1093
    135  NZ         0.3790   99.6050   14.2900 N.3   197  LYS197     -0.1314
    136  N         -2.4910  103.9470    7.4000 N.3   199  TRP199     -0.1241
    137  CA        -3.5380  104.6330    8.1220 C.3   199  TRP199      0.1605
    138  C         -4.4700  105.2760    7.1360 C.2   199  TRP199      0.2264
    139  O         -4.0240  105.7410    6.0710 O.2   199  TRP199     -0.2867
    140  CB        -2.9810  105.7680    8.9460 C.3   199  TRP199      0.0550
    141  CG        -2.1040  105.4160   10.0540 C.ar  199  TRP199      0.0003
    142  CD1       -0.8960  104.8580    9.9490 C.ar  199  TRP199      0.0946
    143  CD2       -2.3210  105.6340   11.4460 C.ar  199  TRP199      0.0152
    144  NE1       -0.3190  104.7040   11.1780 N.ar  199  TRP199     -0.2442
    145  CE2       -1.1650  105.1860   12.1230 C.ar  199  TRP199      0.0810
    146  CE3       -3.3610  106.1650   12.1860 C.ar  199  TRP199      0.0012
    147  CZ2       -1.0480  105.1910   13.5140 C.ar  199  TRP199      0.0191
    148  CZ3       -3.2330  106.2110   13.5580 C.ar  199  TRP199      0.0001
    149  CH2       -2.0790  105.7430   14.2140 C.ar  199  TRP199      0.0015
    150  N        -14.7810   99.3490   18.2000 N.3   232  LYS232     -0.1245
    151  CA       -13.6250   99.0810   17.3570 C.3   232  LYS232      0.1561
    152  C        -13.7060   97.7760   16.5640 C.2   232  LYS232      0.2260
    153  O        -12.6950   97.0370   16.4290 O.2   232  LYS232     -0.2867
    154  CB       -12.3160   99.1230   18.1500 C.3   232  LYS232      0.0271
    155  CG       -11.9860  100.4830   18.7130 C.3   232  LYS232      0.0035
    156  CD       -10.6720  100.4750   19.4420 C.3   232  LYS232      0.0206
    157  CE       -10.3470  101.8390   19.9950 C.3   232  LYS232      0.1093
    158  NZ       -11.3300  102.2180   21.0510 N.3   232  LYS232     -0.1314
    159  N         -2.9710  111.5540   16.3060 N.3   261  THR261     -0.1218
    160  CA        -4.3560  111.6710   15.9470 C.3   261  THR261      0.1862
    161  C         -4.9490  112.8200   16.7870 C.2   261  THR261      0.2287
    162  O         -4.5820  113.0300   17.9710 O.2   261  THR261     -0.2866
    163  CB        -5.1900  110.3600   16.1730 C.3   261  THR261      0.1770
    164  OG1       -5.5350  110.2500   17.5580 O.3   261  THR261     -0.2211
    165  CG2       -4.4480  109.0950   15.7180 C.3   261  THR261      0.0375
    166  N         -9.9400  107.3590   12.5480 N.3   267  HIS267     -0.1241
    167  CA        -8.8510  106.6680   11.8670 C.3   267  HIS267      0.1621
    168  C         -9.0400  105.1450   11.9030 C.2   267  HIS267      0.2264
    169  O         -9.7790  104.6350   12.7110 O.2   267  HIS267     -0.2867
    170  CB        -7.4630  107.0870   12.4010 C.3   267  HIS267      0.0745
    171  CG        -7.3180  106.9470   13.8780 C.ar  267  HIS267      0.0817
    172  ND1       -7.9070  107.8210   14.7580 N.ar  267  HIS267     -0.2268
    173  CD2       -6.6970  106.0070   14.6320 C.ar  267  HIS267      0.1154
    174  CE1       -7.6280  107.4430   15.9970 C.ar  267  HIS267      0.1986
    175  NE2       -6.8960  106.3350   15.9480 N.ar  267  HIS267     -0.2212
    176  N          1.9190  103.4620   21.8810 N.3   279  SER279     -0.1217
    177  CA         0.9580  104.5830   21.8310 C.3   279  SER279      0.1889
    178  C          0.4050  104.9200   23.1780 C.2   279  SER279      0.2288
    179  O          0.4710  104.1150   24.0850 O.2   279  SER279     -0.2866
    180  CB        -0.2340  104.2750   20.9070 C.3   279  SER279      0.2089
    181  OG        -1.0380  103.3360   21.5620 O.3   279  SER279     -0.2183
@<TRIPOS>BOND
     1   139   138    2
     2   138   137    1
     3   136   137    1
     4   137   140    1
     5   130   129    2
     6   129   128    1
     7   140   141    1
     8   127   128    1
     9   128   131    1
    10    77    76    1
    11   142   141   ar
    12   142   144   ar
    13   141   143   ar
    14   131   132    1
    15    76    73    1
    16   144   145   ar
    17   143   145   ar
    18   143   146   ar
    19   132   133    1
    20    73    72    1
    21    73    74    1
    22   167   168    1
    23   167   170    1
    24   167   166    1
    25    81    80    2
    26   168   169    2
    27   145   147   ar
    28    12    11    2
    29    88    86   ar
    30    88    87   ar
    31   146   148   ar
    32    86    84   ar
    33   170   171    1
    34    18    19    1
    35    78    74   am
    36    78    79    1
    37    87    85   ar
    38    74    75    2
    39    90    91    1
    40    90    89    1
    41    90    93    1
    42    80    89   am
    43    80    79    1
    44   133   134    1
    45    25    24    2
    46    91    92    2
    47    84    83   ar
    48    19    22    1
    49    19    20    1
    50    22    23    1
    51    11    10    1
    52    85    83   ar
    53    16    15    2
    54   147   149   ar
    55    83    82    1
    56   148   149   ar
    57    79    82    1
    58    23    24    1
    59    24    26   am
    60   171   173   ar
    61   171   172   ar
    62    13    10    1
    63    13    14    1
    64   134   135    1
    65    94    95    1
    66    10     9    1
    67    15    14    1
    68    15    17   am
    69    20    21    2
    70   173   175   ar
    71   172   174   ar
    72    97    96    2
    73    46    45    1
    74    95    96    1
    75    95    98    1
    76   165   163    1
    77   125   124    2
    78    44    45   ar
    79    44    42   ar
    80    45    43   ar
    81   160   163    1
    82   160   159    1
    83   160   161    1
    84   175   174   ar
    85   100   102   ar
    86   100    99   ar
    87    42    40   ar
    88   163   164    1
    89    43    41   ar
    90   102   103   ar
    91   153   152    2
    92    40    41   ar
    93    40    39    1
    94   122   121    2
    95   152   151    1
    96   124   126   am
    97   124   123    1
    98    35    36    1
    99    39    36    1
   100    98    99    1
   101   161   162    2
   102    99   101   ar
   103    36    37    1
   104   123   120    1
   105   151   154    1
   106   151   150    1
   107   121   120    1
   108   103   101   ar
   109     4     3    2
   110    27    28    1
   111    33    32    2
   112   120   119    1
   113    63    62    2
   114   154   155    1
   115     3     2    1
   116    37    38    2
   117    28    29    1
   118    28    31    1
   119   155   156    1
   120   118   117    1
   121    64    65    1
   122    64    61    1
   123    62    61    1
   124   116   115    2
   125     7     5    1
   126   112   110   ar
   127    32    31    1
   128    32    34   am
   129    29    30    2
   130   156   157    1
   131   104   105    1
   132    65    67   ar
   133    65    66   ar
   134    67    69   ar
   135    61    60    1
   136   115   114    1
   137     2     5    1
   138     2     1    1
   139   157   158    1
   140   117   114    1
   141   110   109    1
   142   110   111   ar
   143     5     6    1
   144    66    68   ar
   145   113   114    1
   146    69    70   ar
   147   109   108    1
   148    51    48    1
   149    47    48    1
   150   105   108    1
   151   105   106    1
   152     6     8    1
   153    68    70   ar
   154   180   181    1
   155   180   177    1
   156    70    71    1
   157    48    49    1
   158   107   106    2
   159   177   176    1
   160   177   178    1
   161    49    52   am
   162    49    50    2
   163    52    53    1
   164    58    57   ar
   165   178   179    2
   166    57    59   ar
   167    57    56    1
   168    53    56    1
   169    53    54    1
   170    54    55    2
