@<TRIPOS>MOLECULE
tmp/6cg2A00.pdb
 182 172 0 0 0
SMALL
GASTEIGER

@<TRIPOS>ATOM
      1  N         10.2140   18.7060   54.0220 N.3    67  GLN67      -0.1245
      2  CA         9.5240   17.6980   54.8290 C.3    67  GLN67       0.1566
      3  C          8.9770   18.4380   56.0020 C.2    67  GLN67       0.2260
      4  O          9.7210   18.7720   56.9180 O.2    67  GLN67      -0.2867
      5  CB        10.4780   16.5750   55.2620 C.3    67  GLN67       0.0367
      6  CG        10.8420   15.6210   54.1350 C.3    67  GLN67       0.0905
      7  CD        11.6200   14.3850   54.6250 C.2    67  GLN67       0.2608
      8  OE1       12.4710   14.4740   55.5200 O.2    67  GLN67      -0.2717
      9  NE2       11.2930   13.2370   54.0810 N.am   67  GLN67      -0.0878
     10  N          3.8930   13.4300   58.2160 N.3    78  GLN78      -0.1245
     11  CA         4.9040   14.0690   57.4270 C.3    78  GLN78       0.1566
     12  C          4.3130   14.3950   56.0670 C.2    78  GLN78       0.2260
     13  O          3.9600   13.4810   55.3350 O.2    78  GLN78      -0.2867
     14  CB         6.1370   13.1680   57.2570 C.3    78  GLN78       0.0367
     15  CG         7.2260   13.8520   56.4680 C.3    78  GLN78       0.0905
     16  CD         8.4210   12.9950   56.2050 C.2    78  GLN78       0.2608
     17  OE1        9.4540   13.1950   56.8010 O.2    78  GLN78      -0.2717
     18  NE2        8.3040   12.0860   55.2730 N.am   78  GLN78      -0.0878
     19  N          4.8780   16.5500   52.3020 N.3    80  ASN80      -0.1240
     20  CA         5.9140   16.9620   51.3370 C.3    80  ASN80       0.1653
     21  C          5.5230   18.2280   50.5840 C.2    80  ASN80       0.2266
     22  O          4.3780   18.3560   50.1500 O.2    80  ASN80      -0.2867
     23  CB         6.1200   15.8660   50.3150 C.3    80  ASN80       0.1155
     24  CG         6.6990   14.5980   50.9160 C.2    80  ASN80       0.2627
     25  OD1        7.1150   14.5530   52.0790 O.2    80  ASN80      -0.2716
     26  ND2        6.7880   13.5630   50.0840 N.am   80  ASN80      -0.0877
     27  N         14.8130   17.0900   51.4480 N.3   126  TYR126     -0.1241
     28  CA        15.3510   15.7840   51.1330 C.3   126  TYR126      0.1605
     29  C         15.4610   15.6400   49.6420 C.2   126  TYR126      0.2264
     30  O         14.5280   15.8590   48.9380 O.2   126  TYR126     -0.2867
     31  CB        14.4650   14.6680   51.7430 C.3   126  TYR126      0.0534
     32  CG        15.0940   13.2820   51.9300 C.ar  126  TYR126     -0.0201
     33  CD1       16.4630   13.0740   51.8000 C.ar  126  TYR126     -0.0009
     34  CD2       14.3140   12.1910   52.3150 C.ar  126  TYR126     -0.0009
     35  CE1       17.0350   11.8360   51.9790 C.ar  126  TYR126      0.0417
     36  CE2       14.8870   10.9540   52.5410 C.ar  126  TYR126      0.0417
     37  CZ        16.2490   10.7740   52.3720 C.ar  126  TYR126      0.1957
     38  OH        16.8560    9.5530   52.5460 O.3   126  TYR126     -0.2866
     39  N         15.2460   13.2490   47.4260 N.3   128  ALA128     -0.1231
     40  CA        14.8230   11.8640   47.4490 C.3   128  ALA128      0.1694
     41  C         14.3830   11.4520   46.0780 C.2   128  ALA128      0.2592
     42  O         14.0800   12.2960   45.2250 O.2   128  ALA128     -0.2718
     43  CB        13.7090   11.6870   48.4450 C.3   128  ALA128      0.0304
     44  N         14.3920   10.1410   45.8660 N.am  129  ASP129     -0.1974
     45  CA        13.8040    9.5510   44.6820 C.3   129  ASP129      0.1709
     46  C         14.4800   10.0610   43.4030 C.2   129  ASP129      0.2293
     47  O         13.8360   10.1210   42.3960 O.2   129  ASP129     -0.2864
     48  CB        12.2670    9.8080   44.6080 C.3   129  ASP129      0.1436
     49  CG        11.4610    9.2130   45.8040 C.2   129  ASP129      0.3671
     50  OD1       11.9420    8.3070   46.5330 O.co2 129  ASP129     -0.2456
     51  OD2       10.2990    9.6510   45.9930 O.co2 129  ASP129     -0.2456
     52  N         19.3720    9.1250   47.2040 N.3   171  TYR171     -0.1241
     53  CA        18.7580    9.9500   48.2290 C.3   171  TYR171      0.1605
     54  C         19.8080   10.8550   48.8250 C.2   171  TYR171      0.2264
     55  O         20.7760   10.3550   49.3910 O.2   171  TYR171     -0.2867
     56  CB        18.1670    9.0910   49.3420 C.3   171  TYR171      0.0534
     57  CG        17.0090    8.2780   48.9170 C.ar  171  TYR171     -0.0201
     58  CD1       17.1940    7.0880   48.2180 C.ar  171  TYR171     -0.0009
     59  CD2       15.6960    8.6760   49.2370 C.ar  171  TYR171     -0.0009
     60  CE1       16.1050    6.3240   47.8330 C.ar  171  TYR171      0.0417
     61  CE2       14.6110    7.9180   48.8610 C.ar  171  TYR171      0.0417
     62  CZ        14.8180    6.7490   48.1500 C.ar  171  TYR171      0.1957
     63  OH        13.7510    5.9840   47.7790 O.3   171  TYR171     -0.2866
     64  N         13.8910   12.4370   56.9820 N.3   178  SER178     -0.1202
     65  CA        13.2520   11.2510   57.5470 C.3   178  SER178      0.2020
     66  C         12.7000   10.3440   56.4930 C.2   178  SER178      0.2619
     67  O         12.3290   10.7930   55.4270 O.2   178  SER178     -0.2717
     68  CB        12.0770   11.5950   58.4680 C.3   178  SER178      0.2103
     69  OG        12.4540   12.5310   59.4640 O.3   178  SER178     -0.2182
     70  N         12.6310    9.0590   56.8200 N.am  179  PHE179     -0.1961
     71  CA        11.7750    8.1500   56.1050 C.3   179  PHE179      0.1771
     72  C         10.8410    7.5960   57.1490 C.2   179  PHE179      0.2619
     73  O         11.2880    7.1140   58.2010 O.2   179  PHE179     -0.2715
     74  CB        12.5270    7.0760   55.3040 C.3   179  PHE179      0.0574
     75  CG        13.5610    6.2810   56.0720 C.ar  179  PHE179     -0.0200
     76  CD1       14.8330    6.7800   56.2920 C.ar  179  PHE179     -0.0042
     77  CD2       13.2710    5.0000   56.5130 C.ar  179  PHE179     -0.0042
     78  CE1       15.7730    6.0270   56.9610 C.ar  179  PHE179     -0.0003
     79  CE2       14.1940    4.2530   57.2050 C.ar  179  PHE179     -0.0003
     80  CZ        15.4510    4.7590   57.4240 C.ar  179  PHE179     -0.0000
     81  N          9.5440    7.6990   56.8610 N.am  180  ALA180     -0.1977
     82  CA         8.4950    7.2410   57.7720 C.3   180  ALA180      0.1597
     83  C          8.2990    5.7280   57.7320 C.2   180  ALA180      0.2287
     84  O          8.8500    5.0560   56.8850 O.2   180  ALA180     -0.2864
     85  CB         7.2090    7.9170   57.4120 C.3   180  ALA180      0.0319
     86  N          7.2630    2.1420   57.1160 N.3   182  HIS182     -0.1241
     87  CA         6.7650    1.4500   55.9380 C.3   182  HIS182      0.1621
     88  C          7.4070    0.0860   55.7400 C.2   182  HIS182      0.2264
     89  O          8.4690   -0.2060   56.2910 O.2   182  HIS182     -0.2867
     90  CB         7.0170    2.2460   54.6670 C.3   182  HIS182      0.0745
     91  CG         8.4650    2.3690   54.3090 C.ar  182  HIS182      0.0817
     92  ND1        9.3120    3.2710   54.9200 N.ar  182  HIS182     -0.2268
     93  CD2        9.2180    1.7070   53.3890 C.ar  182  HIS182      0.1154
     94  CE1       10.5210    3.1510   54.3840 C.ar  182  HIS182      0.1986
     95  NE2       10.4900    2.2120   53.4550 N.ar  182  HIS182     -0.2212
     96  N          8.1610   -2.2570   52.0250 N.3   184  GLU184     -0.1231
     97  CA         8.4330   -1.9360   50.6500 C.3   184  GLU184      0.1699
     98  C          7.2150   -2.2000   49.8420 C.2   184  GLU184      0.2592
     99  O          6.2690   -2.8570   50.2810 O.2   184  GLU184     -0.2718
    100  CB         9.5770   -2.8150   50.1270 C.3   184  GLU184      0.0402
    101  CG        10.8620   -2.5810   50.8860 C.3   184  GLU184      0.1161
    102  CD        11.3560   -1.1430   50.8320 C.2   184  GLU184      0.3649
    103  OE1       11.7450   -0.7000   49.7030 O.co2 184  GLU184     -0.2457
    104  OE2       11.3750   -0.4690   51.9020 O.co2 184  GLU184     -0.2457
    105  N          7.2650   -1.7020   48.6290 N.am  185  ASP185     -0.1974
    106  CA         6.2300   -1.9600   47.6500 C.3   185  ASP185      0.1709
    107  C          6.1090   -3.4600   47.3570 C.2   185  ASP185      0.2293
    108  O          7.1120   -4.1620   47.2810 O.2   185  ASP185     -0.2864
    109  CB         6.4610   -1.1080   46.4170 C.3   185  ASP185      0.1436
    110  CG         6.1210    0.4060   46.6760 C.2   185  ASP185      0.3671
    111  OD1        5.0910    0.7090   47.3300 O.co2 185  ASP185     -0.2456
    112  OD2        6.8790    1.3000   46.2320 O.co2 185  ASP185     -0.2456
    113  N         14.4750   -4.8500   50.2600 N.3   190  SER190     -0.1217
    114  CA        15.2740   -3.7470   49.7310 C.3   190  SER190      0.1889
    115  C         16.7590   -3.8060   50.0810 C.2   190  SER190      0.2288
    116  O         17.1880   -4.4360   51.0630 O.2   190  SER190     -0.2866
    117  CB        14.6680   -2.3980   50.1310 C.3   190  SER190      0.2089
    118  OG        14.9120   -2.0340   51.4810 O.3   190  SER190     -0.2183
    119  N         19.9980   -0.8790   50.5140 N.3   192  ASN192     -0.1240
    120  CA        20.3400    0.5530   50.6590 C.3   192  ASN192      0.1653
    121  C         21.8250    0.6350   50.9310 C.2   192  ASN192      0.2266
    122  O         22.2850    0.0530   51.8830 O.2   192  ASN192     -0.2867
    123  CB        19.5420    1.2130   51.8200 C.3   192  ASN192      0.1155
    124  CG        19.7640    2.7410   51.9340 C.2   192  ASN192      0.2627
    125  OD1       20.9150    3.2350   52.1660 O.2   192  ASN192     -0.2716
    126  ND2       18.6500    3.5080   51.8260 N.am  192  ASN192     -0.0877
    127  N         23.0610    7.3580   58.6990 N.3   200  LYS200     -0.1245
    128  CA        21.6530    7.1690   58.6110 C.3   200  LYS200      0.1561
    129  C         21.2690    6.2230   59.7180 C.2   200  LYS200      0.2260
    130  O         21.8070    5.1620   59.7730 O.2   200  LYS200     -0.2867
    131  CB        21.3700    6.5460   57.2380 C.3   200  LYS200      0.0271
    132  CG        19.9020    6.4130   56.8920 C.3   200  LYS200      0.0035
    133  CD        19.6890    5.8090   55.5290 C.3   200  LYS200      0.0206
    134  CE        20.0690    6.7210   54.3860 C.3   200  LYS200      0.1093
    135  NZ        19.0560    7.7880   54.2120 N.3   200  LYS200     -0.1314
    136  N         18.1850    3.8550   61.6540 N.3   202  TRP202     -0.1241
    137  CA        17.1010    3.0270   61.2260 C.3   202  TRP202      0.1605
    138  C         16.4480    2.4240   62.4210 C.2   202  TRP202      0.2264
    139  O         17.1290    2.0380   63.3560 O.2   202  TRP202     -0.2867
    140  CB        17.6230    1.8640   60.4290 C.3   202  TRP202      0.0550
    141  CG        18.2240    2.1400   59.0490 C.ar  202  TRP202      0.0003
    142  CD1       19.4170    2.7070   58.7740 C.ar  202  TRP202      0.0946
    143  CD2       17.6790    1.7480   57.7890 C.ar  202  TRP202      0.0152
    144  NE1       19.6430    2.7280   57.4160 N.ar  202  TRP202     -0.2442
    145  CE2       18.5930    2.1380   56.7930 C.ar  202  TRP202      0.0810
    146  CE3       16.5120    1.1170   57.4070 C.ar  202  TRP202      0.0012
    147  CZ2       18.3660    1.9230   55.4380 C.ar  202  TRP202      0.0191
    148  CZ3       16.2950    0.8600   56.0450 C.ar  202  TRP202      0.0001
    149  CH2       17.2170    1.2720   55.0900 C.ar  202  TRP202      0.0015
    150  N          3.6390    6.6120   53.3570 N.3   235  LYS235     -0.1245
    151  CA         4.9300    7.0560   53.9190 C.3   235  LYS235      0.1561
    152  C          4.8800    8.4560   54.5470 C.2   235  LYS235      0.2260
    153  O          5.8520    9.2350   54.4200 O.2   235  LYS235     -0.2867
    154  CB         6.0510    6.9460   52.8830 C.3   235  LYS235      0.0271
    155  CG         6.3040    5.5040   52.4260 C.3   235  LYS235      0.0035
    156  CD         6.9600    5.4170   51.0580 C.3   235  LYS235      0.0206
    157  CE         6.7350    4.0360   50.4420 C.3   235  LYS235      0.1093
    158  NZ         5.4550    3.8330   49.6790 N.3   235  LYS235     -0.1314
    159  N         10.1360   -0.4250   58.6000 N.3   270  HIS270     -0.1241
    160  CA        11.2510    0.3850   58.9880 C.3   270  HIS270      0.1621
    161  C         11.0200    1.8970   58.8770 C.2   270  HIS270      0.2264
    162  O         10.1650    2.3410   58.1500 O.2   270  HIS270     -0.2867
    163  CB        12.4740   -0.0350   58.2130 C.3   270  HIS270      0.0745
    164  CG        12.3020   -0.0230   56.7240 C.ar  270  HIS270      0.0817
    165  ND1       11.7440   -1.0700   56.0440 N.ar  270  HIS270     -0.2268
    166  CD2       12.6550    0.8830   55.7790 C.ar  270  HIS270      0.1154
    167  CE1       11.7500   -0.8230   54.7460 C.ar  270  HIS270      0.1986
    168  NE2       12.3090    0.3560   54.5560 N.ar  270  HIS270     -0.2212
    169  N         19.4940    2.9620   46.4870 N.3   282  SER282     -0.1217
    170  CA        18.6120    1.8600   46.8800 C.3   282  SER282      0.1889
    171  C         17.7810    1.3520   45.7370 C.2   282  SER282      0.2288
    172  O         17.5980    2.0420   44.7560 O.2   282  SER282     -0.2866
    173  CB        17.7100    2.2670   48.0720 C.3   282  SER282      0.2089
    174  OG        16.4400    2.7840   47.6640 O.3   282  SER282     -0.2183
    175  N         14.7260   -2.3240   45.0660 N.3   284  ASN284     -0.1240
    176  CA        14.1130   -3.5340   45.6230 C.3   284  ASN284      0.1653
    177  C         14.6710   -4.7620   44.9440 C.2   284  ASN284      0.2266
    178  O         15.2920   -4.6780   43.8980 O.2   284  ASN284     -0.2867
    179  CB        12.6200   -3.4800   45.4740 C.3   284  ASN284      0.1155
    180  CG        12.0180   -2.3760   46.2950 C.2   284  ASN284      0.2627
    181  OD1       11.4640   -1.4480   45.7410 O.2   284  ASN284     -0.2716
    182  ND2       12.1630   -2.4410   47.6170 N.am  284  ASN284     -0.0877
@<TRIPOS>BOND
     1    47    46    2
     2    46    45    1
     3   178   177    2
     4    48    45    1
     5    48    49    1
     6    45    44    1
     7   172   171    2
     8   177   176    1
     9   175   176    1
    10    42    41    2
    11   179   176    1
    12   179   180    1
    13   171   170    1
    14   181   180    2
    15    49    51   ar
    16    49    50   ar
    17    44    41   am
    18    41    40    1
    19   112   110   ar
    20   180   182   am
    21   109   110    1
    22   109   106    1
    23   169   170    1
    24   110   111   ar
    25   170   173    1
    26    52    53    1
    27   108   107    2
    28   107   106    1
    29    39    40    1
    30    40    43    1
    31   106   105    1
    32   174   173    1
    33    63    62    1
    34    60    62   ar
    35    60    58   ar
    36    62    61   ar
    37    58    57   ar
    38    53    54    1
    39    53    56    1
    40   105    98   am
    41    54    55    2
    42    61    59   ar
    43    57    59   ar
    44    57    56    1
    45    30    29    2
    46    29    28    1
    47   158   157    1
    48   103   102   ar
    49   114   115    1
    50   114   117    1
    51   114   113    1
    52    98    99    2
    53    98    97    1
    54   115   116    2
    55    26    24   am
    56   100    97    1
    57   100   101    1
    58   117   118    1
    59    22    21    2
    60    23    24    1
    61    23    20    1
    62   157   156    1
    63   119   120    1
    64    21    20    1
    65    97    96    1
    66   120   121    1
    67   120   123    1
    68   102   101    1
    69   102   104   ar
    70    24    25    2
    71   121   122    2
    72   156   155    1
    73    28    27    1
    74    28    31    1
    75    20    19    1
    76    31    32    1
    77    33    32   ar
    78    33    35   ar
    79   123   124    1
    80   126   124   am
    81    32    34   ar
    82   124   125    2
    83    35    37   ar
    84    34    36   ar
    85    37    36   ar
    86    37    38    1
    87   155   154    1
    88   154   151    1
    89   150   151    1
    90    93    95   ar
    91    93    91   ar
    92    95    94   ar
    93   151   152    1
    94     1     2    1
    95     9     7   am
    96     6     7    1
    97     6     5    1
    98   135   134    1
    99    91    90    1
   100    91    92   ar
   101    94    92   ar
   102   134   133    1
   103   153   152    2
   104   168   167   ar
   105   168   166   ar
   106     7     8    2
   107    90    87    1
   108   167   165   ar
   109     2     5    1
   110     2     3    1
   111   149   147   ar
   112   149   148   ar
   113    18    16   am
   114    74    75    1
   115    74    71    1
   116    13    12    2
   117    67    66    2
   118   147   145   ar
   119   133   132    1
   120    88    87    1
   121    88    89    2
   122   166   164   ar
   123    87    86    1
   124     3     4    2
   125   165   164   ar
   126   148   146   ar
   127    12    11    1
   128    75    76   ar
   129    75    77   ar
   130    71    70    1
   131    71    72    1
   132    16    15    1
   133    16    17    2
   134    76    78   ar
   135    15    14    1
   136    66    70   am
   137    66    65    1
   138    77    79   ar
   139   164   163    1
   140   145   144   ar
   141   145   143   ar
   142    81    72   am
   143    81    82    1
   144    84    83    2
   145   132   131    1
   146    78    80   ar
   147    64    65    1
   148    72    73    2
   149    79    80   ar
   150   131   128    1
   151    14    11    1
   152   146   143   ar
   153    85    82    1
   154   144   142   ar
   155    11    10    1
   156    65    68    1
   157    83    82    1
   158   143   141   ar
   159   162   161    2
   160   163   160    1
   161    68    69    1
   162   159   160    1
   163   128   127    1
   164   128   129    1
   165   142   141   ar
   166   161   160    1
   167   141   140    1
   168   129   130    2
   169   140   137    1
   170   137   136    1
   171   137   138    1
   172   138   139    2
