@<TRIPOS>MOLECULE
tmp/6cgcB01.pdb
 192 184 0 0 0
SMALL
GASTEIGER

@<TRIPOS>ATOM
      1  N         10.7690   -8.2390   24.1660 N.3    94  GLY94      -0.1210
      2  CA        10.1930   -7.1380   24.8740 C.3    94  GLY94       0.1956
      3  C         11.1770   -5.9900   25.0680 C.2    94  GLY94       0.2612
      4  O         12.4350   -6.1190   24.8610 O.2    94  GLY94      -0.2717
      5  N         10.5830   -4.8460   25.4150 N.am   95  LEU95      -0.1965
      6  CA        11.2980   -3.6540   25.8640 C.3    95  LEU95       0.1728
      7  C         10.3200   -2.7370   26.6400 C.2    95  LEU95       0.2616
      8  O          9.2530   -2.3400   26.1370 O.2    95  LEU95      -0.2715
      9  CB        11.8830   -2.9100   24.6650 C.3    95  LEU95       0.0311
     10  CG        12.9340   -1.8280   24.8700 C.3    95  LEU95       0.0022
     11  CD1       14.1560   -2.3490   25.6300 C.3    95  LEU95       0.0001
     12  CD2       13.3300   -1.2450   23.4970 C.3    95  LEU95       0.0001
     13  N         10.6910   -2.4570   27.8760 N.am   96  LEU96      -0.1977
     14  CA         9.8640   -1.7270   28.8400 C.3    96  LEU96       0.1596
     15  C         10.7360   -0.5920   29.3730 C.2    96  LEU96       0.2287
     16  O         11.9210   -0.7780   29.6230 O.2    96  LEU96      -0.2864
     17  CB         9.3790   -2.6810   29.9420 C.3    96  LEU96       0.0297
     18  CG         8.4030   -2.1280   30.9810 C.3    96  LEU96       0.0022
     19  CD1        7.0230   -1.8380   30.3950 C.3    96  LEU96       0.0001
     20  CD2        8.2810   -3.1160   32.1590 C.3    96  LEU96       0.0001
     21  N          0.0440   -9.4950   19.9060 N.3   142  SER142     -0.1202
     22  CA        -0.1740   -8.9630   21.2540 C.3   142  SER142      0.2020
     23  C         -1.4100   -8.0740   21.2530 C.2   142  SER142      0.2619
     24  O         -1.7480   -7.4200   20.2340 O.2   142  SER142     -0.2717
     25  CB         1.0310   -8.1440   21.6960 C.3   142  SER142      0.2103
     26  OG         0.8640   -7.5800   22.9900 O.3   142  SER142     -0.2182
     27  N         -2.0740   -8.0250   22.4020 N.am  143  VAL143     -0.1965
     28  CA        -3.0310   -6.9380   22.6820 C.3   143  VAL143      0.1727
     29  C         -2.3000   -5.5950   22.6530 C.2   143  VAL143      0.2616
     30  O         -2.8540   -4.6050   22.2230 O.2   143  VAL143     -0.2715
     31  CB        -3.8100   -7.1640   23.9920 C.3   143  VAL143      0.0290
     32  CG1       -2.8550   -7.3320   25.1200 C.3   143  VAL143      0.0023
     33  CG2       -4.7440   -6.0150   24.3410 C.3   143  VAL143      0.0023
     34  N         -1.0320   -5.5730   23.0370 N.am  144  GLY144     -0.1955
     35  CA        -0.1560   -4.4440   22.7230 C.3   144  GLY144      0.1869
     36  C          0.0010   -3.9990   21.2520 C.2   144  GLY144      0.2309
     37  O          0.5870   -2.9520   20.9860 O.2   144  GLY144     -0.2863
     38  N         -3.5210   -1.6840   20.9710 N.3   147  MET147     -0.1196
     39  CA        -3.7250   -0.5370   21.8290 C.3   147  MET147      0.1786
     40  C         -2.4020   -0.2090   22.4760 C.2   147  MET147      0.2306
     41  O         -1.6300   -1.1030   22.7780 O.2   147  MET147     -0.2863
     42  CB        -4.8320   -0.8100   22.8620 C.2   147  MET147      0.0070
     43  CG        -4.5030   -1.7880   23.9830 C.2   147  MET147      0.0282
     44  SD        -5.9010   -2.2150   25.0830 S.3   147  MET147     -0.1125
     45  CE        -7.1190   -2.7170   23.8740 C.3   147  MET147      0.0742
     46  N          0.3310    1.3280   25.1290 N.3   149  LEU149     -0.1245
     47  CA         0.4540    1.3020   26.5600 C.3   149  LEU149      0.1561
     48  C          1.7060    1.9760   27.0000 C.2   149  LEU149      0.2260
     49  O          2.7710    1.7310   26.4220 O.2   149  LEU149     -0.2867
     50  CB         0.4070   -0.1390   27.0610 C.3   149  LEU149      0.0270
     51  CG        -1.0720   -0.6340   27.0920 C.3   149  LEU149      0.0019
     52  CD1       -1.3040   -1.8470   26.2230 C.3   149  LEU149      0.0001
     53  CD2       -1.5730   -0.8040   28.5320 C.3   149  LEU149      0.0001
     54  N          5.6400    0.9780   27.0940 N.3   152  ASN152     -0.1240
     55  CA         5.8110   -0.1280   26.1140 C.3   152  ASN152      0.1653
     56  C          5.8290    0.4850   24.6680 C.2   152  ASN152      0.2266
     57  O          5.4300   -0.1490   23.6800 O.2   152  ASN152     -0.2867
     58  CB         4.6330   -1.1120   26.2200 C.3   152  ASN152      0.1155
     59  CG         4.5800   -1.9010   27.5340 C.2   152  ASN152      0.2627
     60  OD1        4.7290   -3.1120   27.5130 O.2   152  ASN152     -0.2716
     61  ND2        4.2810   -1.2360   28.6620 N.am  152  ASN152     -0.0877
     62  N          7.7840   -1.5340   22.1360 N.3   155  TYR155     -0.1227
     63  CA         7.1590   -2.8500   22.0440 C.3   155  TYR155      0.1736
     64  C          5.8490   -2.7750   21.2440 C.2   155  TYR155      0.2595
     65  O          5.6700   -3.5220   20.2650 O.2   155  TYR155     -0.2718
     66  CB         6.9610   -3.5010   23.4450 C.3   155  TYR155      0.0548
     67  CG         6.2400   -4.8200   23.3950 C.ar  155  TYR155     -0.0200
     68  CD1        6.9170   -6.0200   23.1800 C.ar  155  TYR155     -0.0009
     69  CD2        4.8540   -4.8590   23.5040 C.ar  155  TYR155     -0.0009
     70  CE1        6.2260   -7.2300   23.1100 C.ar  155  TYR155      0.0417
     71  CE2        4.1620   -6.0520   23.4380 C.ar  155  TYR155      0.0417
     72  CZ         4.8510   -7.2270   23.2400 C.ar  155  TYR155      0.1957
     73  OH         4.0920   -8.3610   23.1690 O.3   155  TYR155     -0.2866
     74  N          4.9460   -1.8940   21.6710 N.am  156  CYS156     -0.1970
     75  CA         3.6680   -1.6900   20.9440 C.3   156  CYS156      0.1712
     76  C          3.9330   -1.2680   19.4890 C.2   156  CYS156      0.2296
     77  O          3.2500   -1.7130   18.6020 O.2   156  CYS156     -0.2864
     78  CB         2.8110   -0.6340   21.6240 C.3   156  CYS156      0.0983
     79  SG         2.2610   -1.1300   23.2540 S.3   156  CYS156     -0.0798
     80  N         -2.3330  -12.2800   22.0060 N.3   185  CYS185     -0.1221
     81  CA        -2.0820  -12.7710   23.3630 C.3   185  CYS185      0.1808
     82  C         -2.1540  -11.5710   24.2660 C.2   185  CYS185      0.2602
     83  O         -1.7120  -10.4810   23.9100 O.2   185  CYS185     -0.2717
     84  CB        -0.6450  -13.3700   23.5060 C.3   185  CYS185      0.0970
     85  SG        -0.1670  -14.7330   22.3810 S.3   185  CYS185     -0.0800
     86  N         -2.6600  -11.7580   25.4690 N.am  186  GLY186     -0.1943
     87  CA        -2.5130  -10.7390   26.5090 C.3   186  GLY186      0.1998
     88  C         -1.2210  -11.0690   27.2100 C.2   186  GLY186      0.2481
     89  O         -0.3650  -11.7490   26.6360 O.2   186  GLY186     -0.2729
     90  N         -1.0790  -10.6560   28.4730 N.am  187  PRO187     -0.2715
     91  CA         0.0790  -11.0770   29.2420 C.3   187  PRO187      0.1536
     92  C          0.2150  -12.6080   29.3180 C.2   187  PRO187      0.2598
     93  O         -0.7820  -13.3320   29.2580 O.2   187  PRO187     -0.2715
     94  CB        -0.1990  -10.4900   30.6350 C.3   187  PRO187      0.0310
     95  CG        -1.2120   -9.4460   30.4310 C.3   187  PRO187      0.0237
     96  CD        -2.0590   -9.9680   29.3240 C.3   187  PRO187      0.0939
     97  N          1.4470  -13.0820   29.4160 N.am  188  VAL188     -0.1978
     98  CA         1.7120  -14.5130   29.4950 C.3   188  VAL188      0.1596
     99  C          2.6860  -14.7860   30.6420 C.2   188  VAL188      0.2287
    100  O          3.7220  -14.1240   30.7570 O.2   188  VAL188     -0.2864
    101  CB         2.2590  -15.0420   28.1530 C.3   188  VAL188      0.0276
    102  CG1        2.7590  -16.4740   28.2760 C.3   188  VAL188      0.0022
    103  CG2        1.1780  -14.9640   27.0820 C.3   188  VAL188      0.0022
    104  N          3.5770    2.6700   37.2100 N.3   210  TYR210     -0.1241
    105  CA         3.2920    1.6810   36.1520 C.3   210  TYR210      0.1605
    106  C          3.7510    0.2700   36.5240 C.2   210  TYR210      0.2264
    107  O          2.9940   -0.6810   36.3780 O.2   210  TYR210     -0.2867
    108  CB         3.9000    2.0850   34.7990 C.3   210  TYR210      0.0534
    109  CG         3.7270    0.9770   33.7640 C.ar  210  TYR210     -0.0201
    110  CD1        2.5150    0.8310   33.0760 C.ar  210  TYR210     -0.0009
    111  CD2        4.7370    0.0290   33.5390 C.ar  210  TYR210     -0.0009
    112  CE1        2.3240   -0.1880   32.1700 C.ar  210  TYR210      0.0417
    113  CE2        4.5390   -1.0060   32.6340 C.ar  210  TYR210      0.0417
    114  CZ         3.3300   -1.0930   31.9530 C.ar  210  TYR210      0.1957
    115  OH         3.1190   -2.0950   31.0400 O.3   210  TYR210     -0.2866
    116  N          1.3010   -1.1890   39.2990 N.3   213  HIS213     -0.1226
    117  CA        -0.0200   -1.5420   38.7370 C.3   213  HIS213      0.1752
    118  C          0.0520   -2.6570   37.6800 C.2   213  HIS213      0.2596
    119  O         -0.8770   -3.4770   37.5800 O.2   213  HIS213     -0.2718
    120  CB        -0.6980   -0.3080   38.1370 C.3   213  HIS213      0.0759
    121  CG        -2.0160   -0.5920   37.4860 C.ar  213  HIS213      0.0818
    122  ND1       -3.1900   -0.7200   38.1960 N.ar  213  HIS213     -0.2268
    123  CD2       -2.3450   -0.7820   36.1890 C.ar  213  HIS213      0.1154
    124  CE1       -4.1840   -0.9830   37.3660 C.ar  213  HIS213      0.1986
    125  NE2       -3.6980   -1.0210   36.1410 N.ar  213  HIS213     -0.2212
    126  N          1.1340   -2.6880   36.9020 N.am  214  SER214     -0.1952
    127  CA         1.3210   -3.7300   35.8770 C.3   214  SER214      0.1924
    128  C          1.4290   -5.1380   36.4660 C.2   214  SER214      0.2314
    129  O          0.8400   -6.0910   35.9330 O.2   214  SER214     -0.2863
    130  CB         2.5670   -3.4530   35.0320 C.3   214  SER214      0.2116
    131  OG         2.8160   -4.5240   34.1320 O.3   214  SER214     -0.2180
    132  N         -1.8550   -6.5110   37.2630 N.3   217  VAL217     -0.1231
    133  CA        -2.5510   -6.9570   36.0550 C.3   217  VAL217      0.1692
    134  C         -2.0930   -8.3370   35.5980 C.2   217  VAL217      0.2592
    135  O         -2.9300   -9.1160   35.1810 O.2   217  VAL217     -0.2718
    136  CB        -2.4040   -5.9390   34.9020 C.3   217  VAL217      0.0266
    137  CG1       -2.8800   -6.5200   33.5710 C.3   217  VAL217      0.0020
    138  CG2       -3.1640   -4.6530   35.2340 C.3   217  VAL217      0.0020
    139  N         -0.7860   -8.6300   35.6520 N.am  218  PHE218     -0.1976
    140  CA        -0.2700   -9.9770   35.2880 C.3   218  PHE218      0.1639
    141  C         -0.8070  -11.0430   36.2520 C.2   218  PHE218      0.2290
    142  O         -1.3620  -12.0440   35.8080 O.2   218  PHE218     -0.2864
    143  CB         1.2690  -10.0270   35.2280 C.3   218  PHE218      0.0560
    144  CG         1.8500   -9.6350   33.8800 C.ar  218  PHE218     -0.0200
    145  CD1        1.6170   -8.3590   33.3400 C.ar  218  PHE218     -0.0042
    146  CD2        2.6550  -10.5370   33.1480 C.ar  218  PHE218     -0.0042
    147  CE1        2.1550   -7.9990   32.1000 C.ar  218  PHE218     -0.0003
    148  CE2        3.1970  -10.1800   31.9140 C.ar  218  PHE218     -0.0003
    149  CZ         2.9480   -8.9080   31.3910 C.ar  218  PHE218     -0.0000
    150  N         -9.8400   -7.9920   27.3210 N.3   251  PHE251     -0.1241
    151  CA        -9.5830   -6.6280   26.8380 C.3   251  PHE251      0.1605
    152  C        -10.4620   -6.2040   25.6590 C.2   251  PHE251      0.2264
    153  O        -10.2220   -5.1470   25.0890 O.2   251  PHE251     -0.2867
    154  CB        -8.1040   -6.4600   26.4710 C.3   251  PHE251      0.0534
    155  CG        -7.1400   -6.9890   27.5130 C.ar  251  PHE251     -0.0203
    156  CD1       -6.7310   -6.1940   28.5780 C.ar  251  PHE251     -0.0042
    157  CD2       -6.6140   -8.2850   27.4070 C.ar  251  PHE251     -0.0042
    158  CE1       -5.8280   -6.6780   29.5170 C.ar  251  PHE251     -0.0003
    159  CE2       -5.7070   -8.7700   28.3460 C.ar  251  PHE251     -0.0003
    160  CZ        -5.3130   -7.9630   29.4030 C.ar  251  PHE251     -0.0000
    161  N        -12.0680   -2.4870   26.5130 N.3   254  LEU254     -0.1245
    162  CA       -11.0930   -1.4150   26.1760 C.3   254  LEU254      0.1561
    163  C        -10.7640   -1.3180   24.6890 C.2   254  LEU254      0.2260
    164  O        -10.4100   -0.2430   24.1970 O.2   254  LEU254     -0.2867
    165  CB        -9.7670   -1.6350   26.9030 C.3   254  LEU254      0.0270
    166  CG        -9.7010   -1.1230   28.3290 C.3   254  LEU254      0.0019
    167  CD1       -8.6620   -1.9180   29.1110 C.3   254  LEU254      0.0001
    168  CD2       -9.4350    0.3800   28.3650 C.3   254  LEU254      0.0001
    169  N         -7.4410    4.9030   29.2680 N.3   271  MET271     -0.1245
    170  CA        -6.2330    4.1160   29.5400 C.3   271  MET271      0.1570
    171  C         -5.3570    4.7990   30.5720 C.2   271  MET271      0.2261
    172  O         -4.7850    4.1200   31.4320 O.2   271  MET271     -0.2867
    173  CB        -5.4210    3.8000   28.2750 C.3   271  MET271      0.0387
    174  CG        -4.2770    2.7800   28.4700 C.3   271  MET271      0.0595
    175  SD        -4.6830    1.1810   29.2510 S.3   271  MET271     -0.1393
    176  CE        -6.1350    0.7560   28.2920 C.3   271  MET271      0.0692
    177  N         -7.1410    4.3200   34.0750 N.3   274  GLU274     -0.1231
    178  CA        -7.0820    2.8940   34.3950 C.3   274  GLU274      0.1699
    179  C         -5.6720    2.4160   34.7260 C.2   274  GLU274      0.2592
    180  O         -5.5060    1.6080   35.6370 O.2   274  GLU274     -0.2718
    181  CB        -7.6960    2.0850   33.2550 C.3   274  GLU274      0.0402
    182  CG        -7.3080    0.6280   33.1720 C.3   274  GLU274      0.1161
    183  CD        -7.8010   -0.2670   34.3080 C.2   274  GLU274      0.3649
    184  OE1       -6.9530   -0.8920   34.9980 O.co2 274  GLU274     -0.2457
    185  OE2       -9.0370   -0.3780   34.4920 O.co2 274  GLU274     -0.2457
    186  N         -4.6690    2.9230   34.0160 N.am  275  VAL275     -0.1980
    187  CA        -3.2710    2.5750   34.3020 C.3   275  VAL275      0.1595
    188  C         -2.7630    3.3020   35.5410 C.2   275  VAL275      0.2287
    189  O         -2.1620    2.6890   36.4010 O.2   275  VAL275     -0.2864
    190  CB        -2.3280    2.8930   33.1210 C.3   275  VAL275      0.0276
    191  CG1       -0.8550    2.7490   33.5450 C.3   275  VAL275      0.0022
    192  CG2       -2.6280    1.9720   31.9460 C.3   275  VAL275      0.0022
@<TRIPOS>BOND
     1    77    76    2
     2    76    75    1
     3    21    22    1
     4    24    23    2
     5    65    64    2
     6    75    78    1
     7    75    74    1
     8    38    39    1
     9    37    36    2
    10    64    74   am
    11    64    63    1
    12    36    35    1
    13    23    22    1
    14    23    27   am
    15    22    25    1
    16    78    79    1
    17    25    26    1
    18    39    40    1
    19    39    42    1
    20    80    81    1
    21    63    62    1
    22    63    66    1
    23    30    29    2
    24    85    84    1
    25    27    28    1
    26    40    41    2
    27    29    28    1
    28    29    34   am
    29    28    31    1
    30    35    34    1
    31    42    43    2
    32    70    68   ar
    33    70    72   ar
    34    73    72    1
    35    68    67   ar
    36    72    71   ar
    37    81    84    1
    38    81    82    1
    39    67    66    1
    40    67    69   ar
    41    71    69   ar
    42    12    10    1
    43    57    56    2
    44    45    44    1
    45    83    82    2
    46    43    44    1
    47    31    33    1
    48    31    32    1
    49     1     2    1
    50   164   163    2
    51    82    86   am
    52     9    10    1
    53     9     6    1
    54    56    55    1
    55   163   162    1
    56     4     3    2
    57    10    11    1
    58     2     3    1
    59     3     5   am
    60   153   152    2
    61    46    47    1
    62     5     6    1
    63    86    87    1
    64   152   151    1
    65     6     7    1
    66    55    58    1
    67    55    54    1
    68     8     7    2
    69   162   161    1
    70   162   165    1
    71    58    59    1
    72    52    51    1
    73    49    48    2
    74   154   151    1
    75   154   155    1
    76    87    88    1
    77    47    48    1
    78    47    50    1
    79    89    88    2
    80     7    13   am
    81   151   150    1
    82   165   166    1
    83    50    51    1
    84   103   101    1
    85    51    53    1
    86    88    90   am
    87   157   155   ar
    88   157   159   ar
    89   155   156   ar
    90    60    59    2
    91    59    61   am
    92    13    14    1
    93   101   102    1
    94   101    98    1
    95   173   174    1
    96   173   170    1
    97   176   175    1
    98   166   168    1
    99   166   167    1
   100   159   160   ar
   101   174   175    1
   102    90    91    1
   103    90    96    1
   104   156   158   ar
   105    14    15    1
   106    14    17    1
   107    91    92    1
   108    91    94    1
   109    93    92    2
   110   169   170    1
   111    92    97   am
   112    96    95    1
   113    15    16    2
   114   160   158   ar
   115    97    98    1
   116    98    99    1
   117   170   171    1
   118    17    18    1
   119    19    18    1
   120    95    94    1
   121   171   172    2
   122    99   100    2
   123    18    20    1
   124   115   114    1
   125   149   148   ar
   126   149   147   ar
   127   148   146   ar
   128   192   190    1
   129   114   112   ar
   130   114   113   ar
   131   147   145   ar
   132   112   110   ar
   133   113   111   ar
   134   110   109   ar
   135   190   191    1
   136   190   187    1
   137   146   144   ar
   138   182   181    1
   139   182   183    1
   140   181   178    1
   141   145   144   ar
   142   111   109   ar
   143   137   136    1
   144   109   108    1
   145   144   143    1
   146   186   187    1
   147   186   179   am
   148   177   178    1
   149   131   130    1
   150   187   188    1
   151   183   185   ar
   152   183   184   ar
   153   178   179    1
   154   179   180    2
   155   108   105    1
   156   136   138    1
   157   136   133    1
   158   130   127    1
   159   135   134    2
   160   143   140    1
   161   140   139    1
   162   140   141    1
   163   188   189    2
   164   134   139   am
   165   134   133    1
   166   142   141    2
   167   127   128    1
   168   127   126    1
   169   129   128    2
   170   133   132    1
   171   125   123   ar
   172   125   124   ar
   173   105   106    1
   174   105   104    1
   175   123   121   ar
   176   107   106    2
   177   126   118   am
   178   124   122   ar
   179   121   120    1
   180   121   122   ar
   181   119   118    2
   182   118   117    1
   183   120   117    1
   184   117   116    1
