@<TRIPOS>MOLECULE
tmp/6cgcB00.pdb
 159 151 0 0 0
SMALL
GASTEIGER

@<TRIPOS>ATOM
      1  N          9.2720  -20.7660   14.9910 N.3     8  THR8       -0.1203
      2  CA        10.4090  -20.0590   15.6210 C.3     8  THR8        0.1994
      3  C         10.2010  -19.7950   17.1490 C.2     8  THR8        0.2618
      4  O          9.0900  -19.9090   17.6750 O.2     8  THR8       -0.2717
      5  CB        10.7240  -18.7460   14.9000 C.3     8  THR8        0.1784
      6  OG1        9.6910  -17.8280   15.1700 O.3     8  THR8       -0.2211
      7  CG2       10.8370  -18.9220   13.3410 C.3     8  THR8        0.0376
      8  N         11.2890  -19.4440   17.8260 N.am    9  GLY9       -0.1942
      9  CA        11.3020  -19.1800   19.2800 C.3     9  GLY9        0.2014
     10  C         10.7510  -20.3340   20.0890 C.2     9  GLY9        0.2639
     11  O          9.7600  -20.1680   20.7630 O.2     9  GLY9       -0.2714
     12  N         11.3990  -21.5020   20.0010 N.am   10  CYS10      -0.1953
     13  CA        10.8500  -22.7720   20.5310 C.3    10  CYS10       0.1843
     14  C         11.5210  -23.2780   21.8060 C.2    10  CYS10       0.2626
     15  O         11.1570  -24.3420   22.3120 O.2    10  CYS10      -0.2714
     16  CB        10.8900  -23.8570   19.4720 C.3    10  CYS10       0.0997
     17  SG         9.5000  -23.7370   18.3480 S.3    10  CYS10      -0.0797
     18  N         12.4570  -22.5040   22.3420 N.am   11  SER11      -0.1936
     19  CA        13.2730  -22.9440   23.4700 C.3    11  SER11       0.2055
     20  C         12.5250  -22.8250   24.7930 C.2    11  SER11       0.2644
     21  O         12.7180  -23.6530   25.6660 O.2    11  SER11      -0.2714
     22  CB        14.5750  -22.1480   23.5410 C.3    11  SER11       0.2130
     23  OG        14.3770  -20.9810   24.2970 O.3    11  SER11      -0.2179
     24  N         11.7030  -21.7940   24.9370 N.am   12  SER12      -0.1935
     25  CA        10.8270  -21.6130   26.1270 C.3    12  SER12       0.2055
     26  C          9.4180  -21.1920   25.6980 C.2    12  SER12       0.2644
     27  O          9.1510  -21.0910   24.5270 O.2    12  SER12      -0.2714
     28  CB        11.4270  -20.5610   27.0780 C.3    12  SER12       0.2130
     29  OG        11.6140  -19.3070   26.4480 O.3    12  SER12      -0.2179
     30  N          8.5370  -20.9330   26.6530 N.am   13  GLY13      -0.1939
     31  CA         7.2680  -20.2410   26.3970 C.3    13  GLY13       0.2014
     32  C          6.3900  -20.8750   25.3370 C.2    13  GLY13       0.2638
     33  O          6.4600  -22.0760   25.1240 O.2    13  GLY13      -0.2714
     34  N          5.6030  -20.0500   24.6370 N.am   14  ILE14      -0.1977
     35  CA         4.5600  -20.5170   23.6930 C.3    14  ILE14       0.1596
     36  C          5.1050  -21.4960   22.6080 C.2    14  ILE14       0.2287
     37  O          4.4400  -22.5000   22.2940 O.2    14  ILE14      -0.2864
     38  CB         3.8080  -19.3180   23.0120 C.3    14  ILE14       0.0276
     39  CG1        3.0310  -18.5000   24.0490 C.3    14  ILE14       0.0022
     40  CG2        2.8200  -19.8200   21.9830 C.3    14  ILE14       0.0022
     41  CD1        2.5630  -17.1130   23.6120 C.3    14  ILE14       0.0001
     42  N         15.2680  -22.5510   17.0480 N.3    36  LEU36      -0.1231
     43  CA        15.8020  -21.8620   18.2210 C.3    36  LEU36       0.1693
     44  C         16.8800  -20.8750   17.8080 C.2    36  LEU36       0.2592
     45  O         17.6320  -21.1670   16.8720 O.2    36  LEU36      -0.2718
     46  CB        16.4150  -22.8870   19.1960 C.3    36  LEU36       0.0284
     47  CG        15.4470  -23.8500   19.9010 C.3    36  LEU36       0.0019
     48  CD1       15.2090  -25.1550   19.1720 C.3    36  LEU36       0.0001
     49  CD2       15.9310  -24.1850   21.3000 C.3    36  LEU36       0.0001
     50  N         16.9530  -19.7150   18.4840 N.am   37  ARG37      -0.1966
     51  CA        18.0360  -18.7460   18.2650 C.3    37  ARG37       0.1729
     52  C         19.4190  -19.4030   18.5050 C.2    37  ARG37       0.2616
     53  O         20.3560  -19.2070   17.7210 O.2    37  ARG37      -0.2715
     54  CB        17.8780  -17.5290   19.1720 C.3    37  ARG37       0.0348
     55  CG        18.7610  -16.3260   18.8440 C.3    37  ARG37       0.0492
     56  CD        18.6340  -15.1860   19.8840 C.3    37  ARG37       0.2205
     57  NE        18.6570  -15.7010   21.2580 N.pl3  37  ARG37      -0.0865
     58  CZ        19.7350  -16.2020   21.8660 C.cat  37  ARG37       0.5346
     59  NH1       20.9330  -16.2260   21.2680 N.pl3  37  ARG37       0.1354
     60  NH2       19.6240  -16.6930   23.0930 N.pl3  37  ARG37       0.1354
     61  N         19.5090  -20.1830   19.5810 N.am   38  ASP38      -0.1971
     62  CA        20.6880  -20.9720   19.9230 C.3    38  ASP38       0.1709
     63  C         20.2680  -22.4420   20.1620 C.2    38  ASP38       0.2293
     64  O         19.5270  -22.7390   21.1390 O.2    38  ASP38      -0.2864
     65  CB        21.3560  -20.3480   21.1750 C.3    38  ASP38       0.1436
     66  CG        22.7410  -20.9610   21.5140 C.2    38  ASP38       0.3671
     67  OD1       23.2580  -21.8430   20.7850 O.co2  38  ASP38      -0.2456
     68  OD2       23.3120  -20.5380   22.5400 O.co2  38  ASP38      -0.2456
     69  N         20.3760  -24.2250   23.6880 N.3    41  THR41      -0.1218
     70  CA        19.2580  -24.0840   24.6540 C.3    41  THR41       0.1862
     71  C         18.1290  -25.1120   24.4950 C.2    41  THR41       0.2287
     72  O         17.1000  -25.0110   25.1670 O.2    41  THR41      -0.2866
     73  CB        18.6320  -22.6980   24.4740 C.3    41  THR41       0.1770
     74  OG1       18.5060  -22.4310   23.0630 O.3    41  THR41      -0.2211
     75  CG2       19.5120  -21.6680   25.0440 C.3    41  THR41       0.0375
     76  N         17.7370  -21.2580   14.0260 N.3    64  LEU64      -0.1231
     77  CA        17.1700  -20.2070   13.1680 C.3    64  LEU64       0.1693
     78  C         17.1930  -18.9440   14.0250 C.2    64  LEU64       0.2592
     79  O         16.5550  -18.9000   15.0830 O.2    64  LEU64      -0.2718
     80  CB        15.7550  -20.5530   12.7150 C.3    64  LEU64       0.0284
     81  CG        15.2460  -19.8310   11.4560 C.3    64  LEU64       0.0019
     82  CD1       13.9810  -20.4850   10.9520 C.3    64  LEU64       0.0001
     83  CD2       14.9660  -18.3460   11.6870 C.3    64  LEU64       0.0001
     84  N         18.0270  -18.0000   13.6040 N.am   65  ASP65      -0.1960
     85  CA        18.1580  -16.6860   14.1890 C.3    65  ASP65       0.1840
     86  C         17.5040  -15.7250   13.2060 C.2    65  ASP65       0.2622
     87  O         18.0210  -15.5340   12.1170 O.2    65  ASP65      -0.2715
     88  CB        19.6460  -16.3390   14.3680 C.3    65  ASP65       0.1450
     89  CG        19.8570  -14.9570   14.9330 C.2    65  ASP65       0.3671
     90  OD1       18.9510  -14.1050   14.8000 O.co2  65  ASP65      -0.2456
     91  OD2       20.9290  -14.7170   15.5250 O.co2  65  ASP65      -0.2456
     92  N         16.3740  -15.1380   13.5900 N.am   66  VAL66      -0.1963
     93  CA        15.5700  -14.3390   12.6600 C.3    66  VAL66       0.1727
     94  C         16.1850  -12.9750   12.3110 C.2    66  VAL66       0.2616
     95  O         15.6930  -12.2930   11.4260 O.2    66  VAL66      -0.2715
     96  CB        14.1090  -14.0960   13.1520 C.3    66  VAL66       0.0290
     97  CG1       13.3610  -15.4070   13.3470 C.3    66  VAL66       0.0023
     98  CG2       14.0760  -13.2280   14.4170 C.3    66  VAL66       0.0023
     99  N         17.2480  -12.5710   12.9960 N.am   67  ARG67      -0.1977
    100  CA        18.0000  -11.3920   12.6000 C.3    67  ARG67       0.1597
    101  C         18.7990  -11.6410   11.3270 C.2    67  ARG67       0.2287
    102  O         19.2630  -10.6970   10.7300 O.2    67  ARG67      -0.2864
    103  CB        18.9470  -10.9430   13.7120 C.3    67  ARG67       0.0334
    104  CG        18.2350  -10.5360   15.0200 C.3    67  ARG67       0.0492
    105  CD        19.2030  -10.3760   16.1920 C.3    67  ARG67       0.2205
    106  NE        19.6950  -11.6750   16.6550 N.pl3  67  ARG67      -0.0865
    107  CZ        20.3610  -11.9000   17.7890 C.cat  67  ARG67       0.5346
    108  NH1       20.6680  -10.9180   18.6480 N.pl3  67  ARG67       0.1354
    109  NH2       20.7220  -13.1420   18.0760 N.pl3  67  ARG67       0.1354
    110  N          6.8800  -16.8460   15.7910 N.3    90  ASN90      -0.1225
    111  CA         6.6420  -16.5820   17.1860 C.3    90  ASN90       0.1785
    112  C          7.7670  -15.8080   17.8650 C.2    90  ASN90       0.2597
    113  O          7.5000  -15.0990   18.8320 O.2    90  ASN90      -0.2718
    114  CB         6.3110  -17.9300   17.8300 C.3    90  ASN90       0.1169
    115  CG         6.3310  -17.8860   19.3320 C.2    90  ASN90       0.2627
    116  OD1        5.4440  -17.3410   19.9600 O.2    90  ASN90      -0.2716
    117  ND2        7.3230  -18.4840   19.9060 N.am   90  ASN90      -0.0877
    118  N          9.0040  -15.8710   17.3490 N.am   91  ALA91      -0.1966
    119  CA        10.1370  -15.1040   17.8920 C.3    91  ALA91       0.1728
    120  C          9.8860  -13.6210   18.1940 C.2    91  ALA91       0.2617
    121  O          9.5240  -12.8270   17.3190 O.2    91  ALA91      -0.2715
    122  CB        11.3050  -15.2000   16.9500 C.3    91  ALA91       0.0334
    123  N         10.1340  -13.1990   19.4260 N.am   92  GLY92      -0.1940
    124  CA         9.8690  -11.8080   19.7740 C.3    92  GLY92       0.2014
    125  C         10.6120  -11.3750   20.9880 C.2    92  GLY92       0.2639
    126  O         10.9060  -12.2120   21.8190 O.2    92  GLY92      -0.2714
    127  N         10.9440  -10.0780   21.0760 N.am   93  LEU93      -0.1963
    128  CA        11.4990   -9.4970   22.2820 C.3    93  LEU93       0.1728
    129  C         10.5770   -8.4650   22.8730 C.2    93  LEU93       0.2616
    130  O          9.7750   -7.8550   22.1680 O.2    93  LEU93      -0.2715
    131  CB        12.7680   -8.7300   21.9950 C.3    93  LEU93       0.0311
    132  CG        13.8720   -9.4350   21.2560 C.3    93  LEU93       0.0022
    133  CD1       14.8410   -8.3630   20.8070 C.3    93  LEU93       0.0001
    134  CD2       14.5030  -10.4830   22.1680 C.3    93  LEU93       0.0001
    135  N         10.7690   -8.2390   24.1660 N.am   94  GLY94      -0.1955
    136  CA        10.1930   -7.1380   24.8740 C.3    94  GLY94       0.1869
    137  C         11.1770   -5.9900   25.0680 C.2    94  GLY94       0.2309
    138  O         12.4350   -6.1190   24.8610 O.2    94  GLY94      -0.2863
    139  N         14.2210   -7.8440   15.3360 N.3   113  VAL113     -0.1245
    140  CA        13.6540   -9.1490   15.6580 C.3   113  VAL113      0.1561
    141  C         12.1190   -9.2760   15.4020 C.2   113  VAL113      0.2260
    142  O         11.7190  -10.1510   14.6700 O.2   113  VAL113     -0.2867
    143  CB        14.0390   -9.5590   17.0840 C.3   113  VAL113      0.0252
    144  CG1       13.3840  -10.8800   17.4760 C.3   113  VAL113      0.0019
    145  CG2       15.5640   -9.7050   17.1560 C.3   113  VAL113      0.0019
    146  N          1.4470  -13.0820   29.4160 N.3   188  VAL188     -0.1245
    147  CA         1.7120  -14.5130   29.4950 C.3   188  VAL188      0.1561
    148  C          2.6860  -14.7860   30.6420 C.2   188  VAL188      0.2260
    149  O          3.7220  -14.1240   30.7570 O.2   188  VAL188     -0.2867
    150  CB         2.2590  -15.0420   28.1530 C.3   188  VAL188      0.0252
    151  CG1        2.7590  -16.4740   28.2760 C.3   188  VAL188      0.0019
    152  CG2        1.1780  -14.9640   27.0820 C.3   188  VAL188      0.0019
    153  N          5.6250  -16.6080   32.6100 N.3   190  THR190     -0.1218
    154  CA         6.8710  -17.3090   32.2310 C.3   190  THR190      0.1862
    155  C          7.6860  -17.6890   33.4610 C.2   190  THR190      0.2287
    156  O          8.0350  -16.8260   34.2580 O.2   190  THR190     -0.2866
    157  CB         7.7460  -16.4500   31.3050 C.3   190  THR190      0.1770
    158  OG1        7.7330  -15.0960   31.7700 O.3   190  THR190     -0.2211
    159  CG2        7.2330  -16.5040   29.8740 C.3   190  THR190      0.0375
@<TRIPOS>BOND
     1   102   101    2
     2    82    81    1
     3   101   100    1
     4    95    94    2
     5    81    83    1
     6    81    80    1
     7    87    86    2
     8    94    93    1
     9    94    99   am
    10   100    99    1
    11   100   103    1
    12    93    96    1
    13    93    92    1
    14    80    77    1
    15    96    97    1
    16    96    98    1
    17    77    78    1
    18    77    76    1
    19    86    92   am
    20    86    85    1
    21     7     5    1
    22    84    78   am
    23    84    85    1
    24   103   104    1
    25    78    79    2
    26    85    88    1
    27    88    89    1
    28   142   141    2
    29    90    89   ar
    30     5     6    1
    31     5     2    1
    32    89    91   ar
    33     1     2    1
    34   104   105    1
    35   139   140    1
    36   141   140    1
    37     2     3    1
    38   140   143    1
    39   110   111    1
    40   105   106    1
    41   106   107    2
    42    45    44    2
    43   122   119    1
    44    42    43    1
    45   143   145    1
    46   143   144    1
    47     3     4    2
    48     3     8   am
    49   111   114    1
    50   111   112    1
    51   121   120    2
    52   118   112   am
    53   118   119    1
    54    53    52    2
    55   107   109    1
    56   107   108    1
    57    44    43    1
    58    44    50   am
    59     8     9    1
    60   114   115    1
    61   112   113    2
    62   119   120    1
    63   120   123   am
    64    43    46    1
    65    51    50    1
    66    51    52    1
    67    51    54    1
    68    17    16    1
    69    52    61   am
    70    55    54    1
    71    55    56    1
    72    48    47    1
    73    46    47    1
    74     9    10    1
    75   115   117   am
    76   115   116    2
    77   123   124    1
    78    16    13    1
    79    61    62    1
    80   124   125    1
    81    56    57    1
    82    47    49    1
    83    62    63    1
    84    62    65    1
    85    12    10   am
    86    12    13    1
    87    10    11    2
    88    63    64    2
    89    13    14    1
    90    67    66   ar
    91   133   132    1
    92   125   127   am
    93   125   126    2
    94   127   128    1
    95    65    66    1
    96   132   131    1
    97   132   134    1
    98    57    58    2
    99    59    58    1
   100    66    68   ar
   101    14    15    2
   102    14    18   am
   103    58    60    1
   104    40    38    1
   105   131   128    1
   106   130   129    2
   107   128   129    1
   108    37    36    2
   109    18    19    1
   110    36    35    1
   111   129   135   am
   112    38    35    1
   113    38    39    1
   114    74    73    1
   115    19    22    1
   116    19    20    1
   117    22    23    1
   118    41    39    1
   119    69    70    1
   120    35    34    1
   121   135   136    1
   122    73    70    1
   123    73    75    1
   124    71    70    1
   125    71    72    2
   126    27    26    2
   127    34    32   am
   128    20    24   am
   129    20    21    2
   130   138   137    2
   131   136   137    1
   132    24    25    1
   133    33    32    2
   134    32    31    1
   135    26    25    1
   136    26    30   am
   137    25    28    1
   138    31    30    1
   139    29    28    1
   140   152   150    1
   141   150   151    1
   142   150   147    1
   143   146   147    1
   144   147   148    1
   145   159   157    1
   146   148   149    2
   147   157   158    1
   148   157   154    1
   149   154   153    1
   150   154   155    1
   151   155   156    2
