@<TRIPOS>MOLECULE
tmp/6cgeA01.pdb
 200 191 0 0 0
SMALL
GASTEIGER

@<TRIPOS>ATOM
      1  N        -11.7510   -5.8000   -1.0090 N.3    94  GLY94      -0.1210
      2  CA       -12.7080   -4.8920   -0.4110 C.3    94  GLY94       0.1956
      3  C        -12.0590   -3.5670   -0.1050 C.2    94  GLY94       0.2612
      4  O        -10.8260   -3.4480   -0.0950 O.2    94  GLY94      -0.2717
      5  N        -12.8990   -2.5660    0.1310 N.am   95  LEU95      -0.1965
      6  CA       -12.4480   -1.2670    0.6440 C.3    95  LEU95       0.1728
      7  C        -13.6390   -0.5140    1.1750 C.2    95  LEU95       0.2616
      8  O        -14.7070   -0.4480    0.5460 O.2    95  LEU95      -0.2715
      9  CB       -11.7380   -0.4270   -0.4420 C.3    95  LEU95       0.0311
     10  CG       -11.0240    0.8500    0.0010 C.3    95  LEU95       0.0022
     11  CD1      -10.0570    0.5750    1.1320 C.3    95  LEU95       0.0001
     12  CD2      -10.2890    1.5250   -1.1470 C.3    95  LEU95       0.0001
     13  N        -13.4490    0.0630    2.3470 N.am   96  LEU96      -0.1977
     14  CA       -14.5600    0.5160    3.1490 C.3    96  LEU96       0.1596
     15  C        -14.0890    1.7100    3.9600 C.2    96  LEU96       0.2287
     16  O        -13.0880    1.6200    4.6650 O.2    96  LEU96      -0.2864
     17  CB       -15.0070   -0.6180    4.0350 C.3    96  LEU96       0.0297
     18  CG       -16.2920   -0.4890    4.8220 C.3    96  LEU96       0.0022
     19  CD1      -17.4730   -0.2560    3.9120 C.3    96  LEU96       0.0001
     20  CD2      -16.4850   -1.7870    5.6140 C.3    96  LEU96       0.0001
     21  N        -21.6830   -8.1990   -7.8700 N.3   142  SER142     -0.1202
     22  CA       -22.1940   -7.7330   -6.5870 C.3   142  SER142      0.2020
     23  C        -23.3970   -6.8280   -6.7120 C.2   142  SER142      0.2619
     24  O        -23.6220   -6.1710   -7.7490 O.2   142  SER142     -0.2717
     25  CB       -21.1310   -6.9740   -5.8210 C.3   142  SER142      0.2103
     26  OG       -21.6240   -6.6020   -4.5520 O.3   142  SER142     -0.2182
     27  N        -24.1320   -6.7650   -5.6070 N.am  143  VAL143     -0.1965
     28  CA       -25.2900   -5.8760   -5.4900 C.3   143  VAL143      0.1727
     29  C        -24.7670   -4.4310   -5.4460 C.2   143  VAL143      0.2616
     30  O        -25.3220   -3.5520   -6.0900 O.2   143  VAL143     -0.2715
     31  CB       -26.1860   -6.2760   -4.2850 C.3   143  VAL143      0.0290
     32  CG1      -27.1970   -5.2000   -3.9480 C.3   143  VAL143      0.0023
     33  CG2      -26.9190   -7.5770   -4.5970 C.3   143  VAL143      0.0023
     34  N        -23.6370   -4.2380   -4.7800 N.am  144  GLY144     -0.1955
     35  CA       -22.8790   -3.0120   -4.8580 C.3   144  GLY144      0.1869
     36  C        -22.3470   -2.6000   -6.2330 C.2   144  GLY144      0.2309
     37  O        -21.6410   -1.5910   -6.3080 O.2   144  GLY144     -0.2863
     38  N        -26.2180   -0.8790   -7.4040 N.3   147  MET147     -0.1196
     39  CA       -26.6830    0.2410   -6.6030 C.3   147  MET147      0.1786
     40  C        -25.5180    0.7280   -5.7830 C.2   147  MET147      0.2306
     41  O        -24.6820   -0.0750   -5.3830 O.2   147  MET147     -0.2863
     42  CB       -27.8440   -0.1900   -5.6800 C.2   147  MET147      0.0070
     43  CG       -27.4510   -0.9740   -4.4150 C.2   147  MET147      0.0282
     44  SD       -28.8160   -1.5310   -3.3440 S.3   147  MET147     -0.1125
     45  CE       -30.0170   -1.9590   -4.6150 C.3   147  MET147      0.0742
     46  N        -23.6850    2.6260   -2.4370 N.3   149  LEU149     -0.1245
     47  CA       -23.8960    2.6780   -0.9950 C.3   149  LEU149      0.1561
     48  C        -22.8120    3.4860   -0.3210 C.2   149  LEU149      0.2260
     49  O        -21.6240    3.3200   -0.6450 O.2   149  LEU149     -0.2867
     50  CB       -23.8380    1.2750   -0.4070 C.3   149  LEU149      0.0270
     51  CG       -24.7950    0.2420   -0.9990 C.3   149  LEU149      0.0019
     52  CD1      -24.1730   -1.1160   -0.8220 C.3   149  LEU149      0.0001
     53  CD2      -26.1810    0.2960   -0.3790 C.3   149  LEU149      0.0001
     54  N        -18.9460    2.7570    0.6380 N.3   152  ASN152     -0.1240
     55  CA       -18.4540    1.7590   -0.3320 C.3   152  ASN152      0.1653
     56  C        -18.1660    2.4420   -1.6540 C.2   152  ASN152      0.2266
     57  O        -18.3720    1.8320   -2.6770 O.2   152  ASN152     -0.2867
     58  CB       -19.5270    0.6860   -0.6220 C.3   152  ASN152      0.1155
     59  CG       -19.9500   -0.0890    0.6090 C.2   152  ASN152      0.2627
     60  OD1      -19.2210   -0.9430    1.0930 O.2   152  ASN152     -0.2716
     61  ND2      -21.1450    0.1920    1.1000 N.am  152  ASN152     -0.0877
     62  N        -15.1620    0.5240   -3.6660 N.3   155  TYR155     -0.1227
     63  CA       -15.6660   -0.8350   -3.8910 C.3   155  TYR155      0.1736
     64  C        -16.8180   -0.8550   -4.8940 C.2   155  TYR155      0.2595
     65  O        -16.8270   -1.6750   -5.8240 O.2   155  TYR155     -0.2718
     66  CB       -16.1160   -1.4780   -2.5770 C.3   155  TYR155      0.0548
     67  CG       -16.6800   -2.8720   -2.7420 C.ar  155  TYR155     -0.0200
     68  CD1      -15.8500   -3.9870   -2.7070 C.ar  155  TYR155     -0.0009
     69  CD2      -18.0460   -3.0670   -2.9400 C.ar  155  TYR155     -0.0009
     70  CE1      -16.3650   -5.2750   -2.8560 C.ar  155  TYR155      0.0417
     71  CE2      -18.5730   -4.3290   -3.1020 C.ar  155  TYR155      0.0417
     72  CZ       -17.7340   -5.4330   -3.0460 C.ar  155  TYR155      0.1957
     73  OH       -18.2760   -6.6830   -3.2100 O.3   155  TYR155     -0.2866
     74  N        -17.7940    0.0360   -4.7010 N.am  156  CYS156     -0.1970
     75  CA       -18.9320    0.1360   -5.6260 C.3   156  CYS156      0.1712
     76  C        -18.5200    0.5050   -7.0520 C.2   156  CYS156      0.2296
     77  O        -19.0380   -0.0700   -8.0140 O.2   156  CYS156     -0.2864
     78  CB       -19.9910    1.1240   -5.1280 C.3   156  CYS156      0.0983
     79  SG       -21.0730    0.4590   -3.8330 S.3   156  CYS156     -0.0798
     80  N        -23.9710  -11.1790   -6.1390 N.3   185  CYS185     -0.1221
     81  CA       -23.9980  -11.5870   -4.7330 C.3   185  CYS185      0.1808
     82  C        -24.4300  -10.4400   -3.8650 C.2   185  CYS185      0.2602
     83  O        -24.0380   -9.3100   -4.1260 O.2   185  CYS185     -0.2717
     84  CB       -22.5970  -11.9840   -4.2610 C.3   185  CYS185      0.0970
     85  SG       -21.9080  -13.4360   -5.0840 S.3   185  CYS185     -0.0800
     86  N        -25.2090  -10.7360   -2.8190 N.am  186  GLY186     -0.1943
     87  CA       -25.4420   -9.8060   -1.7210 C.3   186  GLY186      0.1998
     88  C        -24.4050  -10.0780   -0.6650 C.2   186  GLY186      0.2481
     89  O        -23.3350  -10.6150   -0.9800 O.2   186  GLY186     -0.2729
     90  N        -24.7080   -9.7580    0.6130 N.am  187  PRO187     -0.2715
     91  CA       -23.7200  -10.0940    1.6550 C.3   187  PRO187      0.1536
     92  C        -23.5060  -11.6140    1.8010 C.2   187  PRO187      0.2598
     93  O        -24.3610  -12.4150    1.3540 O.2   187  PRO187     -0.2715
     94  CB       -24.2920   -9.4730    2.9420 C.3   187  PRO187      0.0310
     95  CG       -25.6890   -9.0510    2.6200 C.3   187  PRO187      0.0237
     96  CD       -25.9910   -9.3010    1.1730 C.3   187  PRO187      0.0939
     97  N        -22.3650  -11.9670    2.4090 N.am  188  VAL188     -0.1978
     98  CA       -21.8410  -13.3330    2.4450 C.3   188  VAL188      0.1596
     99  C        -21.1070  -13.6010    3.7580 C.2   188  VAL188      0.2287
    100  O        -20.3720  -12.7390    4.2290 O.2   188  VAL188     -0.2864
    101  CB       -20.8500  -13.5880    1.2760 C.3   188  VAL188      0.0276
    102  CG1      -20.5240  -15.0720    1.1510 C.3   188  VAL188      0.0022
    103  CG2      -21.4100  -13.0790   -0.0480 C.3   188  VAL188      0.0022
    104  N        -11.7680   -3.8180    7.6750 N.3   191  LEU191     -0.1245
    105  CA       -11.2860   -2.8940    6.6510 C.3   191  LEU191      0.1561
    106  C        -11.1250   -1.4370    7.1430 C.2   191  LEU191      0.2260
    107  O        -10.3090   -0.6880    6.5950 O.2   191  LEU191     -0.2867
    108  CB       -12.2030   -2.9670    5.4200 C.3   191  LEU191      0.0270
    109  CG       -12.5490   -4.3870    4.9220 C.3   191  LEU191      0.0019
    110  CD1      -13.3270   -4.3290    3.6140 C.3   191  LEU191      0.0001
    111  CD2      -11.3060   -5.2640    4.7680 C.3   191  LEU191      0.0001
    112  N        -23.3200    3.9190    9.7170 N.3   212  TYR212     -0.1241
    113  CA       -23.3520    2.9580    8.6090 C.3   212  TYR212      0.1605
    114  C        -22.8600    1.5720    9.0570 C.2   212  TYR212      0.2264
    115  O        -23.5140    0.5870    8.7470 O.2   212  TYR212     -0.2867
    116  CB       -22.5670    3.4290    7.3600 C.3   212  TYR212      0.0534
    117  CG       -22.4560    2.3280    6.3250 C.ar  212  TYR212     -0.0201
    118  CD1      -23.5350    2.0150    5.5000 C.ar  212  TYR212     -0.0009
    119  CD2      -21.3030    1.5530    6.2250 C.ar  212  TYR212     -0.0009
    120  CE1      -23.4550    0.9870    4.5750 C.ar  212  TYR212      0.0417
    121  CE2      -21.2110    0.5160    5.3120 C.ar  212  TYR212      0.0417
    122  CZ       -22.2820    0.2380    4.4910 C.ar  212  TYR212      0.1957
    123  OH       -22.1920   -0.7880    3.5870 O.3   212  TYR212     -0.2866
    124  N        -25.1450   -0.1590   11.4020 N.3   215  HIS215     -0.1226
    125  CA       -26.3430   -0.5150   10.6140 C.3   215  HIS215      0.1752
    126  C        -26.1040   -1.7140    9.7020 C.2   215  HIS215      0.2596
    127  O        -27.0230   -2.4990    9.4600 O.2   215  HIS215     -0.2718
    128  CB       -26.8250    0.6700    9.7600 C.3   215  HIS215      0.0759
    129  CG       -27.9690    0.3410    8.8400 C.ar  215  HIS215      0.0818
    130  ND1      -29.2350    0.0530    9.3020 N.ar  215  HIS215     -0.2268
    131  CD2      -28.0400    0.2690    7.4890 C.ar  215  HIS215      0.1154
    132  CE1      -30.0360   -0.1870    8.2780 C.ar  215  HIS215      0.1986
    133  NE2      -29.3330   -0.0830    7.1630 N.ar  215  HIS215     -0.2212
    134  N        -24.8880   -1.8290    9.1660 N.am  216  SER216     -0.1952
    135  CA       -24.5590   -2.8560    8.1700 C.3   216  SER216      0.1924
    136  C        -24.5760   -4.2420    8.8010 C.2   216  SER216      0.2314
    137  O        -25.2020   -5.1710    8.2610 O.2   216  SER216     -0.2863
    138  CB       -23.1890   -2.5790    7.5370 C.3   216  SER216      0.2116
    139  OG       -23.0170   -3.3380    6.3520 O.3   216  SER216     -0.2180
    140  N        -27.8300   -5.9090    8.6030 N.3   219  VAL219     -0.1231
    141  CA       -28.1580   -6.5410    7.3030 C.3   219  VAL219      0.1692
    142  C        -27.2720   -7.7790    7.0160 C.2   219  VAL219      0.2592
    143  O        -27.6900   -8.7000    6.2940 O.2   219  VAL219     -0.2718
    144  CB       -28.0900   -5.5090    6.1490 C.3   219  VAL219      0.0266
    145  CG1      -28.4030   -6.1560    4.7990 C.3   219  VAL219      0.0020
    146  CG2      -29.0520   -4.3540    6.4240 C.3   219  VAL219      0.0020
    147  N        -26.0500   -7.7700    7.5660 N.am  220  PHE220     -0.1976
    148  CA       -25.2040   -8.9780    7.7200 C.3   220  PHE220      0.1639
    149  C        -26.0970  -10.0940    8.3080 C.2   220  PHE220      0.2290
    150  O        -26.4050  -11.0930    7.6450 O.2   220  PHE220     -0.2864
    151  CB       -24.0030   -8.6680    8.6630 C.3   220  PHE220      0.0560
    152  CG       -22.6480   -9.1460    8.1730 C.ar  220  PHE220     -0.0200
    153  CD1      -21.9230   -8.4030    7.2310 C.ar  220  PHE220     -0.0042
    154  CD2      -22.0510  -10.2960    8.7130 C.ar  220  PHE220     -0.0042
    155  CE1      -20.6620   -8.8230    6.8070 C.ar  220  PHE220     -0.0003
    156  CE2      -20.7890  -10.7200    8.2920 C.ar  220  PHE220     -0.0003
    157  CZ       -20.0940   -9.9830    7.3390 C.ar  220  PHE220     -0.0000
    158  N        -32.8100   -7.7960   -2.0090 N.3   253  PHE253     -0.1241
    159  CA       -32.5390   -6.4500   -2.5220 C.3   253  PHE253      0.1605
    160  C        -33.2670   -6.0650   -3.8250 C.2   253  PHE253      0.2264
    161  O        -33.1660   -4.9150   -4.2420 O.2   253  PHE253     -0.2867
    162  CB       -31.0260   -6.2700   -2.6460 C.3   253  PHE253      0.0534
    163  CG       -30.2790   -6.6580   -1.3960 C.ar  253  PHE253     -0.0203
    164  CD1      -30.2310   -5.7990   -0.2990 C.ar  253  PHE253     -0.0042
    165  CD2      -29.6560   -7.9020   -1.2970 C.ar  253  PHE253     -0.0042
    166  CE1      -29.5560   -6.1640    0.8640 C.ar  253  PHE253     -0.0003
    167  CE2      -28.9800   -8.2700   -0.1390 C.ar  253  PHE253     -0.0003
    168  CZ       -28.9260   -7.3990    0.9420 C.ar  253  PHE253     -0.0000
    169  N        -35.2930   -2.5520   -3.8420 N.3   256  LEU256     -0.1245
    170  CA       -34.5760   -1.3190   -4.1790 C.3   256  LEU256      0.1561
    171  C        -34.2320   -1.2100   -5.6650 C.2   256  LEU256      0.2260
    172  O        -34.4530   -0.1660   -6.2680 O.2   256  LEU256     -0.2867
    173  CB       -33.3100   -1.1910   -3.3360 C.3   256  LEU256      0.0270
    174  CG       -33.5770   -0.9320   -1.8500 C.3   256  LEU256      0.0019
    175  CD1      -32.4570   -1.4830   -0.9720 C.3   256  LEU256      0.0001
    176  CD2      -33.7960    0.5600   -1.6140 C.3   256  LEU256      0.0001
    177  N        -32.4900    5.4550    0.0270 N.3   273  MET273     -0.1245
    178  CA       -31.3250    4.7850    0.6270 C.3   273  MET273      0.1570
    179  C        -30.6610    5.6260    1.7260 C.2   273  MET273      0.2261
    180  O        -30.0450    5.0690    2.6450 O.2   273  MET273     -0.2867
    181  CB       -30.2890    4.4070   -0.4470 C.3   273  MET273      0.0387
    182  CG       -29.0600    3.6240    0.0440 C.3   273  MET273      0.0595
    183  SD       -29.3690    2.0410    0.8770 S.3   273  MET273     -0.1393
    184  CE       -30.2410    1.1630   -0.4210 C.3   273  MET273      0.0692
    185  N        -33.1260    4.9220    4.7350 N.3   276  GLU276     -0.1231
    186  CA       -32.9340    3.5150    5.0920 C.3   276  GLU276      0.1699
    187  C        -31.5950    3.1570    5.7820 C.2   276  GLU276      0.2592
    188  O        -31.5480    2.1780    6.5160 O.2   276  GLU276     -0.2718
    189  CB       -33.1280    2.6390    3.8480 C.3   276  GLU276      0.0402
    190  CG       -33.2040    1.1570    4.1590 C.3   276  GLU276      0.1161
    191  CD       -33.6740    0.3280    2.9900 C.2   276  GLU276      0.3649
    192  OE1      -34.4250   -0.6340    3.2350 O.co2 276  GLU276     -0.2457
    193  OE2      -33.2900    0.6310    1.8390 O.co2 276  GLU276     -0.2457
    194  N        -30.5280    3.9280    5.5480 N.am  277  VAL277     -0.1980
    195  CA       -29.1980    3.6700    6.1650 C.3   277  VAL277      0.1595
    196  C        -29.0470    4.3540    7.5210 C.2   277  VAL277      0.2287
    197  O        -28.4600    3.7810    8.4500 O.2   277  VAL277     -0.2864
    198  CB       -28.0240    4.1300    5.2450 C.3   277  VAL277      0.0276
    199  CG1      -26.6780    4.0920    5.9710 C.3   277  VAL277      0.0022
    200  CG2      -27.9340    3.2560    4.0060 C.3   277  VAL277      0.0022
@<TRIPOS>BOND
     1    77    76    2
     2    21    22    1
     3    24    23    2
     4    38    39    1
     5    76    75    1
     6    23    22    1
     7    23    27   am
     8    39    40    1
     9    39    42    1
    10    22    25    1
    11    37    36    2
    12   172   171    2
    13    36    35    1
    14    80    81    1
    15    30    29    2
    16    65    64    2
    17    25    26    1
    18    40    41    2
    19    42    43    2
    20   171   170    1
    21    75    78    1
    22    75    74    1
    23    27    28    1
    24    28    29    1
    25    28    31    1
    26    29    34   am
    27    78    79    1
    28    85    84    1
    29    64    74   am
    30    64    63    1
    31    35    34    1
    32    81    84    1
    33    81    82    1
    34    45    44    1
    35    33    31    1
    36    43    44    1
    37    31    32    1
    38   161   160    2
    39   170   169    1
    40   170   173    1
    41    83    82    2
    42    63    62    1
    43    63    66    1
    44    82    86   am
    45   160   159    1
    46   173   174    1
    47    73    72    1
    48    71    72   ar
    49    71    69   ar
    50    72    70   ar
    51    69    67   ar
    52    70    68   ar
    53    86    87    1
    54    67    68   ar
    55    67    66    1
    56    57    56    2
    57   162   159    1
    58   162   163    1
    59   159   158    1
    60    46    47    1
    61   174   176    1
    62   174   175    1
    63    87    88    1
    64    56    55    1
    65   163   165   ar
    66   163   164   ar
    67   165   167   ar
    68    12    10    1
    69     1     2    1
    70    51    52    1
    71    51    50    1
    72    51    53    1
    73    47    50    1
    74    47    48    1
    75    89    88    2
    76    88    90   am
    77    49    48    2
    78    58    55    1
    79    58    59    1
    80   181   182    1
    81   181   178    1
    82     9    10    1
    83     9     6    1
    84   184   183    1
    85     2     3    1
    86    55    54    1
    87   164   166   ar
    88   167   168   ar
    89     3     4    2
    90     3     5   am
    91   103   101    1
    92    10    11    1
    93   177   178    1
    94   182   183    1
    95     5     6    1
    96     8     7    2
    97    59    60    2
    98    59    61   am
    99    90    96    1
   100    90    91    1
   101   178   179    1
   102     6     7    1
   103   166   168   ar
   104   102   101    1
   105    96    95    1
   106     7    13   am
   107   101    98    1
   108    93    92    2
   109    91    92    1
   110    91    94    1
   111   179   180    2
   112    92    97   am
   113   193   191   ar
   114    13    14    1
   115    97    98    1
   116    98    99    1
   117    95    94    1
   118   191   192   ar
   119   191   190    1
   120    14    15    1
   121    14    17    1
   122   123   122    1
   123   110   109    1
   124    99   100    2
   125   189   190    1
   126   189   186    1
   127    19    18    1
   128    15    16    2
   129   200   198    1
   130    17    18    1
   131   122   120   ar
   132   122   121   ar
   133   120   118   ar
   134   185   186    1
   135   111   109    1
   136   145   144    1
   137    18    20    1
   138   109   108    1
   139   186   187    1
   140   198   199    1
   141   198   195    1
   142   121   119   ar
   143   108   105    1
   144   118   117   ar
   145   194   187   am
   146   194   195    1
   147   187   188    2
   148   144   146    1
   149   144   141    1
   150   195   196    1
   151   119   117   ar
   152   143   142    2
   153   117   116    1
   154   139   138    1
   155   107   106    2
   156   105   106    1
   157   105   104    1
   158   155   153   ar
   159   155   157   ar
   160   142   141    1
   161   142   147   am
   162   133   131   ar
   163   133   132   ar
   164   153   152   ar
   165   141   140    1
   166   157   156   ar
   167   116   113    1
   168   131   129   ar
   169   196   197    2
   170   138   135    1
   171   147   148    1
   172   150   149    2
   173   148   149    1
   174   148   151    1
   175   135   136    1
   176   135   134    1
   177   152   151    1
   178   152   154   ar
   179   137   136    2
   180   132   130   ar
   181   156   154   ar
   182   113   114    1
   183   113   112    1
   184   115   114    2
   185   129   130   ar
   186   129   128    1
   187   134   126   am
   188   127   126    2
   189   126   125    1
   190   128   125    1
   191   125   124    1
