@<TRIPOS>MOLECULE
tmp/6cggB01.pdb
 150 139 0 0 0
SMALL
GASTEIGER

@<TRIPOS>ATOM
      1  N         36.7590    0.4120   26.2900 N.3    29  SER29      -0.1202
      2  CA        38.0880   -0.1340   26.5040 C.3    29  SER29       0.2020
      3  C         38.4490   -1.2840   25.5460 C.2    29  SER29       0.2619
      4  O         37.5920   -2.0500   25.0960 O.2    29  SER29      -0.2717
      5  CB        38.2180   -0.6210   27.9510 C.3    29  SER29       0.2103
      6  OG        37.5470   -1.8620   28.1010 O.3    29  SER29      -0.2182
      7  N         39.7470   -1.3770   25.2760 N.am   30  GLY30      -0.1956
      8  CA        40.3240   -2.5060   24.5830 C.3    30  GLY30       0.1869
      9  C         40.8980   -3.3730   25.6760 C.2    30  GLY30       0.2309
     10  O         40.4170   -3.4040   26.8190 O.2    30  GLY30      -0.2863
     11  N         42.6050    1.4270    8.4820 N.3   189  ASN189     -0.1225
     12  CA        43.1850    0.1110    8.8020 C.3   189  ASN189      0.1785
     13  C         42.5090   -0.5140    9.9920 C.2   189  ASN189      0.2597
     14  O         42.9550   -1.5080   10.4650 O.2   189  ASN189     -0.2718
     15  CB        44.7390    0.1320    8.8820 C.3   189  ASN189      0.1169
     16  CG        45.3720   -1.2500    8.9110 C.2   189  ASN189      0.2627
     17  OD1       44.9330   -2.1730    8.2390 O.2   189  ASN189     -0.2716
     18  ND2       46.4540   -1.4000    9.6820 N.am  189  ASN189     -0.0877
     19  N         41.3610    0.0060   10.3900 N.am  190  ASP190     -0.1974
     20  CA        40.4640   -0.7240   11.3120 C.3   190  ASP190      0.1709
     21  C         39.0560   -0.2420   11.0770 C.2   190  ASP190      0.2293
     22  O         38.3700    0.1800   12.0100 O.2   190  ASP190     -0.2864
     23  CB        40.9160   -0.4910   12.7410 C.3   190  ASP190      0.1436
     24  CG        40.3220   -1.4790   13.7420 C.2   190  ASP190      0.3671
     25  OD1       39.4950   -2.3850   13.4080 O.co2 190  ASP190     -0.2456
     26  OD2       40.6730   -1.2730   14.9200 O.co2 190  ASP190     -0.2456
     27  N         35.8100   -0.6250   10.6970 N.3   192  SER192     -0.1217
     28  CA        34.6610   -1.4660   11.0350 C.3   192  SER192      0.1889
     29  C         33.5490   -0.5820   11.4220 C.2   192  SER192      0.2288
     30  O         33.7920    0.5720   11.7210 O.2   192  SER192     -0.2866
     31  CB        34.9920   -2.3660   12.2200 C.3   192  SER192      0.2089
     32  OG        35.6270   -1.5920   13.2250 O.3   192  SER192     -0.2183
     33  N         31.7670   -0.3110   14.0910 N.3   194  ASN194     -0.1225
     34  CA        31.8670    0.3120   15.4360 C.3   194  ASN194      0.1785
     35  C         32.7780    1.5940   15.5030 C.2   194  ASN194      0.2597
     36  O         32.9540    2.1920   16.5380 O.2   194  ASN194     -0.2718
     37  CB        32.2280   -0.7580   16.4980 C.3   194  ASN194      0.1169
     38  CG        33.7330   -1.0760   16.5450 C.2   194  ASN194      0.2627
     39  OD1       34.3680   -0.8730   17.5780 O.2   194  ASN194     -0.2716
     40  ND2       34.2990   -1.5530   15.4610 N.am  194  ASN194     -0.0877
     41  N         33.3660    2.0000   14.3940 N.am  195  HIS195     -0.1975
     42  CA        34.1120    3.2530   14.3370 C.3   195  HIS195      0.1656
     43  C         33.4610    4.2980   13.4540 C.2   195  HIS195      0.2291
     44  O         34.0590    5.3180   13.2080 O.2   195  HIS195     -0.2864
     45  CB        35.5050    2.9970   13.8260 C.3   195  HIS195      0.0771
     46  CG        36.3580    2.2350   14.7830 C.ar  195  HIS195      0.0820
     47  ND1       37.3700    1.4190   14.3530 N.ar  195  HIS195     -0.2267
     48  CD2       36.3510    2.1670   16.1360 C.ar  195  HIS195      0.1154
     49  CE1       37.9490    0.8760   15.4010 C.ar  195  HIS195      0.1986
     50  NE2       37.3610    1.3370   16.4890 N.ar  195  HIS195     -0.2212
     51  N         39.1690    6.4540   15.7530 N.3   209  ASP209     -0.1239
     52  CA        40.1470    5.3980   15.9830 C.3   209  ASP209      0.1674
     53  C         40.9760    5.0920   14.7320 C.2   209  ASP209      0.2266
     54  O         40.8380    4.0280   14.0850 O.2   209  ASP209     -0.2867
     55  CB        39.4970    4.1180   16.5470 C.3   209  ASP209      0.1410
     56  CG        40.5110    3.1330   17.1050 C.2   209  ASP209      0.3668
     57  OD1       41.6880    3.3120   16.8870 O.co2 209  ASP209     -0.2456
     58  OD2       40.1480    2.1080   17.7390 O.co2 209  ASP209     -0.2456
     59  N         45.3630    2.3470   14.1740 N.3   212  ASP212     -0.1239
     60  CA        46.1590    1.3870   13.4360 C.3   212  ASP212      0.1674
     61  C         46.4870    1.9080   12.0460 C.2   212  ASP212      0.2266
     62  O         46.9780    1.1360   11.2380 O.2   212  ASP212     -0.2867
     63  CB        45.4080    0.0550   13.3470 C.3   212  ASP212      0.1410
     64  CG        45.2830   -0.6530   14.6520 C.2   212  ASP212      0.3668
     65  OD1       46.1210   -0.4660   15.5280 O.co2 212  ASP212     -0.2456
     66  OD2       44.3380   -1.4090   14.8200 O.co2 212  ASP212     -0.2456
     67  N         36.5340   -5.1770    6.7440 N.3   224  TYR224     -0.1241
     68  CA        35.3880   -5.2950    7.6410 C.3   224  TYR224      0.1605
     69  C         34.0920   -5.0050    6.8940 C.2   224  TYR224      0.2264
     70  O         33.0750   -5.6070    7.1790 O.2   224  TYR224     -0.2867
     71  CB        35.5760   -4.3970    8.9110 C.3   224  TYR224      0.0534
     72  CG        36.8310   -4.7800    9.6450 C.ar  224  TYR224     -0.0201
     73  CD1       36.9930   -6.0380   10.1100 C.ar  224  TYR224     -0.0009
     74  CD2       37.9300   -3.9420    9.7420 C.ar  224  TYR224     -0.0009
     75  CE1       38.1870   -6.4570   10.7320 C.ar  224  TYR224      0.0417
     76  CE2       39.1110   -4.3260   10.3420 C.ar  224  TYR224      0.0417
     77  CZ        39.2390   -5.5920   10.8570 C.ar  224  TYR224      0.1957
     78  OH        40.3950   -6.0780   11.4810 O.3   224  TYR224     -0.2866
     79  N         32.9050   -8.1520    5.5860 N.3   227  GLU227     -0.1245
     80  CA        32.7590   -9.2830    6.5170 C.3   227  GLU227      0.1567
     81  C         31.2990   -9.7140    6.6940 C.2   227  GLU227      0.2260
     82  O         30.3640   -8.8890    6.8140 O.2   227  GLU227     -0.2867
     83  CB        33.3910   -8.8950    7.8340 C.3   227  GLU227      0.0388
     84  CG        33.3470   -9.9400    8.9290 C.3   227  GLU227      0.1160
     85  CD        34.0830   -9.4600   10.1400 C.2   227  GLU227      0.3649
     86  OE1       33.4870   -9.1860   11.1950 O.co2 227  GLU227     -0.2457
     87  OE2       35.3240   -9.3330    9.9970 O.co2 227  GLU227     -0.2457
     88  N         29.4450  -11.2320    9.4110 N.3   229  SER229     -0.1217
     89  CA        29.3950  -11.5930   10.8420 C.3   229  SER229      0.1889
     90  C         28.2960  -10.8370   11.5440 C.2   229  SER229      0.2288
     91  O         27.7370   -9.9250   10.9810 O.2   229  SER229     -0.2866
     92  CB        30.7550  -11.2700   11.5240 C.3   229  SER229      0.2089
     93  OG        31.0080   -9.8530   11.5180 O.3   229  SER229     -0.2183
     94  N         28.7160   -8.6220   13.8230 N.3   231  GLU231     -0.1231
     95  CA        29.1470   -7.2520   14.1430 C.3   231  GLU231      0.1699
     96  C         29.1680   -6.3460   12.9410 C.2   231  GLU231      0.2592
     97  O         29.1580   -5.1230   13.1100 O.2   231  GLU231     -0.2718
     98  CB        30.5570   -7.2320   14.7530 C.3   231  GLU231      0.0402
     99  CG        30.7000   -8.0250   16.0540 C.3   231  GLU231      0.1161
    100  CD        31.0360   -9.4870   15.7680 C.2   231  GLU231      0.3649
    101  OE1       32.0630   -9.7100   15.0240 O.co2 231  GLU231     -0.2457
    102  OE2       30.2680  -10.4020   16.2300 O.co2 231  GLU231     -0.2457
    103  N         29.2510   -6.8900   11.7470 N.am  232  GLU232     -0.1979
    104  CA        29.3370   -6.0450   10.5340 C.3   232  GLU232      0.1602
    105  C         28.0730   -6.2830    9.7090 C.2   232  GLU232      0.2287
    106  O         27.3010   -7.1910    9.9950 O.2   232  GLU232     -0.2864
    107  CB        30.5930   -6.3350    9.6850 C.3   232  GLU232      0.0415
    108  CG        31.9020   -6.2210   10.4070 C.3   232  GLU232      0.1163
    109  CD        32.1950   -4.8360   10.9840 C.2   232  GLU232      0.3649
    110  OE1       31.8140   -3.7990   10.4060 O.co2 232  GLU232     -0.2457
    111  OE2       32.8570   -4.8030   12.0410 O.co2 232  GLU232     -0.2457
    112  N         40.7240  -10.0520    2.6830 N.3   257  GLN257     -0.1245
    113  CA        39.8540  -10.2370    3.8380 C.3   257  GLN257      0.1566
    114  C         39.9280  -11.6630    4.3410 C.2   257  GLN257      0.2260
    115  O         39.9390  -11.8790    5.5460 O.2   257  GLN257     -0.2867
    116  CB        38.3820   -9.9520    3.4740 C.3   257  GLN257      0.0367
    117  CG        37.3620   -9.9630    4.6030 C.3   257  GLN257      0.0905
    118  CD        36.8520  -11.3280    5.0130 C.2   257  GLN257      0.2608
    119  OE1       36.7550  -12.2080    4.1420 O.2   257  GLN257     -0.2717
    120  NE2       36.5250  -11.5310    6.3650 N.am  257  GLN257     -0.0878
    121  N         41.2000  -13.0850    7.9590 N.3   261  GLU261     -0.1245
    122  CA        40.3220  -13.9450    8.7500 C.3   261  GLU261      0.1567
    123  C         41.0250  -15.2690    9.1250 C.2   261  GLU261      0.2260
    124  O         40.8850  -15.7460   10.2600 O.2   261  GLU261     -0.2867
    125  CB        39.0030  -14.1930    8.0030 C.3   261  GLU261      0.0388
    126  CG        37.9250  -14.9750    8.7370 C.3   261  GLU261      0.1160
    127  CD        37.1750  -14.1330    9.7520 C.2   261  GLU261      0.3649
    128  OE1       37.5070  -14.3330   10.9790 O.co2 261  GLU261     -0.2457
    129  OE2       36.2640  -13.2870    9.3270 O.co2 261  GLU261     -0.2457
    130  N         43.3990  -14.8080   12.1290 N.3   264  TYR264     -0.1241
    131  CA        42.8740  -14.3510   13.4080 C.3   264  TYR264      0.1605
    132  C         43.2370  -15.1990   14.6520 C.2   264  TYR264      0.2264
    133  O         43.6970  -14.6610   15.6350 O.2   264  TYR264     -0.2867
    134  CB        41.3910  -14.0950   13.3030 C.3   264  TYR264      0.0534
    135  CG        40.7060  -13.7630   14.6000 C.ar  264  TYR264     -0.0201
    136  CD1       40.7640  -12.4800   15.1300 C.ar  264  TYR264     -0.0009
    137  CD2       39.9800  -14.7570   15.3110 C.ar  264  TYR264     -0.0009
    138  CE1       40.1160  -12.1790   16.3290 C.ar  264  TYR264      0.0417
    139  CE2       39.3830  -14.4900   16.5200 C.ar  264  TYR264      0.0417
    140  CZ        39.4290  -13.2010   17.0100 C.ar  264  TYR264      0.1957
    141  OH        38.7750  -12.9360   18.1820 O.3   264  TYR264     -0.2866
    142  N         46.9260  -14.6220   15.3350 N.3   267  GLU267     -0.1245
    143  CA        47.1010  -13.2900   15.9030 C.3   267  GLU267      0.1567
    144  C         46.7890  -13.2920   17.4090 C.2   267  GLU267      0.2260
    145  O         47.4860  -12.6530   18.2030 O.2   267  GLU267     -0.2867
    146  CB        46.1750  -12.3090   15.2000 C.3   267  GLU267      0.0388
    147  CG        46.5210  -10.8490   15.3860 C.3   267  GLU267      0.1160
    148  CD        45.3890   -9.9270   14.9840 C.2   267  GLU267      0.3649
    149  OE1       44.2020  -10.3260   15.0090 O.co2 267  GLU267     -0.2457
    150  OE2       45.6550   -8.7540   14.6990 O.co2 267  GLU267     -0.2457
@<TRIPOS>BOND
     1   112   113    1
     2   116   113    1
     3   116   117    1
     4   113   114    1
     5   119   118    2
     6   114   115    2
     7   117   118    1
     8   118   120   am
     9    79    80    1
    10    80    81    1
    11    80    83    1
    12    81    82    2
    13    67    68    1
    14    69    70    2
    15    69    68    1
    16    68    71    1
    17    83    84    1
    18   121   122    1
    19   125   126    1
    20   125   122    1
    21    17    16    2
    22    11    12    1
    23   126   127    1
    24   122   123    1
    25    12    15    1
    26    12    13    1
    27    15    16    1
    28    16    18   am
    29    71    72    1
    30    84    85    1
    31   123   124    2
    32   129   127   ar
    33    88    89    1
    34    72    74   ar
    35    72    73   ar
    36   107   108    1
    37   107   104    1
    38   105   106    2
    39   105   104    1
    40    74    76   ar
    41   127   128   ar
    42    13    19   am
    43    13    14    2
    44    87    85   ar
    45    73    75   ar
    46    85    86   ar
    47    76    77   ar
    48    19    20    1
    49   110   109   ar
    50   108   109    1
    51   104   103    1
    52    27    28    1
    53    75    77   ar
    54    89    92    1
    55    89    90    1
    56    77    78    1
    57    91    90    2
    58   109   111   ar
    59    28    29    1
    60    28    31    1
    61    21    20    1
    62    21    22    2
    63    62    61    2
    64    20    23    1
    65    29    30    2
    66    93    92    1
    67   103    96   am
    68    61    60    1
    69   130   131    1
    70    31    32    1
    71    23    24    1
    72    96    97    2
    73    96    95    1
    74    44    43    2
    75   134   131    1
    76   134   135    1
    77    63    60    1
    78    63    64    1
    79   131   132    1
    80    25    24   ar
    81    60    59    1
    82    43    42    1
    83    24    26   ar
    84    94    95    1
    85    45    42    1
    86    45    46    1
    87    54    53    2
    88    33    34    1
    89    95    98    1
    90    42    41    1
    91    47    46   ar
    92    47    49   ar
    93    41    35   am
    94   135   136   ar
    95   135   137   ar
    96   132   133    2
    97    64    66   ar
    98    64    65   ar
    99   150   148   ar
   100    53    52    1
   101    98    99    1
   102    46    48   ar
   103   148   149   ar
   104   148   147    1
   105   101   100   ar
   106   136   138   ar
   107   146   147    1
   108   146   143    1
   109   137   139   ar
   110   142   143    1
   111    49    50   ar
   112    34    35    1
   113    34    37    1
   114    40    38   am
   115    35    36    2
   116    51    52    1
   117   100    99    1
   118   100   102   ar
   119   143   144    1
   120    52    55    1
   121    48    50   ar
   122   138   140   ar
   123    37    38    1
   124   139   140   ar
   125    38    39    2
   126    55    56    1
   127    57    56   ar
   128   140   141    1
   129    56    58   ar
   130   144   145    2
   131     8     7    1
   132     8     9    1
   133     4     3    2
   134     7     3   am
   135     3     2    1
   136     9    10    2
   137     1     2    1
   138     2     5    1
   139     5     6    1
