@<TRIPOS>MOLECULE
tmp/6cgnA00.pdb
 96 95 0 0 0
SMALL
GASTEIGER

@<TRIPOS>ATOM
      1  N         10.5950  -26.3720   12.3940 N.3    28  VAL28      -0.1231
      2  CA        11.6630  -26.0350   11.4400 C.3    28  VAL28       0.1692
      3  C         11.8280  -27.1110   10.3590 C.2    28  VAL28       0.2592
      4  O         12.0330  -26.7840    9.1950 O.2    28  VAL28      -0.2718
      5  CB        13.0160  -25.6920   12.1340 C.3    28  VAL28       0.0266
      6  CG1       13.6350  -26.8860   12.8540 C.3    28  VAL28       0.0020
      7  CG2       14.0050  -25.0930   11.1350 C.3    28  VAL28       0.0020
      8  N         11.7130  -28.3810   10.7430 N.am   29  HIS29      -0.1976
      9  CA        11.7530  -29.4880    9.7820 C.3    29  HIS29       0.1656
     10  C         10.6420  -29.3610    8.7280 C.2    29  HIS29       0.2291
     11  O         10.8860  -29.5670    7.5350 O.2    29  HIS29      -0.2864
     12  CB        11.6460  -30.8370   10.5030 C.3    29  HIS29       0.0771
     13  CG        11.7320  -32.0180    9.5880 C.ar   29  HIS29       0.0820
     14  ND1       10.6190  -32.6130    9.0350 N.ar   29  HIS29      -0.2267
     15  CD2       12.8000  -32.7020    9.1130 C.ar   29  HIS29       0.1154
     16  CE1       10.9960  -33.6210    8.2700 C.ar   29  HIS29       0.1986
     17  NE2       12.3140  -33.6940    8.2970 N.ar   29  HIS29      -0.2212
     18  N         11.3160  -26.5460    6.1450 N.3    32  PHE32      -0.1227
     19  CA        12.1690  -26.9890    5.0380 C.3    32  PHE32       0.1736
     20  C         11.4450  -27.9250    4.0600 C.2    32  PHE32       0.2595
     21  O         11.3490  -27.6140    2.8710 O.2    32  PHE32      -0.2718
     22  CB        13.4780  -27.6030    5.5530 C.3    32  PHE32       0.0547
     23  CG        14.5010  -26.5730    5.9510 C.ar   32  PHE32      -0.0202
     24  CD1       15.3830  -26.0480    5.0110 C.ar   32  PHE32      -0.0042
     25  CD2       14.5640  -26.1020    7.2580 C.ar   32  PHE32      -0.0042
     26  CE1       16.3200  -25.0890    5.3750 C.ar   32  PHE32      -0.0003
     27  CE2       15.4940  -25.1400    7.6270 C.ar   32  PHE32      -0.0003
     28  CZ        16.3730  -24.6330    6.6860 C.ar   32  PHE32      -0.0000
     29  N         10.9260  -29.0480    4.5580 N.am   33  VAL33      -0.1980
     30  CA        10.3270  -30.0770    3.6830 C.3    33  VAL33       0.1595
     31  C          8.9620  -29.7030    3.0710 C.2    33  VAL33       0.2287
     32  O          8.5470  -30.3330    2.0970 O.2    33  VAL33      -0.2864
     33  CB        10.2250  -31.4670    4.3700 C.3    33  VAL33       0.0276
     34  CG1       11.5880  -31.9140    4.8890 C.3    33  VAL33       0.0022
     35  CG2        9.1730  -31.4840    5.4790 C.3    33  VAL33       0.0022
     36  N         12.4780  -26.2520    0.6790 N.3    37  ASN37      -0.1240
     37  CA        12.9490  -27.2450   -0.2950 C.3    37  ASN37       0.1653
     38  C         12.1020  -27.3150   -1.5740 C.2    37  ASN37       0.2266
     39  O         12.5510  -27.8630   -2.5760 O.2    37  ASN37      -0.2867
     40  CB        13.0450  -28.6380    0.3440 C.3    37  ASN37       0.1155
     41  CG        14.0420  -28.6960    1.4970 C.2    37  ASN37       0.2627
     42  OD1       14.8630  -27.7910    1.6880 O.2    37  ASN37      -0.2716
     43  ND2       13.9670  -29.7640    2.2780 N.am   37  ASN37      -0.0877
     44  N         26.8050  -30.9330    8.0160 N.3    83  LYS83      -0.1231
     45  CA        25.3960  -31.2370    8.3000 C.3    83  LYS83       0.1693
     46  C         24.7360  -30.1890    9.2040 C.2    83  LYS83       0.2592
     47  O         24.1470  -30.5270   10.2400 O.2    83  LYS83      -0.2718
     48  CB        25.2650  -32.6380    8.9370 C.3    83  LYS83       0.0285
     49  CG        25.7710  -33.7910    8.0780 C.3    83  LYS83       0.0035
     50  CD        24.9060  -34.0480    6.8470 C.3    83  LYS83       0.0206
     51  CE        23.5120  -34.5280    7.2170 C.3    83  LYS83       0.1093
     52  NZ        22.7540  -35.0210    6.0370 N.3    83  LYS83      -0.1314
     53  N         24.8470  -28.9190    8.8180 N.am   84  PHE84      -0.1962
     54  CA        24.3010  -27.8400    9.6330 C.3    84  PHE84       0.1771
     55  C         22.7780  -27.8880    9.6450 C.2    84  PHE84       0.2619
     56  O         22.1470  -27.9310    8.5890 O.2    84  PHE84      -0.2715
     57  CB        24.7580  -26.4580    9.1600 C.3    84  PHE84       0.0574
     58  CG        24.2520  -25.3450   10.0360 C.ar   84  PHE84      -0.0200
     59  CD1       23.0880  -24.6550    9.7100 C.ar   84  PHE84      -0.0042
     60  CD2       24.9030  -25.0340   11.2260 C.ar   84  PHE84      -0.0042
     61  CE1       22.6050  -23.6510   10.5350 C.ar   84  PHE84      -0.0003
     62  CE2       24.4270  -24.0280   12.0540 C.ar   84  PHE84      -0.0003
     63  CZ        23.2760  -23.3340   11.7080 C.ar   84  PHE84      -0.0000
     64  N         22.2030  -27.8800   10.8450 N.am   85  ARG85      -0.1963
     65  CA        20.7580  -27.8500   11.0230 C.3    85  ARG85       0.1729
     66  C         20.3880  -26.7150   11.9740 C.2    85  ARG85       0.2616
     67  O         21.0150  -26.5450   13.0230 O.2    85  ARG85      -0.2715
     68  CB        20.2540  -29.1960   11.5620 C.3    85  ARG85       0.0348
     69  CG        20.3760  -30.3600   10.5780 C.3    85  ARG85       0.0492
     70  CD        19.3710  -30.2530    9.4360 C.3    85  ARG85       0.2205
     71  NE        19.5250  -31.3090    8.4330 N.pl3  85  ARG85      -0.0865
     72  CZ        20.4790  -31.3590    7.4980 C.cat  85  ARG85       0.5346
     73  NH1       21.4170  -30.4150    7.4020 N.pl3  85  ARG85       0.1354
     74  NH2       20.4970  -32.3750    6.6380 N.pl3  85  ARG85       0.1354
     75  N         19.3820  -25.9340   11.5870 N.am   86  PHE86      -0.1974
     76  CA        18.8370  -24.8810   12.4410 C.3    86  PHE86       0.1639
     77  C         18.0350  -25.5240   13.5760 C.2    86  PHE86       0.2290
     78  O         17.1920  -26.3810   13.3080 O.2    86  PHE86      -0.2864
     79  CB        17.9440  -23.9330   11.6310 C.3    86  PHE86       0.0560
     80  CG        18.7060  -23.0310   10.6980 C.ar   86  PHE86      -0.0200
     81  CD1       18.8150  -23.3350    9.3400 C.ar   86  PHE86      -0.0042
     82  CD2       19.3240  -21.8780   11.1760 C.ar   86  PHE86      -0.0042
     83  CE1       19.5210  -22.5040    8.4790 C.ar   86  PHE86      -0.0003
     84  CE2       20.0320  -21.0430   10.3210 C.ar   86  PHE86      -0.0003
     85  CZ        20.1290  -21.3550    8.9700 C.ar   86  PHE86      -0.0000
     86  N         21.3000  -21.7960   -0.4290 N.3   112  ARG112     -0.1245
     87  CA        21.1670  -22.4080    0.8900 C.3   112  ARG112      0.1563
     88  C         22.0470  -21.5750    1.8340 C.2   112  ARG112      0.2260
     89  O         22.8560  -20.7540    1.3870 O.2   112  ARG112     -0.2867
     90  CB        21.6510  -23.8680    0.9160 C.3   112  ARG112      0.0307
     91  CG        21.1850  -24.7890   -0.2100 C.3   112  ARG112      0.0489
     92  CD        19.6990  -25.0980   -0.1920 C.3   112  ARG112      0.2205
     93  NE        19.2910  -25.8890    0.9730 N.pl3 112  ARG112     -0.0865
     94  CZ        18.1380  -26.5540    1.0840 C.cat 112  ARG112      0.5346
     95  NH1       17.2450  -26.5760    0.0920 N.pl3 112  ARG112      0.1354
     96  NH2       17.8770  -27.2260    2.2040 N.pl3 112  ARG112      0.1354
@<TRIPOS>BOND
     1    39    38    2
     2    38    37    1
     3    86    87    1
     4    37    40    1
     5    37    36    1
     6    91    92    1
     7    91    90    1
     8    92    93    1
     9    95    94    1
    10    40    41    1
    11    87    90    1
    12    87    88    1
    13    93    94    2
    14    94    96    1
    15    89    88    2
    16    41    42    2
    17    41    43   am
    18    32    31    2
    19    21    20    2
    20    31    30    1
    21    30    33    1
    22    30    29    1
    23    20    29   am
    24    20    19    1
    25    33    34    1
    26    33    35    1
    27    24    26   ar
    28    24    23   ar
    29    19    22    1
    30    19    18    1
    31    26    28   ar
    32    22    23    1
    33    23    25   ar
    34    52    51    1
    35    74    72    1
    36    28    27   ar
    37    50    51    1
    38    50    49    1
    39    25    27   ar
    40    73    72    1
    41    72    71    2
    42    11    10    2
    43    44    45    1
    44    49    48    1
    45    16    17   ar
    46    16    14   ar
    47    17    15   ar
    48    45    48    1
    49    45    46    1
    50    71    70    1
    51    83    85   ar
    52    83    81   ar
    53    56    55    2
    54    10     9    1
    55    53    46   am
    56    53    54    1
    57    85    84   ar
    58    14    13   ar
    59    15    13   ar
    60    57    54    1
    61    57    58    1
    62     4     3    2
    63    46    47    2
    64    81    80   ar
    65    70    69    1
    66    13    12    1
    67    54    55    1
    68    55    64   am
    69    59    58   ar
    70    59    61   ar
    71     9    12    1
    72     9     8    1
    73    58    60   ar
    74    84    82   ar
    75     3     8   am
    76     3     2    1
    77    61    63   ar
    78    69    68    1
    79    80    82   ar
    80    80    79    1
    81    64    65    1
    82    65    68    1
    83    65    66    1
    84     7     5    1
    85    60    62   ar
    86     2     5    1
    87     2     1    1
    88    75    66   am
    89    75    76    1
    90    79    76    1
    91    63    62   ar
    92    66    67    2
    93     5     6    1
    94    76    77    1
    95    78    77    2
