@<TRIPOS>MOLECULE
tmp/6cgpA00.pdb
 140 136 0 0 0
SMALL
GASTEIGER

@<TRIPOS>ATOM
      1  N        -18.9830   24.1330   13.3820 N.3    22  HIS22      -0.1227
      2  CA       -19.5950   23.7160   14.6330 C.3    22  HIS22       0.1737
      3  C        -19.8500   22.2110   14.6000 C.2    22  HIS22       0.2438
      4  O        -20.4440   21.7110   13.6330 O.2    22  HIS22      -0.2733
      5  CB       -20.9010   24.4840   14.8520 C.3    22  HIS22       0.0758
      6  CG       -21.6210   24.1200   16.1130 C.ar   22  HIS22       0.0818
      7  ND1      -22.3160   22.9400   16.2610 N.ar   22  HIS22      -0.2268
      8  CD2      -21.7620   24.7880   17.2830 C.ar   22  HIS22       0.1154
      9  CE1      -22.8500   22.8940   17.4680 C.ar   22  HIS22       0.1986
     10  NE2      -22.5290   24.0030   18.1080 N.ar   22  HIS22      -0.2212
     11  N        -19.4380   21.4600   15.6270 N.am   23  PRO23      -0.2729
     12  CA       -19.3310   19.9960   15.4840 C.3    23  PRO23       0.1401
     13  C        -20.6350   19.2910   15.1410 C.2    23  PRO23       0.2269
     14  O        -20.5890   18.1910   14.5760 O.2    23  PRO23      -0.2865
     15  CB       -18.7970   19.5470   16.8520 C.3    23  PRO23       0.0296
     16  CG       -19.1760   20.6450   17.7910 C.3    23  PRO23       0.0237
     17  CD       -19.0950   21.9100   16.9880 C.3    23  PRO23       0.0939
     18  N        -26.3450   26.8140   24.3960 N.3    90  SER90      -0.1217
     19  CA       -25.7790   25.9610   23.3500 C.3    90  SER90       0.1889
     20  C        -26.8370   25.5940   22.3060 C.2    90  SER90       0.2288
     21  O        -27.2470   24.4410   22.1630 O.2    90  SER90      -0.2866
     22  CB       -25.1550   24.6990   23.9550 C.3    90  SER90       0.2089
     23  OG       -24.3020   25.0210   25.0370 O.3    90  SER90      -0.2183
     24  N        -30.3760   16.3560   17.7500 N.3   130  PRO130     -0.2116
     25  CA       -30.6560   15.4810   18.8990 C.3   130  PRO130      0.1372
     26  C        -31.7790   16.0200   19.7720 C.2   130  PRO130      0.2244
     27  O        -32.3520   17.0710   19.4660 O.2   130  PRO130     -0.2868
     28  CB       -29.3190   15.4450   19.6550 C.3   130  PRO130      0.0268
     29  CG       -28.2980   15.9740   18.6900 C.3   130  PRO130      0.0207
     30  CD       -29.0220   16.9300   17.8070 C.3   130  PRO130      0.0892
     31  N        -32.3010   14.8880   23.7270 N.3   132  HIS132     -0.1226
     32  CA       -32.4280   14.5830   25.1500 C.3   132  HIS132      0.1752
     33  C        -32.1010   15.7600   26.0680 C.2   132  HIS132      0.2596
     34  O        -32.3880   15.6780   27.2670 O.2   132  HIS132     -0.2718
     35  CB       -31.5660   13.3690   25.5240 C.3   132  HIS132      0.0759
     36  CG       -30.0930   13.5830   25.3670 C.ar  132  HIS132      0.0818
     37  ND1      -29.1690   13.0140   26.2160 N.ar  132  HIS132     -0.2268
     38  CD2      -29.3820   14.2850   24.4530 C.ar  132  HIS132      0.1154
     39  CE1      -27.9520   13.3620   25.8380 C.ar  132  HIS132      0.1986
     40  NE2      -28.0540   14.1350   24.7720 N.ar  132  HIS132     -0.2212
     41  N        -31.5310   16.8490   25.5500 N.am  133  HIS133     -0.1975
     42  CA       -31.3560   18.0550   26.3520 C.3   133  HIS133      0.1656
     43  C        -32.5760   18.9610   26.3320 C.2   133  HIS133      0.2291
     44  O        -32.7000   19.8300   27.2030 O.2   133  HIS133     -0.2864
     45  CB       -30.1430   18.8520   25.8700 C.3   133  HIS133      0.0771
     46  CG       -28.8340   18.1960   26.1700 C.ar  133  HIS133      0.0820
     47  ND1      -28.4680   17.8150   27.4430 N.ar  133  HIS133     -0.2267
     48  CD2      -27.8030   17.8540   25.3630 C.ar  133  HIS133      0.1154
     49  CE1      -27.2680   17.2640   27.4060 C.ar  133  HIS133      0.1986
     50  NE2      -26.8420   17.2760   26.1560 N.ar  133  HIS133     -0.2212
     51  N        -28.6020   22.5420   24.5530 N.3   141  GLY141     -0.1210
     52  CA       -27.5440   21.7190   23.9890 C.3   141  GLY141      0.1956
     53  C        -27.8230   21.0290   22.6690 C.2   141  GLY141      0.2612
     54  O        -27.8860   19.7980   22.6110 O.2   141  GLY141     -0.2717
     55  N        -28.0060   21.8170   21.6080 N.am  142  PHE142     -0.1962
     56  CA       -28.2240   21.3900   20.2270 C.3   142  PHE142      0.1771
     57  C        -29.5940   20.7590   20.0020 C.2   142  PHE142      0.2619
     58  O        -29.8700   20.3060   18.8830 O.2   142  PHE142     -0.2715
     59  CB       -27.1570   20.4010   19.7280 C.3   142  PHE142      0.0574
     60  CG       -25.7380   20.8250   20.0070 C.ar  142  PHE142     -0.0200
     61  CD1      -25.4140   22.1560   20.2150 C.ar  142  PHE142     -0.0042
     62  CD2      -24.7250   19.8800   20.0560 C.ar  142  PHE142     -0.0042
     63  CE1      -24.1130   22.5340   20.4740 C.ar  142  PHE142     -0.0003
     64  CE2      -23.4200   20.2530   20.3100 C.ar  142  PHE142     -0.0003
     65  CZ       -23.1130   21.5810   20.5200 C.ar  142  PHE142     -0.0000
     66  N        -30.4600   20.7160   21.0110 N.am  143  CYS143     -0.1968
     67  CA       -31.7520   20.0490   20.9200 C.3   143  CYS143      0.1712
     68  C        -32.8810   21.0680   20.9780 C.2   143  CYS143      0.2296
     69  O        -32.8060   22.0490   21.7240 O.2   143  CYS143     -0.2864
     70  CB       -31.9340   19.0330   22.0540 C.3   143  CYS143      0.0983
     71  SG       -30.5210   17.9570   22.3890 S.3   143  CYS143     -0.0798
     72  N        -25.5260    8.2970   25.6890 N.3   171  ASP171     -0.1239
     73  CA       -24.7880    9.4990   25.3300 C.3   171  ASP171      0.1674
     74  C        -23.9340    9.9400   26.5120 C.2   171  ASP171      0.2266
     75  O        -24.3360    9.8020   27.6690 O.2   171  ASP171     -0.2867
     76  CB       -25.7670   10.6050   24.9270 C.3   171  ASP171      0.1410
     77  CG       -25.0710   11.8810   24.5000 C.2   171  ASP171      0.3668
     78  OD1      -24.6630   12.6630   25.3840 O.co2 171  ASP171     -0.2456
     79  OD2      -24.9450   12.1080   23.2790 O.co2 171  ASP171     -0.2456
     80  N        -23.2980   12.7230   27.6730 N.3   173  HIS173     -0.1241
     81  CA       -23.8970   13.8080   28.4340 C.3   173  HIS173      0.1621
     82  C        -25.1940   13.3450   29.0860 C.2   173  HIS173      0.2264
     83  O        -25.8840   12.4590   28.5800 O.2   173  HIS173     -0.2867
     84  CB       -24.1730   15.0190   27.5370 C.3   173  HIS173      0.0745
     85  CG       -22.9390   15.6330   26.9550 C.ar  173  HIS173      0.0817
     86  ND1      -22.3780   15.2010   25.7730 N.ar  173  HIS173     -0.2268
     87  CD2      -22.1530   16.6430   27.3970 C.ar  173  HIS173      0.1154
     88  CE1      -21.3010   15.9200   25.5100 C.ar  173  HIS173      0.1986
     89  NE2      -21.1420   16.8020   26.4800 N.ar  173  HIS173     -0.2212
     90  N        -20.6530   19.2200   31.0540 N.3   202  PHE202     -0.1241
     91  CA       -21.9580   19.6490   30.5710 C.3   202  PHE202      0.1605
     92  C        -22.9710   18.5140   30.7320 C.2   202  PHE202      0.2264
     93  O        -22.6310   17.3460   30.5070 O.2   202  PHE202     -0.2867
     94  CB       -21.8560   20.0750   29.1030 C.3   202  PHE202      0.0534
     95  CG       -23.1240   20.6520   28.5450 C.ar  202  PHE202     -0.0203
     96  CD1      -24.0490   19.8420   27.9050 C.ar  202  PHE202     -0.0042
     97  CD2      -23.3950   22.0030   28.6670 C.ar  202  PHE202     -0.0042
     98  CE1      -25.2190   20.3700   27.4000 C.ar  202  PHE202     -0.0003
     99  CE2      -24.5620   22.5350   28.1610 C.ar  202  PHE202     -0.0003
    100  CZ       -25.4750   21.7190   27.5260 C.ar  202  PHE202     -0.0000
    101  N        -23.4660   20.4440   33.3030 N.3   204  ASN204     -0.1240
    102  CA       -22.9190   21.1990   34.4320 C.3   204  ASN204      0.1653
    103  C        -23.9570   21.4180   35.5320 C.2   204  ASN204      0.2266
    104  O        -24.1700   22.5350   36.0040 O.2   204  ASN204     -0.2867
    105  CB       -22.3470   22.5380   33.9560 C.3   204  ASN204      0.1155
    106  CG       -21.0400   22.3820   33.1960 C.2   204  ASN204      0.2627
    107  OD1      -20.9950   22.5440   31.9760 O.2   204  ASN204     -0.2716
    108  ND2      -19.9690   22.0750   33.9180 N.am  204  ASN204     -0.0877
    109  N        -20.9560   10.1230   21.4540 N.3   264  ASP264     -0.1239
    110  CA       -19.8810   11.0300   21.8280 C.3   264  ASP264      0.1674
    111  C        -19.0380   10.5050   22.9820 C.2   264  ASP264      0.2266
    112  O        -18.0840   11.1760   23.3900 O.2   264  ASP264     -0.2867
    113  CB       -20.4460   12.4130   22.1760 C.3   264  ASP264      0.1410
    114  CG       -21.6920   12.3410   23.0360 C.2   264  ASP264      0.3668
    115  OD1      -21.9620   11.2730   23.6280 O.co2 264  ASP264     -0.2456
    116  OD2      -22.4060   13.3600   23.1170 O.co2 264  ASP264     -0.2456
    117  N        -15.3740   15.8930   22.0820 N.3   271  LEU271     -0.1245
    118  CA       -16.1540   16.5260   23.1370 C.3   271  LEU271      0.1561
    119  C        -16.3650   15.6490   24.3590 C.2   271  LEU271      0.2260
    120  O        -16.4730   16.1760   25.4680 O.2   271  LEU271     -0.2867
    121  CB       -17.5260   16.9590   22.5990 C.3   271  LEU271      0.0270
    122  CG       -17.6600   18.3310   21.9270 C.3   271  LEU271      0.0019
    123  CD1      -16.6650   18.5240   20.7860 C.3   271  LEU271      0.0001
    124  CD2      -19.0860   18.5430   21.4360 C.3   271  LEU271      0.0001
    125  N        -26.0740   12.4060   20.2230 N.3   302  GLY302     -0.1225
    126  CA       -24.7970   13.0690   20.0690 C.3   302  GLY302      0.1811
    127  C        -23.7640   12.1960   19.3790 C.2   302  GLY302      0.2280
    128  O        -24.0410   11.0880   18.9160 O.2   302  GLY302     -0.2866
    129  N        -19.6520   13.3400   17.6430 N.3   304  TYR304     -0.1241
    130  CA       -19.1410   14.3850   16.7630 C.3   304  TYR304      0.1605
    131  C        -17.8210   13.9950   16.1090 C.2   304  TYR304      0.2264
    132  O        -17.0050   14.8590   15.7800 O.2   304  TYR304     -0.2867
    133  CB       -19.0110   15.6990   17.5270 C.3   304  TYR304      0.0534
    134  CG       -20.2550   16.0070   18.3250 C.ar  304  TYR304     -0.0201
    135  CD1      -21.3740   16.5560   17.7140 C.ar  304  TYR304     -0.0009
    136  CD2      -20.3250   15.7140   19.6800 C.ar  304  TYR304     -0.0009
    137  CE1      -22.5200   16.8260   18.4340 C.ar  304  TYR304      0.0417
    138  CE2      -21.4660   15.9790   20.4080 C.ar  304  TYR304      0.0417
    139  CZ       -22.5610   16.5350   19.7800 C.ar  304  TYR304      0.1957
    140  OH       -23.7020   16.8010   20.5000 O.3   304  TYR304     -0.2866
@<TRIPOS>BOND
     1     1     2    1
     2     4     3    2
     3    14    13    2
     4     3     2    1
     5     3    11   am
     6     2     5    1
     7     5     6    1
     8    13    12    1
     9    12    11    1
    10    12    15    1
    11    11    17    1
    12   132   131    2
    13   131   130    1
    14     6     7   ar
    15     6     8   ar
    16     7     9   ar
    17   130   133    1
    18   130   129    1
    19    15    16    1
    20    17    16    1
    21     8    10   ar
    22     9    10   ar
    23   133   134    1
    24   135   134   ar
    25   135   137   ar
    26    24    30    1
    27    24    25    1
    28    30    29    1
    29   134   136   ar
    30   137   139   ar
    31    29    28    1
    32    58    57    2
    33    25    28    1
    34    25    26    1
    35   128   127    2
    36   127   126    1
    37    27    26    2
    38   136   138   ar
    39    59    60    1
    40    59    56    1
    41   139   138   ar
    42   139   140    1
    43    57    56    1
    44    57    66   am
    45    60    62   ar
    46    60    61   ar
    47    62    64   ar
    48   126   125    1
    49    61    63   ar
    50    56    55    1
    51    64    65   ar
    52    63    65   ar
    53   123   122    1
    54    67    68    1
    55    67    66    1
    56    67    70    1
    57    68    69    2
    58   124   122    1
    59   109   110    1
    60    55    53   am
    61   110   113    1
    62   110   111    1
    63   122   121    1
    64    70    71    1
    65   117   118    1
    66    21    20    2
    67   113   114    1
    68    20    19    1
    69   121   118    1
    70    54    53    2
    71    53    52    1
    72   111   112    2
    73   114   116   ar
    74   114   115   ar
    75   118   119    1
    76    79    77   ar
    77    19    22    1
    78    19    18    1
    79    31    32    1
    80    22    23    1
    81    52    51    1
    82   119   120    2
    83    38    40   ar
    84    38    36   ar
    85    77    76    1
    86    77    78   ar
    87    40    39   ar
    88    76    73    1
    89    32    35    1
    90    32    33    1
    91    73    72    1
    92    73    74    1
    93    48    50   ar
    94    48    46   ar
    95    36    35    1
    96    36    37   ar
    97    88    86   ar
    98    88    89   ar
    99    41    33   am
   100    41    42    1
   101    86    85   ar
   102    39    37   ar
   103    45    46    1
   104    45    42    1
   105    33    34    2
   106    50    49   ar
   107    46    47   ar
   108    43    42    1
   109    43    44    2
   110    89    87   ar
   111    74    75    2
   112    85    87   ar
   113    85    84    1
   114    98   100   ar
   115    98    96   ar
   116    49    47   ar
   117   100    99   ar
   118    84    81    1
   119    80    81    1
   120    96    95   ar
   121    99    97   ar
   122    81    82    1
   123    95    97   ar
   124    95    94    1
   125    83    82    2
   126    94    91    1
   127    93    92    2
   128    91    92    1
   129    91    90    1
   130   107   106    2
   131   106   108   am
   132   106   105    1
   133   101   102    1
   134   105   102    1
   135   102   103    1
   136   103   104    2
