@<TRIPOS>MOLECULE
tmp/6cgqA00.pdb
 133 127 0 0 0
SMALL
GASTEIGER

@<TRIPOS>ATOM
      1  N         31.9930   12.8740   84.7090 N.3    54  SER54      -0.1202
      2  CA        31.3320   14.0960   84.2720 C.3    54  SER54       0.2020
      3  C         29.8440   13.8150   84.0740 C.2    54  SER54       0.2619
      4  O         29.4530   12.6820   83.8140 O.2    54  SER54      -0.2717
      5  CB        32.0060   14.6040   82.9860 C.3    54  SER54       0.2103
      6  OG        31.1320   15.2610   82.1050 O.3    54  SER54      -0.2182
      7  N         29.0150   14.8580   84.2060 N.am   55  PHE55      -0.1961
      8  CA        27.5940   14.7390   83.8940 C.3    55  PHE55       0.1771
      9  C         27.3430   14.3510   82.4440 C.2    55  PHE55       0.2619
     10  O         26.2420   13.8830   82.1210 O.2    55  PHE55      -0.2715
     11  CB        26.8620   16.0610   84.1720 C.3    55  PHE55       0.0574
     12  CG        27.1030   17.1250   83.1230 C.ar   55  PHE55      -0.0200
     13  CD1       26.2840   17.2240   81.9970 C.ar   55  PHE55      -0.0042
     14  CD2       28.1500   18.0180   83.2610 C.ar   55  PHE55      -0.0042
     15  CE1       26.5210   18.1830   81.0180 C.ar   55  PHE55      -0.0003
     16  CE2       28.3800   18.9960   82.3010 C.ar   55  PHE55      -0.0003
     17  CZ        27.5460   19.0800   81.1680 C.ar   55  PHE55      -0.0000
     18  N         28.3430   14.5510   81.5910 N.am   56  LYS56      -0.1977
     19  CA        28.2240   14.2360   80.1750 C.3    56  LYS56       0.1596
     20  C         27.7270   12.8120   79.9680 C.2    56  LYS56       0.2287
     21  O         27.0210   12.5270   79.0010 O.2    56  LYS56      -0.2864
     22  CB        29.5680   14.4310   79.4680 C.3    56  LYS56       0.0298
     23  CG        30.1270   15.8400   79.5770 C.3    56  LYS56       0.0038
     24  CD        30.2610   16.4880   78.2090 C.3    56  LYS56       0.0206
     25  CE        31.1080   17.7490   78.2750 C.3    56  LYS56       0.1093
     26  NZ        30.5020   18.7780   79.1650 N.3    56  LYS56      -0.1314
     27  N         35.9270   16.3050   78.4400 N.3    82  ASN82      -0.1240
     28  CA        35.1140   15.2620   79.0360 C.3    82  ASN82       0.1653
     29  C         34.1860   14.6040   78.0250 C.2    82  ASN82       0.2266
     30  O         33.7920   13.4530   78.2290 O.2    82  ASN82      -0.2867
     31  CB        34.3310   15.8550   80.2100 C.3    82  ASN82       0.1155
     32  CG        35.2570   16.4290   81.2850 C.2    82  ASN82       0.2627
     33  OD1       36.4320   16.0760   81.3520 O.2    82  ASN82      -0.2716
     34  ND2       34.7320   17.3140   82.1210 N.am   82  ASN82      -0.0877
     35  N         20.5880   14.3030   79.5590 N.3   153  GLN153     -0.1245
     36  CA        21.0080   15.1960   80.6180 C.3   153  GLN153      0.1566
     37  C         19.8380   15.7320   81.4320 C.2   153  GLN153      0.2260
     38  O         20.0450   16.1410   82.5760 O.2   153  GLN153     -0.2867
     39  CB        21.8340   16.3360   80.0360 C.3   153  GLN153      0.0367
     40  CG        23.2460   15.8850   79.7540 C.3   153  GLN153      0.0905
     41  CD        23.9850   16.7970   78.8310 C.2   153  GLN153      0.2608
     42  OE1       24.9350   16.3740   78.1520 O.2   153  GLN153     -0.2717
     43  NE2       23.5770   18.0630   78.7940 N.am  153  GLN153     -0.0878
     44  N         26.9450   25.4950   86.1340 N.3   174  PRO174     -0.2102
     45  CA        27.9060   26.0930   85.2020 C.3   174  PRO174      0.1504
     46  C         27.3220   26.1440   83.8050 C.2   174  PRO174      0.2576
     47  O         26.4540   25.3420   83.4370 O.2   174  PRO174     -0.2718
     48  CB        29.1120   25.1440   85.2590 C.3   174  PRO174      0.0282
     49  CG        28.9630   24.4070   86.5460 C.3   174  PRO174      0.0208
     50  CD        27.4750   24.2580   86.7340 C.3   174  PRO174      0.0893
     51  N         27.8170   27.1010   83.0230 N.am  175  VAL175     -0.1966
     52  CA        27.4460   27.2460   81.6260 C.3   175  VAL175      0.1727
     53  C         28.7330   27.2760   80.8170 C.2   175  VAL175      0.2617
     54  O         29.4950   28.2480   80.8800 O.2   175  VAL175     -0.2715
     55  CB        26.6090   28.5080   81.3690 C.3   175  VAL175      0.0290
     56  CG1       26.3740   28.6900   79.8690 C.3   175  VAL175      0.0023
     57  CG2       25.2890   28.4130   82.0950 C.3   175  VAL175      0.0023
     58  N         28.9950   26.1990   80.0800 N.am  176  GLY176     -0.1940
     59  CA        29.9740   26.1780   79.0210 C.3   176  GLY176      0.2014
     60  C         29.2760   26.3630   77.6890 C.2   176  GLY176      0.2639
     61  O         29.0670   27.4960   77.2170 O.2   176  GLY176     -0.2714
     62  N         28.8650   25.2630   77.0740 N.am  177  ASN177     -0.1958
     63  CA        28.0830   25.3320   75.8510 C.3   177  ASN177      0.1819
     64  C         26.6010   25.5310   76.1180 C.2   177  ASN177      0.2621
     65  O         25.8350   25.7090   75.1630 O.2   177  ASN177     -0.2715
     66  CB        28.2900   24.0670   75.0240 C.3   177  ASN177      0.1195
     67  CG        29.4180   24.2150   74.0350 C.2   177  ASN177      0.2630
     68  OD1       29.3470   25.0390   73.1090 O.2   177  ASN177     -0.2716
     69  ND2       30.4810   23.4320   74.2310 N.am  177  ASN177     -0.0877
     70  N         26.1860   25.4670   77.3830 N.am  178  ALA178     -0.1963
     71  CA        24.8370   25.7910   77.8550 C.3   178  ALA178      0.1728
     72  C         23.8240   24.6920   77.5440 C.2   178  ALA178      0.2617
     73  O         22.5870   24.9030   77.7590 O.2   178  ALA178     -0.2715
     74  CB        24.3510   27.1270   77.2780 C.3   178  ALA178      0.0334
     75  N         24.2730   23.5380   77.0320 N.am  179  GLY179     -0.1940
     76  CA        23.3950   22.3860   76.9810 C.3   179  GLY179      0.2014
     77  C         22.7750   22.0830   78.3350 C.2   179  GLY179      0.2639
     78  O         21.5670   21.8450   78.4420 O.2   179  GLY179     -0.2714
     79  N         23.5850   22.1330   79.3940 N.am  180  ASN180     -0.1958
     80  CA        23.1420   21.5770   80.6660 C.3   180  ASN180      0.1819
     81  C         22.0370   22.4110   81.3050 C.2   180  ASN180      0.2621
     82  O         21.0840   21.8530   81.8600 O.2   180  ASN180     -0.2715
     83  CB        24.3240   21.4230   81.6220 C.3   180  ASN180      0.1195
     84  CG        24.2270   20.1420   82.4540 C.2   180  ASN180      0.2630
     85  OD1       23.4030   19.2700   82.1690 O.2   180  ASN180     -0.2716
     86  ND2       25.0600   20.0320   83.4810 N.am  180  ASN180     -0.0877
     87  N         22.1430   23.7410   81.2520 N.am  181  ILE181     -0.1977
     88  CA        21.0870   24.5480   81.8510 C.3   181  ILE181      0.1596
     89  C         19.7680   24.3010   81.1330 C.2   181  ILE181      0.2287
     90  O         18.7080   24.2530   81.7660 O.2   181  ILE181     -0.2864
     91  CB        21.4600   26.0430   81.8690 C.3   181  ILE181      0.0276
     92  CG1       20.3890   26.8370   82.6220 C.3   181  ILE181      0.0022
     93  CG2       21.5890   26.5810   80.4740 C.3   181  ILE181      0.0022
     94  CD1       20.8850   28.1160   83.1980 C.3   181  ILE181      0.0001
     95  N         36.5510   23.4450   81.5750 N.3   228  ALA228     -0.1231
     96  CA        35.2690   22.8370   81.2190 C.3   228  ALA228      0.1694
     97  C         34.2920   23.8460   80.6210 C.2   228  ALA228      0.2591
     98  O         33.3960   23.4610   79.8560 O.2   228  ALA228     -0.2718
     99  CB        34.6460   22.1800   82.4500 C.3   228  ALA228      0.0304
    100  N         34.4320   25.1270   80.9640 N.am  229  ILE229     -0.1980
    101  CA        33.4790   26.1460   80.5420 C.3   229  ILE229      0.1595
    102  C         34.1620   27.2580   79.7430 C.2   229  ILE229      0.2287
    103  O         33.6330   28.3610   79.6370 O.2   229  ILE229     -0.2864
    104  CB        32.6970   26.7100   81.7470 C.3   229  ILE229      0.0276
    105  CG1       33.6470   27.2780   82.8000 C.3   229  ILE229      0.0022
    106  CG2       31.8010   25.6270   82.3790 C.3   229  ILE229      0.0022
    107  CD1       32.9290   27.7300   84.0780 C.3   229  ILE229      0.0001
    108  N         35.8050   19.6100   89.9810 N.3   275  GLU275     -0.1245
    109  CA        36.7680   20.2230   89.0940 C.3   275  GLU275      0.1567
    110  C         36.5090   21.7290   88.9890 C.2   275  GLU275      0.2260
    111  O         35.4080   22.1990   89.2710 O.2   275  GLU275     -0.2867
    112  CB        36.7200   19.5260   87.7350 C.3   275  GLU275      0.0388
    113  CG        35.7260   20.0670   86.7550 C.3   275  GLU275      0.1160
    114  CD        36.1540   19.7770   85.3380 C.2   275  GLU275      0.3649
    115  OE1       36.0740   18.6020   84.9070 O.co2 275  GLU275     -0.2457
    116  OE2       36.5920   20.7230   84.6550 O.co2 275  GLU275     -0.2457
    117  N         33.3230   23.1730   87.4340 N.3   278  SER278     -0.1217
    118  CA        32.1150   22.8510   88.1860 C.3   278  SER278      0.1889
    119  C         31.8390   23.8610   89.2840 C.2   278  SER278      0.2288
    120  O         30.6730   24.0960   89.6440 O.2   278  SER278     -0.2866
    121  CB        32.2380   21.4550   88.8010 C.3   278  SER278      0.2089
    122  OG        32.6450   20.5240   87.8280 O.3   278  SER278     -0.2183
    123  N         29.5900   19.6680   88.1840 N.3   305  THR305     -0.1203
    124  CA        29.4520   18.9470   86.9270 C.3   305  THR305      0.1994
    125  C         30.5200   17.8870   86.7100 C.2   305  THR305      0.2618
    126  O         30.2910   16.9600   85.9200 O.2   305  THR305     -0.2717
    127  CB        29.4850   19.9490   85.7740 C.3   305  THR305      0.1784
    128  OG1       30.4910   20.9340   86.0360 O.3   305  THR305     -0.2211
    129  CG2       28.1290   20.6440   85.6310 C.3   305  THR305      0.0376
    130  N         31.6610   17.9730   87.3970 N.am  306  GLY306     -0.1956
    131  CA        32.7540   17.0550   87.1060 C.3   306  GLY306      0.1869
    132  C         33.5870   16.6730   88.3130 C.2   306  GLY306      0.2309
    133  O         33.6210   17.3750   89.3200 O.2   306  GLY306     -0.2863
@<TRIPOS>BOND
     1    68    67    2
     2    67    69   am
     3    67    66    1
     4    66    63    1
     5    65    64    2
     6    63    64    1
     7    63    62    1
     8    64    70   am
     9    76    75    1
    10    76    77    1
    11    75    72   am
    12    62    60   am
    13    61    60    2
    14    74    71    1
    15    70    71    1
    16    72    73    2
    17    72    71    1
    18    60    59    1
    19    29    30    2
    20    29    28    1
    21    42    41    2
    22    24    25    1
    23    24    23    1
    24    25    26    1
    25    77    78    2
    26    77    79   am
    27    27    28    1
    28    43    41   am
    29    41    40    1
    30    21    20    2
    31    59    58    1
    32    28    31    1
    33    79    80    1
    34    22    23    1
    35    22    19    1
    36    35    36    1
    37   103   102    2
    38   102   101    1
    39    40    39    1
    40    98    97    2
    41    56    55    1
    42    20    19    1
    43    39    36    1
    44    58    53   am
    45    19    18    1
    46    31    32    1
    47    93    91    1
    48   101   100    1
    49   101   104    1
    50    36    37    1
    51    97   100   am
    52    97    96    1
    53    80    81    1
    54    80    83    1
    55    53    54    2
    56    53    52    1
    57    15    17   ar
    58    15    13   ar
    59    89    90    2
    60    89    88    1
    61    17    16   ar
    62    96    95    1
    63    96    99    1
    64    87    81   am
    65    87    88    1
    66    32    33    2
    67    32    34   am
    68    81    82    2
    69    55    52    1
    70    55    57    1
    71    37    38    2
    72    18     9   am
    73    83    84    1
    74    52    51    1
    75   104   106    1
    76   104   105    1
    77    88    91    1
    78    91    92    1
    79    13    12   ar
    80     6     5    1
    81    10     9    2
    82    85    84    2
    83    16    14   ar
    84     9     8    1
    85    84    86   am
    86    92    94    1
    87   105   107    1
    88     5     2    1
    89    51    46   am
    90    12    14   ar
    91    12    11    1
    92    47    46    2
    93    46    45    1
    94     4     3    2
    95     8    11    1
    96     8     7    1
    97     3     7   am
    98     3     2    1
    99     2     1    1
   100   116   114   ar
   101   115   114   ar
   102    45    48    1
   103    45    44    1
   104    48    49    1
   105   114   113    1
   106   129   127    1
   107   127   128    1
   108   127   124    1
   109   126   125    2
   110    44    50    1
   111    49    50    1
   112   125   124    1
   113   125   130   am
   114   113   112    1
   115   124   123    1
   116   131   130    1
   117   131   132    1
   118   117   118    1
   119   112   109    1
   120   122   121    1
   121   118   121    1
   122   118   119    1
   123   132   133    2
   124   110   109    1
   125   110   111    2
   126   109   108    1
   127   119   120    2
