@<TRIPOS>MOLECULE
tmp/6cgtA00.pdb
 253 248 0 0 0
SMALL
GASTEIGER

@<TRIPOS>ATOM
      1  N         16.1340   -1.4110   13.2040 N.3    47  LYS47      -0.1245
      2  CA        14.9220   -0.7670   13.7120 C.3    47  LYS47       0.1561
      3  C         14.4870   -1.2590   15.1060 C.2    47  LYS47       0.2260
      4  O         13.7470   -0.5550   15.7970 O.2    47  LYS47      -0.2867
      5  CB        13.7590   -0.9300   12.7240 C.3    47  LYS47       0.0271
      6  CG        13.9570   -0.3140   11.3320 C.3    47  LYS47       0.0035
      7  CD        13.9020    1.2350   11.3610 C.3    47  LYS47       0.0206
      8  CE        13.1420    1.8370   10.1510 C.3    47  LYS47       0.1093
      9  NZ        13.3420    3.3130    9.9430 N.3    47  LYS47      -0.1314
     10  N          5.4670   -0.3800    9.9250 N.3    89  TYR89      -0.1241
     11  CA         5.3100    0.4810    8.7420 C.3    89  TYR89       0.1605
     12  C          5.6410   -0.3310    7.4950 C.2    89  TYR89       0.2264
     13  O          6.7500   -0.8720    7.3810 O.2    89  TYR89      -0.2867
     14  CB         6.2350    1.7160    8.7970 C.3    89  TYR89       0.0534
     15  CG         5.9210    2.6970    9.8900 C.ar   89  TYR89      -0.0201
     16  CD1        4.8140    3.5450    9.8010 C.ar   89  TYR89      -0.0009
     17  CD2        6.6930    2.7460   11.0350 C.ar   89  TYR89      -0.0009
     18  CE1        4.4760    4.4180   10.8430 C.ar   89  TYR89       0.0417
     19  CE2        6.3670    3.6050   12.0800 C.ar   89  TYR89       0.0417
     20  CZ         5.2540    4.4290   11.9750 C.ar   89  TYR89       0.1957
     21  OH         4.8950    5.1870   13.0480 O.3    89  TYR89      -0.2866
     22  N          8.9930   -1.6770   13.6470 N.3    94  ASN94      -0.1240
     23  CA         9.7670   -0.5300   14.1170 C.3    94  ASN94       0.1653
     24  C          9.5420   -0.4190   15.6190 C.2    94  ASN94       0.2266
     25  O          8.4360   -0.6830   16.1010 O.2    94  ASN94      -0.2867
     26  CB         9.2850    0.7660   13.4500 C.3    94  ASN94       0.1155
     27  CG        10.1480    1.1890   12.2610 C.2    94  ASN94       0.2627
     28  OD1       11.0640    2.0170   12.4020 O.2    94  ASN94      -0.2716
     29  ND2        9.8430    0.6460   11.0820 N.am   94  ASN94      -0.0877
     30  N         13.5060    2.4690   19.9980 N.3    97  TYR97      -0.1227
     31  CA        14.8870    2.4370   20.4860 C.3    97  TYR97       0.1736
     32  C         15.5580    3.8290   20.5770 C.2    97  TYR97       0.2595
     33  O         16.4170    4.0640   21.4380 O.2    97  TYR97      -0.2718
     34  CB        15.7400    1.5000   19.6090 C.3    97  TYR97       0.0548
     35  CG        16.1280    2.0730   18.2510 C.ar   97  TYR97      -0.0200
     36  CD1       17.2770    2.8390   18.1090 C.ar   97  TYR97      -0.0009
     37  CD2       15.3170    1.8950   17.1270 C.ar   97  TYR97      -0.0009
     38  CE1       17.6130    3.4270   16.8930 C.ar   97  TYR97       0.0417
     39  CE2       15.6410    2.4770   15.9020 C.ar   97  TYR97       0.0417
     40  CZ        16.7970    3.2510   15.7910 C.ar   97  TYR97       0.1957
     41  OH        17.1300    3.8830   14.5980 O.3    97  TYR97      -0.2866
     42  N         15.1670    4.7330   19.6770 N.am   98  HIS98      -0.1975
     43  CA        15.7300    6.0820   19.6000 C.3    98  HIS98       0.1656
     44  C         15.3230    6.9410   20.7590 C.2    98  HIS98       0.2291
     45  O         15.9400    7.9700   21.0020 O.2    98  HIS98      -0.2864
     46  CB        15.3240    6.7610   18.2990 C.3    98  HIS98       0.0771
     47  CG        13.8860    6.5700   17.9640 C.ar   98  HIS98       0.0820
     48  ND1       13.4700    5.8460   16.8690 N.ar   98  HIS98      -0.2267
     49  CD2       12.7700    6.8810   18.6550 C.ar   98  HIS98       0.1154
     50  CE1       12.1580    5.7050   16.9110 C.ar   98  HIS98       0.1986
     51  NE2       11.7100    6.3210   17.9870 N.ar   98  HIS98      -0.2212
     52  N         12.6620    8.7760   21.0480 N.3   100  TYR100     -0.1227
     53  CA        11.7900    9.8730   20.6650 C.3   100  TYR100      0.1736
     54  C         10.2880    9.6720   20.6990 C.2   100  TYR100      0.2595
     55  O          9.5230   10.6030   20.4270 O.2   100  TYR100     -0.2718
     56  CB        12.2210   10.4140   19.3160 C.3   100  TYR100      0.0548
     57  CG        13.6210   10.9750   19.3320 C.ar  100  TYR100     -0.0200
     58  CD1       13.9120   12.1580   20.0080 C.ar  100  TYR100     -0.0009
     59  CD2       14.6390   10.3520   18.6320 C.ar  100  TYR100     -0.0009
     60  CE1       15.1790   12.7050   19.9750 C.ar  100  TYR100      0.0417
     61  CE2       15.9090   10.8890   18.5830 C.ar  100  TYR100      0.0417
     62  CZ        16.1820   12.0720   19.2490 C.ar  100  TYR100      0.1957
     63  OH        17.4320   12.6490   19.1110 O.3   100  TYR100     -0.2866
     64  N          9.8470    8.4730   21.0430 N.am  101  TRP101     -0.1976
     65  CA         8.4170    8.2350   21.1070 C.3   101  TRP101      0.1640
     66  C          7.9910    8.2240   22.5620 C.2   101  TRP101      0.2290
     67  O          7.6210    7.1990   23.1230 O.2   101  TRP101     -0.2864
     68  CB         8.0500    6.9550   20.3630 C.3   101  TRP101      0.0576
     69  CG         8.3510    7.0710   18.8910 C.ar  101  TRP101      0.0006
     70  CD1        8.5760    8.2290   18.1890 C.ar  101  TRP101      0.0946
     71  CD2        8.4920    6.0060   17.9450 C.ar  101  TRP101      0.0152
     72  NE1        8.8440    7.9450   16.8690 N.ar  101  TRP101     -0.2442
     73  CE2        8.8020    6.5910   16.6930 C.ar  101  TRP101      0.0810
     74  CE3        8.3940    4.6160   18.0350 C.ar  101  TRP101      0.0012
     75  CZ2        9.0170    5.8390   15.5550 C.ar  101  TRP101      0.0191
     76  CZ3        8.6100    3.8630   16.8920 C.ar  101  TRP101      0.0001
     77  CH2        8.9170    4.4790   15.6680 C.ar  101  TRP101      0.0015
     78  N          5.9400   16.4440   20.9200 N.3   140  HIS140     -0.1241
     79  CA         5.0030   15.3610   20.6730 C.3   140  HIS140      0.1621
     80  C          5.2050   14.1480   21.5640 C.2   140  HIS140      0.2264
     81  O          6.1550   14.0580   22.3320 O.2   140  HIS140     -0.2867
     82  CB         5.1990   14.9050   19.2340 C.3   140  HIS140      0.0745
     83  CG         6.5970   14.4290   18.9510 C.ar  140  HIS140      0.0817
     84  ND1        7.6110   15.2870   18.5880 N.ar  140  HIS140     -0.2268
     85  CD2        7.1540   13.1990   19.0230 C.ar  140  HIS140      0.1154
     86  CE1        8.7350   14.6040   18.4520 C.ar  140  HIS140      0.1986
     87  NE2        8.4880   13.3360   18.7080 N.ar  140  HIS140     -0.2212
     88  N         -2.7250    7.4280   14.7210 N.3   145  MET145     -0.1245
     89  CA        -3.6780    7.5180   13.6260 C.3   145  MET145      0.1570
     90  C         -5.0090    7.9410   14.2460 C.2   145  MET145      0.2261
     91  O         -5.6800    7.1420   14.9020 O.2   145  MET145     -0.2867
     92  CB        -3.8050    6.1470   12.9600 C.3   145  MET145      0.0387
     93  CG        -4.1590    6.1650   11.5130 C.3   145  MET145      0.0595
     94  SD        -3.1000    4.9550   10.6530 S.3   145  MET145     -0.1393
     95  CE        -1.8300    6.1580    9.8470 C.3   145  MET145      0.0692
     96  N          5.4550   20.9640    5.4740 N.3   183  PHE183     -0.1241
     97  CA         6.6490   21.8330    5.5260 C.3   183  PHE183      0.1605
     98  C          6.7250   22.9410    4.4650 C.2   183  PHE183      0.2264
     99  O          7.8110   23.2520    3.9810 O.2   183  PHE183     -0.2867
    100  CB         7.9460   21.0140    5.4260 C.3   183  PHE183      0.0534
    101  CG         8.0490   19.8900    6.4120 C.ar  183  PHE183     -0.0203
    102  CD1        7.5200   20.0030    7.7000 C.ar  183  PHE183     -0.0042
    103  CD2        8.6790   18.7030    6.0500 C.ar  183  PHE183     -0.0042
    104  CE1        7.6140   18.9360    8.6250 C.ar  183  PHE183     -0.0003
    105  CE2        8.7810   17.6290    6.9620 C.ar  183  PHE183     -0.0003
    106  CZ         8.2450   17.7510    8.2510 C.ar  183  PHE183     -0.0000
    107  N          4.2460   16.3770   12.7950 N.3   194  THR194     -0.1203
    108  CA         5.5410   16.1930   12.1580 C.3   194  THR194      0.1994
    109  C          5.6260   14.6870   11.9690 C.2   194  THR194      0.2618
    110  O          5.7960   13.9430   12.9390 O.2   194  THR194     -0.2717
    111  CB         6.6910   16.7770   13.0710 C.3   194  THR194      0.1784
    112  OG1        7.0230   18.0930   12.6020 O.3   194  THR194     -0.2211
    113  CG2        7.9520   15.9320   13.0560 C.3   194  THR194      0.0376
    114  N          5.5180   14.2460   10.7160 N.am  195  TYR195     -0.1961
    115  CA         5.4880   12.8190   10.3930 C.3   195  TYR195      0.1771
    116  C          4.1350   12.3860   10.9420 C.2   195  TYR195      0.2620
    117  O          3.1510   13.1380   10.8290 O.2   195  TYR195     -0.2715
    118  CB         6.6460   12.0240   11.0340 C.3   195  TYR195      0.0574
    119  CG         7.9950   12.4320   10.4840 C.ar  195  TYR195     -0.0198
    120  CD1        8.1880   12.5600    9.1010 C.ar  195  TYR195     -0.0009
    121  CD2        9.0270   12.8390   11.3330 C.ar  195  TYR195     -0.0009
    122  CE1        9.3530   13.1020    8.5770 C.ar  195  TYR195      0.0417
    123  CE2       10.2080   13.3840   10.8200 C.ar  195  TYR195      0.0417
    124  CZ        10.3560   13.5260    9.4380 C.ar  195  TYR195      0.1957
    125  OH        11.4540   14.1870    8.9150 O.3   195  TYR195     -0.2866
    126  N          4.0500   11.2050   11.5320 N.am  196  ASP196     -0.1957
    127  CA         2.7660   10.7750   12.0570 C.3   196  ASP196      0.1840
    128  C          2.6840   10.9720   13.5540 C.2   196  ASP196      0.2621
    129  O          1.8250   10.3890   14.2130 O.2   196  ASP196     -0.2715
    130  CB         2.4630    9.3240   11.6490 C.3   196  ASP196      0.1450
    131  CG         3.4050    8.3120   12.2800 C.2   196  ASP196      0.3671
    132  OD1        4.5690    8.6490   12.6240 O.co2 196  ASP196     -0.2456
    133  OD2        2.9610    7.1480   12.4240 O.co2 196  ASP196     -0.2456
    134  N          3.5030   11.8920   14.0580 N.am  197  LEU197     -0.1977
    135  CA         3.5930   12.1900   15.4790 C.3   197  LEU197      0.1596
    136  C          2.5650   13.1290   16.1550 C.2   197  LEU197      0.2287
    137  O          2.4650   14.3200   15.8180 O.2   197  LEU197     -0.2864
    138  CB         5.0040   12.6800   15.7610 C.3   197  LEU197      0.0297
    139  CG         6.0540   11.6200   15.4580 C.3   197  LEU197      0.0022
    140  CD1        7.4110   12.2450   15.2810 C.3   197  LEU197      0.0001
    141  CD2        6.0640   10.5990   16.5570 C.3   197  LEU197      0.0001
    142  N         19.0150   19.0140   25.1770 N.3   227  ARG227     -0.1245
    143  CA        19.0970   19.1140   23.7210 C.3   227  ARG227      0.1563
    144  C         17.6240   19.0640   23.4230 C.2   227  ARG227      0.2260
    145  O         16.9930   18.0330   23.6740 O.2   227  ARG227     -0.2867
    146  CB        19.7350   17.8590   23.1220 C.3   227  ARG227      0.0307
    147  CG        20.3840   17.9640   21.7160 C.3   227  ARG227      0.0489
    148  CD        19.4810   18.1010   20.4870 C.3   227  ARG227      0.2205
    149  NE        18.4130   17.1120   20.3110 N.pl3 227  ARG227     -0.0865
    150  CZ        17.9280   16.6850   19.1330 C.cat 227  ARG227      0.5346
    151  NH1       18.4650   17.0700   17.9880 N.pl3 227  ARG227      0.1354
    152  NH2       16.9260   15.8160   19.1020 N.pl3 227  ARG227      0.1354
    153  N         14.5430   18.7520   21.0820 N.3   229  ASP229     -0.1225
    154  CA        14.2280   18.1900   19.7770 C.3   229  ASP229      0.1805
    155  C         13.1800   19.0250   19.0430 C.2   229  ASP229      0.2597
    156  O         12.3190   19.6630   19.6520 O.2   229  ASP229     -0.2718
    157  CB        13.7180   16.7640   19.9760 C.3   229  ASP229      0.1424
    158  CG        13.3230   16.0630   18.6720 C.2   229  ASP229      0.3668
    159  OD1       14.1750   15.9180   17.7690 O.co2 229  ASP229     -0.2456
    160  OD2       12.1710   15.5810   18.5870 O.co2 229  ASP229     -0.2456
    161  N         13.3110   19.0720   17.7240 N.am  230  ALA230     -0.1979
    162  CA        12.3700   19.7890   16.8590 C.3   230  ALA230      0.1597
    163  C         11.8720   21.1740   17.3520 C.2   230  ALA230      0.2287
    164  O         10.6740   21.4340   17.3780 O.2   230  ALA230     -0.2864
    165  CB        11.1730   18.8600   16.5410 C.3   230  ALA230      0.0319
    166  N         12.0510   23.7350   15.8070 N.3   232  LYS232     -0.1231
    167  CA        11.5380   24.3410   14.5860 C.3   232  LYS232      0.1693
    168  C         10.0290   24.0760   14.4580 C.2   232  LYS232      0.2592
    169  O          9.3390   24.7040   13.6400 O.2   232  LYS232     -0.2718
    170  CB        12.2760   23.7040   13.4050 C.3   232  LYS232      0.0285
    171  CG        11.9540   24.2440   12.0300 C.3   232  LYS232      0.0035
    172  CD        12.8330   23.5540   10.9920 C.3   232  LYS232      0.0206
    173  CE        12.5230   24.0690    9.5800 C.3   232  LYS232      0.1093
    174  NZ        13.3010   23.3510    8.5420 N.3   232  LYS232     -0.1314
    175  N          9.5220   23.1250   15.2420 N.am  233  HIS233     -0.1976
    176  CA         8.1150   22.8090   15.1690 C.3   233  HIS233      0.1656
    177  C          7.2900   23.1930   16.3730 C.2   233  HIS233      0.2291
    178  O          6.1560   22.7510   16.5020 O.2   233  HIS233     -0.2864
    179  CB         7.9060   21.3410   14.7970 C.3   233  HIS233      0.0771
    180  CG         8.8040   20.8770   13.6960 C.ar  233  HIS233      0.0820
    181  ND1        8.5410   21.0970   12.3580 N.ar  233  HIS233     -0.2267
    182  CD2       10.0390   20.3240   13.7460 C.ar  233  HIS233      0.1154
    183  CE1        9.5790   20.7140   11.6370 C.ar  233  HIS233      0.1986
    184  NE2       10.5010   20.2450   12.4600 N.ar  233  HIS233     -0.2212
    185  N         17.5150   21.8890   18.2710 N.3   257  GLU257     -0.1245
    186  CA        17.6800   21.4400   16.8900 C.3   257  GLU257      0.1567
    187  C         16.7790   22.1440   15.9050 C.2   257  GLU257      0.2260
    188  O         15.5640   21.9470   15.9350 O.2   257  GLU257     -0.2867
    189  CB        17.3830   19.9470   16.8090 C.3   257  GLU257      0.0388
    190  CG        17.4060   19.3360   15.3900 C.3   257  GLU257      0.1160
    191  CD        16.1560   18.4970   15.0890 C.2   257  GLU257      0.3649
    192  OE1       15.1090   18.7320   15.7310 O.co2 257  GLU257     -0.2457
    193  OE2       16.2050   17.6360   14.1940 O.co2 257  GLU257     -0.2457
    194  N         16.7210   22.1830   12.2030 N.3   259  PHE259     -0.1227
    195  CA        17.2950   21.5220   11.0690 C.3   259  PHE259      0.1736
    196  C         17.2780   22.3910    9.8500 C.2   259  PHE259      0.2595
    197  O         16.2090   22.8350    9.4100 O.2   259  PHE259     -0.2718
    198  CB        16.5920   20.1860   10.8010 C.3   259  PHE259      0.0547
    199  CG        17.3940   19.2410    9.9360 C.ar  259  PHE259     -0.0202
    200  CD1       17.5850   19.5060    8.5800 C.ar  259  PHE259     -0.0042
    201  CD2       17.9590   18.0960   10.4740 C.ar  259  PHE259     -0.0042
    202  CE1       18.3280   18.6410    7.7710 C.ar  259  PHE259     -0.0003
    203  CE2       18.6990   17.2320    9.6780 C.ar  259  PHE259     -0.0003
    204  CZ        18.8830   17.5090    8.3190 C.ar  259  PHE259     -0.0000
    205  N         18.4890   22.5980    9.3190 N.am  260  LEU260     -0.1966
    206  CA        18.7530   23.3770    8.1240 C.3   260  LEU260      0.1728
    207  C         19.4450   22.5190    7.0680 C.2   260  LEU260      0.2616
    208  O         20.1940   21.5980    7.3990 O.2   260  LEU260     -0.2715
    209  CB        19.6070   24.5810    8.4730 C.3   260  LEU260      0.0311
    210  CG        18.7800   25.7510    8.9830 C.3   260  LEU260      0.0022
    211  CD1       19.7030   26.8540    9.5220 C.3   260  LEU260      0.0001
    212  CD2       17.8910   26.2580    7.8500 C.3   260  LEU260      0.0001
    213  N         19.2580   22.8880    5.7970 N.am  261  GLY261     -0.1955
    214  CA        19.8180   22.1280    4.6810 C.3   261  GLY261      0.1869
    215  C         21.1010   22.6390    4.0570 C.2   261  GLY261      0.2309
    216  O         21.9740   21.8520    3.6320 O.2   261  GLY261     -0.2863
    217  N         22.6620   11.5590   13.7100 N.3   327  HIS327     -0.1226
    218  CA        21.7320   10.4820   13.4290 C.3   327  HIS327      0.1752
    219  C         20.6830   10.7300   12.3660 C.2   327  HIS327      0.2596
    220  O         19.9320    9.8290   12.0350 O.2   327  HIS327     -0.2718
    221  CB        21.0580   10.0560   14.7140 C.3   327  HIS327      0.0759
    222  CG        20.3120   11.1570   15.3860 C.ar  327  HIS327      0.0818
    223  ND1       20.9430   12.2640   15.9010 N.ar  327  HIS327     -0.2268
    224  CD2       18.9870   11.3470   15.5780 C.ar  327  HIS327      0.1154
    225  CE1       20.0350   13.0980   16.3780 C.ar  327  HIS327      0.1986
    226  NE2       18.8400   12.5680   16.1990 N.ar  327  HIS327     -0.2212
    227  N         20.6330   11.9390   11.8160 N.am  328  ASP328     -0.1974
    228  CA        19.6420   12.2660   10.7910 C.3   328  ASP328      0.1709
    229  C         20.3020   12.5220    9.4550 C.2   328  ASP328      0.2293
    230  O         19.7780   13.2450    8.5840 O.2   328  ASP328     -0.2864
    231  CB        18.8200   13.4780   11.2270 C.3   328  ASP328      0.1436
    232  CG        17.8610   13.1620   12.3650 C.2   328  ASP328      0.3671
    233  OD1       17.6160   11.9700   12.6640 O.co2 328  ASP328     -0.2456
    234  OD2       17.3290   14.1210   12.9610 O.co2 328  ASP328     -0.2456
    235  N         18.8550    6.6740    7.8080 N.3   371  ASP371     -0.1239
    236  CA        18.2740    6.1950    9.0490 C.3   371  ASP371      0.1674
    237  C         17.6270    4.8590    8.6290 C.2   371  ASP371      0.2266
    238  O         16.8620    4.8050    7.6690 O.2   371  ASP371     -0.2867
    239  CB        17.2550    7.2590    9.5070 C.3   371  ASP371      0.1410
    240  CG        16.2660    6.7720   10.5630 C.2   371  ASP371      0.3668
    241  OD1       16.4440    5.7200   11.2200 O.co2 371  ASP371     -0.2456
    242  OD2       15.2770    7.4990   10.7600 O.co2 371  ASP371     -0.2456
    243  N         22.7040    4.6990   12.5470 N.3   375  ARG375     -0.1245
    244  CA        22.6170    4.3820   13.9700 C.3   375  ARG375      0.1563
    245  C         22.9960    2.9360   14.2930 C.2   375  ARG375      0.2260
    246  O         22.2670    2.2370   15.0210 O.2   375  ARG375     -0.2867
    247  CB        21.2040    4.6490   14.4760 C.3   375  ARG375      0.0307
    248  CG        20.7680    6.1040   14.4330 C.3   375  ARG375      0.0489
    249  CD        19.5750    6.2840   13.5540 C.3   375  ARG375      0.2205
    250  NE        18.4750    6.9190   14.2610 N.pl3 375  ARG375     -0.0865
    251  CZ        17.7220    7.8850   13.7370 C.cat 375  ARG375      0.5346
    252  NH1       17.9710    8.3360   12.5240 N.pl3 375  ARG375      0.1354
    253  NH2       16.7220    8.4160   14.4170 N.pl3 375  ARG375      0.1354
@<TRIPOS>BOND
     1   216   215    2
     2    99    98    2
     3   215   214    1
     4    98    97    1
     5   214   213    1
     6   100    97    1
     7   100   101    1
     8    96    97    1
     9   213   207   am
    10   103   101   ar
    11   103   105   ar
    12   101   102   ar
    13   105   106   ar
    14   207   208    2
    15   207   206    1
    16    13    12    2
    17    12    11    1
    18   238   237    2
    19   102   104   ar
    20   202   204   ar
    21   202   200   ar
    22   235   236    1
    23   212   210    1
    24   206   209    1
    25   206   205    1
    26   106   104   ar
    27   204   203   ar
    28   209   210    1
    29   174   173    1
    30   122   120   ar
    31   122   124   ar
    32   200   199   ar
    33   230   229    2
    34   237   236    1
    35    11    14    1
    36    11    10    1
    37    14    15    1
    38   125   124    1
    39   210   211    1
    40   236   239    1
    41   120   119   ar
    42   205   196   am
    43   197   196    2
    44   124   123   ar
    45   229   228    1
    46   239   240    1
    47   173   172    1
    48   203   201   ar
    49    16    15   ar
    50    16    18   ar
    51    95    94    1
    52   196   195    1
    53    15    17   ar
    54   199   201   ar
    55   199   198    1
    56     9     8    1
    57     8     7    1
    58   115   114    1
    59   115   116    1
    60   115   118    1
    61   119   118    1
    62   119   121   ar
    63   240   242   ar
    64   240   241   ar
    65    94    93    1
    66   114   109   am
    67   228   231    1
    68   228   227    1
    69   198   195    1
    70   123   121   ar
    71   117   116    2
    72    18    20   ar
    73   116   126   am
    74   172   171    1
    75    17    19   ar
    76   195   194    1
    77    29    27   am
    78   231   232    1
    79     6     7    1
    80     6     5    1
    81    93    92    1
    82   126   127    1
    83   183   181   ar
    84   183   184   ar
    85   130   127    1
    86   130   131    1
    87   227   219   am
    88   109   108    1
    89   109   110    2
    90    20    19   ar
    91    20    21    1
    92   171   170    1
    93   220   219    2
    94   127   128    1
    95   108   107    1
    96   108   111    1
    97    27    28    2
    98    27    26    1
    99   131   133   ar
   100   131   132   ar
   101   181   180   ar
   102   232   233   ar
   103   232   234   ar
   104   219   218    1
   105   184   182   ar
   106   252   251    1
   107   243   244    1
   108   112   111    1
   109     5     2    1
   110    92    89    1
   111   113   111    1
   112     1     2    1
   113   170   167    1
   114   218   217    1
   115   218   221    1
   116    26    23    1
   117   249   250    1
   118   249   248    1
   119   128   134   am
   120   128   129    2
   121    89    90    1
   122    89    88    1
   123   169   168    2
   124    22    23    1
   125   180   182   ar
   126   180   179    1
   127     2     3    1
   128   251   250    2
   129   251   253    1
   130   244   245    1
   131   244   247    1
   132   134   135    1
   133    23    24    1
   134   193   191   ar
   135    90    91    2
   136   245   246    2
   137   248   247    1
   138   168   167    1
   139   168   175   am
   140   167   166    1
   141    41    40    1
   142   221   222    1
   143   179   176    1
   144   191   190    1
   145   191   192   ar
   146     3     4    2
   147   176   175    1
   148   176   177    1
   149   140   139    1
   150   222   224   ar
   151   222   223   ar
   152   190   189    1
   153   139   138    1
   154   139   141    1
   155   135   138    1
   156   135   136    1
   157    75    77   ar
   158    75    73   ar
   159   224   226   ar
   160    24    25    2
   161    77    76   ar
   162    40    39   ar
   163    40    38   ar
   164   137   136    2
   165   223   225   ar
   166    39    37   ar
   167   187   188    2
   168   187   186    1
   169   226   225   ar
   170   177   178    2
   171   165   162    1
   172    73    72   ar
   173    73    71   ar
   174   189   186    1
   175   162   163    1
   176   162   161    1
   177    48    50   ar
   178    48    47   ar
   179    72    70   ar
   180   186   185    1
   181    76    74   ar
   182    38    36   ar
   183    50    51   ar
   184    37    35   ar
   185   163   164    2
   186   161   155   am
   187   159   158   ar
   188    71    74   ar
   189    71    69   ar
   190    47    46    1
   191    47    49   ar
   192    51    49   ar
   193   151   150    1
   194    36    35   ar
   195    70    69   ar
   196    35    34    1
   197    46    43    1
   198    86    84   ar
   199    86    87   ar
   200    61    59   ar
   201    61    62   ar
   202   160   158   ar
   203    84    83   ar
   204    59    57   ar
   205   158   157    1
   206    87    85   ar
   207    69    68    1
   208    83    85   ar
   209    83    82    1
   210   155   156    2
   211   155   154    1
   212   152   150    1
   213    63    62    1
   214   150   149    2
   215    82    79    1
   216    62    60   ar
   217    56    57    1
   218    56    53    1
   219    57    58   ar
   220    43    42    1
   221    43    44    1
   222    34    31    1
   223    42    32   am
   224   154   157    1
   225   154   153    1
   226    60    58   ar
   227    30    31    1
   228   149   148    1
   229    68    65    1
   230    55    54    2
   231    31    32    1
   232   148   147    1
   233    32    33    2
   234    53    54    1
   235    53    52    1
   236    79    78    1
   237    79    80    1
   238    54    64   am
   239    44    45    2
   240    64    65    1
   241    65    66    1
   242    80    81    2
   243   147   146    1
   244    66    67    2
   245   146   143    1
   246   144   145    2
   247   144   143    1
   248   143   142    1
