@<TRIPOS>MOLECULE
tmp/6cgzA00.pdb
 135 131 0 0 0
SMALL
GASTEIGER

@<TRIPOS>ATOM
      1  N        -25.4790  -50.4350   10.3100 N.3    12  MET12      -0.1245
      2  CA       -26.8520  -50.3790   10.7350 C.3    12  MET12       0.1570
      3  C        -27.6460  -49.6380    9.6750 C.2    12  MET12       0.2261
      4  O        -27.1090  -48.7980    8.9510 O.2    12  MET12      -0.2867
      5  CB       -26.9410  -49.6280   12.0510 C.3    12  MET12       0.0387
      6  CG       -28.3430  -49.4330   12.5780 C.3    12  MET12       0.0595
      7  SD       -28.3570  -48.6280   14.2050 S.3    12  MET12      -0.1393
      8  CE       -27.8720  -50.0530   15.1670 C.3    12  MET12       0.0692
      9  N        -31.5030  -47.5470    9.0430 N.3    14  MET14      -0.1245
     10  CA       -32.6890  -47.0270    9.6590 C.3    14  MET14       0.1570
     11  C        -33.2850  -45.9520    8.7600 C.2    14  MET14       0.2261
     12  O        -32.6590  -45.5070    7.7980 O.2    14  MET14      -0.2867
     13  CB       -32.3990  -46.4450   11.0250 C.3    14  MET14       0.0387
     14  CG       -31.5880  -45.1760   10.9630 C.3    14  MET14       0.0595
     15  SD       -31.0890  -44.6200   12.6000 S.3    14  MET14      -0.1393
     16  CE       -30.1980  -43.1470   12.1260 C.3    14  MET14       0.0692
     17  N        -34.7880  -40.6100   11.2360 N.3    18  TRP18      -0.1241
     18  CA       -34.1660  -40.7230   12.5660 C.3    18  TRP18       0.1605
     19  C        -32.8860  -39.9040   12.5770 C.2    18  TRP18       0.2264
     20  O        -32.5400  -39.3050   13.5890 O.2    18  TRP18      -0.2867
     21  CB       -33.8060  -42.1680   12.9400 C.3    18  TRP18       0.0550
     22  CG       -34.9190  -43.1340   13.1560 C.ar   18  TRP18       0.0003
     23  CD1      -35.2410  -44.2110   12.3630 C.ar   18  TRP18       0.0946
     24  CD2      -35.8130  -43.1940   14.2770 C.ar   18  TRP18       0.0152
     25  NE1      -36.2880  -44.9080   12.9030 N.ar   18  TRP18      -0.2442
     26  CE2      -36.6670  -44.3040   14.0750 C.ar   18  TRP18       0.0810
     27  CE3      -35.9930  -42.4020   15.4240 C.ar   18  TRP18       0.0012
     28  CZ2      -37.6790  -44.6470   14.9790 C.ar   18  TRP18       0.0191
     29  CZ3      -37.0060  -42.7590   16.3250 C.ar   18  TRP18       0.0001
     30  CH2      -37.8330  -43.8490   16.0890 C.ar   18  TRP18       0.0015
     31  N        -25.3480  -46.9120    7.6410 N.3    40  PHE40      -0.1241
     32  CA       -24.2230  -46.1930    8.1920 C.3    40  PHE40       0.1605
     33  C        -23.3740  -47.1090    9.0490 C.2    40  PHE40       0.2264
     34  O        -23.8400  -48.1550    9.4990 O.2    40  PHE40      -0.2867
     35  CB       -24.7130  -45.0020    9.0100 C.3    40  PHE40       0.0534
     36  CG       -25.7170  -45.3730   10.0390 C.ar   40  PHE40      -0.0203
     37  CD1      -27.0680  -45.3890    9.7330 C.ar   40  PHE40      -0.0042
     38  CD2      -25.3170  -45.7270   11.3120 C.ar   40  PHE40      -0.0042
     39  CE1      -27.9830  -45.7670   10.6890 C.ar   40  PHE40      -0.0003
     40  CE2      -26.2290  -46.0830   12.2710 C.ar   40  PHE40      -0.0003
     41  CZ       -27.5740  -46.0900   11.9670 C.ar   40  PHE40      -0.0000
     42  N        -33.9040  -50.7300   13.3030 N.3    79  PHE79      -0.1241
     43  CA       -32.4950  -50.3720   13.4040 C.3    79  PHE79       0.1605
     44  C        -31.6200  -51.6100   13.2080 C.2    79  PHE79       0.2264
     45  O        -30.6930  -51.8640   13.9900 O.2    79  PHE79      -0.2867
     46  CB       -32.1760  -49.7290   14.7620 C.3    79  PHE79       0.0534
     47  CG       -33.0500  -48.5610   15.1100 C.ar   79  PHE79      -0.0203
     48  CD1      -32.7470  -47.3000   14.6520 C.ar   79  PHE79      -0.0042
     49  CD2      -34.1770  -48.7350   15.8880 C.ar   79  PHE79      -0.0042
     50  CE1      -33.5520  -46.2130   14.9650 C.ar   79  PHE79      -0.0003
     51  CE2      -34.9890  -47.6530   16.2040 C.ar   79  PHE79      -0.0003
     52  CZ       -34.6640  -46.3950   15.7550 C.ar   79  PHE79      -0.0000
     53  N        -26.5780  -46.0410   24.8070 N.3   112  HIS112     -0.1226
     54  CA       -27.4140  -46.6260   23.7580 C.3   112  HIS112      0.1752
     55  C        -26.8710  -47.9640   23.2260 C.2   112  HIS112      0.2596
     56  O        -25.6910  -48.2540   23.3390 O.2   112  HIS112     -0.2718
     57  CB       -27.5540  -45.6770   22.5760 C.3   112  HIS112      0.0759
     58  CG       -28.5440  -44.5920   22.8030 C.ar  112  HIS112      0.0818
     59  ND1      -28.5870  -43.4580   22.0230 N.ar  112  HIS112     -0.2268
     60  CD2      -29.5210  -44.4600   23.7280 C.ar  112  HIS112      0.1154
     61  CE1      -29.5670  -42.6770   22.4490 C.ar  112  HIS112      0.1986
     62  NE2      -30.1400  -43.2470   23.4960 N.ar  112  HIS112     -0.2212
     63  N        -27.7770  -48.7250   22.6320 N.am  113  LEU113     -0.1966
     64  CA       -27.5490  -50.0410   22.0640 C.3   113  LEU113      0.1728
     65  C        -26.3620  -50.1720   21.1290 C.2   113  LEU113      0.2616
     66  O        -25.7530  -51.2340   21.1080 O.2   113  LEU113     -0.2715
     67  CB       -28.8270  -50.5480   21.3710 C.3   113  LEU113      0.0311
     68  CG       -29.2130  -49.9120   20.0210 C.3   113  LEU113      0.0022
     69  CD1      -30.5140  -50.5250   19.5220 C.3   113  LEU113      0.0001
     70  CD2      -29.3140  -48.4070   20.1080 C.3   113  LEU113      0.0001
     71  N        -25.9990  -49.1110   20.3950 N.am  114  ASP114     -0.1971
     72  CA       -24.8970  -49.1920   19.4190 C.3   114  ASP114      0.1709
     73  C        -23.5670  -48.5920   19.9060 C.2   114  ASP114      0.2293
     74  O        -22.6300  -48.4620   19.1290 O.2   114  ASP114     -0.2864
     75  CB       -25.3160  -48.5290   18.1090 C.3   114  ASP114      0.1436
     76  CG       -25.7720  -47.0920   18.2900 C.2   114  ASP114      0.3671
     77  OD1      -26.5140  -46.7950   19.2530 O.co2 114  ASP114     -0.2456
     78  OD2      -25.3850  -46.2290   17.4790 O.co2 114  ASP114     -0.2456
     79  N        -36.6050  -50.4340   22.7140 N.3   148  GLY148     -0.1210
     80  CA       -35.9960  -49.1180   22.8880 C.3   148  GLY148      0.1956
     81  C        -34.4930  -49.1260   22.7210 C.2   148  GLY148      0.2611
     82  O        -33.8820  -50.1550   22.4130 O.2   148  GLY148     -0.2717
     83  N        -33.8900  -47.9720   22.9770 N.am  149  ALA149     -0.1979
     84  CA       -32.4770  -47.7650   22.6910 C.3   149  ALA149      0.1597
     85  C        -31.5760  -48.2390   23.8150 C.2   149  ALA149      0.2287
     86  O        -30.3550  -48.2970   23.6320 O.2   149  ALA149     -0.2864
     87  CB       -32.2280  -46.2970   22.4240 C.3   149  ALA149      0.0319
     88  N        -28.6120  -35.5040   22.7400 N.3   190  HIS190     -0.1241
     89  CA       -29.0060  -36.7460   22.1170 C.3   190  HIS190      0.1621
     90  C        -29.5200  -37.7320   23.1450 C.2   190  HIS190      0.2264
     91  O        -30.4770  -38.4470   22.8770 O.2   190  HIS190     -0.2867
     92  CB       -27.8290  -37.3390   21.3410 C.3   190  HIS190      0.0745
     93  CG       -28.0610  -38.7130   20.8250 C.ar  190  HIS190      0.0817
     94  ND1      -28.8240  -38.9770   19.7150 N.ar  190  HIS190     -0.2268
     95  CD2      -27.5800  -39.9150   21.2410 C.ar  190  HIS190      0.1154
     96  CE1      -28.8160  -40.2760   19.4660 C.ar  190  HIS190      0.1986
     97  NE2      -28.0640  -40.8620   20.3720 N.ar  190  HIS190     -0.2212
     98  N        -22.6120  -39.7760   19.0510 N.3   212  ASP212     -0.1239
     99  CA       -23.9690  -39.3860   18.6370 C.3   212  ASP212      0.1674
    100  C        -24.3260  -37.9180   18.9380 C.2   212  ASP212      0.2266
    101  O        -25.4350  -37.4940   18.6160 O.2   212  ASP212     -0.2867
    102  CB       -25.0290  -40.3380   19.2460 C.3   212  ASP212      0.1410
    103  CG       -25.0980  -41.7320   18.5550 C.2   212  ASP212      0.3668
    104  OD1      -24.3990  -41.9630   17.5410 O.co2 212  ASP212     -0.2456
    105  OD2      -25.8740  -42.5930   19.0530 O.co2 212  ASP212     -0.2456
    106  N        -24.3400  -36.8730   14.3850 N.3   215  TYR215     -0.1241
    107  CA       -24.4170  -38.1060   13.6010 C.3   215  TYR215      0.1605
    108  C        -23.5540  -38.0540   12.3410 C.2   215  TYR215      0.2264
    109  O        -22.8750  -39.0280   11.9700 O.2   215  TYR215     -0.2867
    110  CB       -25.8450  -38.3560   13.1650 C.3   215  TYR215      0.0534
    111  CG       -26.7840  -39.0210   14.1220 C.ar  215  TYR215     -0.0201
    112  CD1      -26.3510  -39.9470   15.0740 C.ar  215  TYR215     -0.0009
    113  CD2      -28.1440  -38.7770   14.0320 C.ar  215  TYR215     -0.0009
    114  CE1      -27.2480  -40.5840   15.9220 C.ar  215  TYR215      0.0417
    115  CE2      -29.0410  -39.4300   14.8570 C.ar  215  TYR215      0.0417
    116  CZ       -28.5950  -40.3170   15.7990 C.ar  215  TYR215      0.1957
    117  OH       -29.5260  -40.9560   16.5990 O.3   215  TYR215     -0.2866
    118  N        -36.1280  -37.7860   16.3710 N.3   229  ILE229     -0.1245
    119  CA       -36.6090  -37.7060   17.7280 C.3   229  ILE229      0.1561
    120  C        -35.3760  -37.3710   18.5360 C.2   229  ILE229      0.2260
    121  O        -34.3200  -37.9940   18.3740 O.2   229  ILE229     -0.2867
    122  CB       -37.3260  -38.9800   18.1810 C.3   229  ILE229      0.0252
    123  CG1      -38.8150  -38.8240   17.8500 C.3   229  ILE229      0.0019
    124  CG2      -37.1600  -39.1880   19.6790 C.3   229  ILE229      0.0019
    125  CD1      -39.6180  -40.1020   17.9620 C.3   229  ILE229      0.0001
    126  N        -21.6330  -41.4200   12.9000 N.3   258  HIS258     -0.1241
    127  CA       -22.1510  -42.3490   11.9150 C.3   258  HIS258      0.1621
    128  C        -22.1810  -41.8120   10.4830 C.2   258  HIS258      0.2264
    129  O        -23.1930  -41.9060    9.8220 O.2   258  HIS258     -0.2867
    130  CB       -23.5650  -42.7230   12.2990 C.3   258  HIS258      0.0745
    131  CG       -23.6890  -43.4280   13.6120 C.ar  258  HIS258      0.0817
    132  ND1      -23.1230  -44.6550   13.8640 N.ar  258  HIS258     -0.2268
    133  CD2      -24.3550  -43.0830   14.7410 C.ar  258  HIS258      0.1154
    134  CE1      -23.4280  -45.0330   15.0950 C.ar  258  HIS258      0.1986
    135  NE2      -24.1820  -44.0970   15.6430 N.ar  258  HIS258     -0.2212
@<TRIPOS>BOND
     1    31    32    1
     2    12    11    2
     3    32    35    1
     4    32    33    1
     5    11    10    1
     6     4     3    2
     7    35    36    1
     8     9    10    1
     9    33    34    2
    10    10    13    1
    11     3     2    1
    12    37    36   ar
    13    37    39   ar
    14   129   128    2
    15    36    38   ar
    16     1     2    1
    17   128   127    1
    18    39    41   ar
    19     2     5    1
    20    14    13    1
    21    14    15    1
    22    17    18    1
    23    38    40   ar
    24   127   130    1
    25   127   126    1
    26    41    40   ar
    27   109   108    2
    28     5     6    1
    29    16    15    1
    30   130   131    1
    31   108   107    1
    32    23    25   ar
    33    23    22   ar
    34    18    19    1
    35    18    21    1
    36    19    20    2
    37     6     7    1
    38    25    26   ar
    39    21    22    1
    40    22    24   ar
    41   110   107    1
    42   110   111    1
    43    44    43    1
    44    44    45    2
    45    42    43    1
    46    43    46    1
    47   107   106    1
    48   131   132   ar
    49   131   133   ar
    50   132   134   ar
    51   113   111   ar
    52   113   115   ar
    53    26    24   ar
    54    26    28   ar
    55   111   112   ar
    56     7     8    1
    57    24    27   ar
    58    48    50   ar
    59    48    47   ar
    60   133   135   ar
    61    46    47    1
    62   115   116   ar
    63    50    52   ar
    64    28    30   ar
    65   112   114   ar
    66   134   135   ar
    67    47    49   ar
    68    27    29   ar
    69    52    51   ar
    70   116   114   ar
    71   116   117    1
    72    49    51   ar
    73    30    29   ar
    74   118   119    1
    75    78    76   ar
    76   104   103   ar
    77   119   122    1
    78   119   120    1
    79   123   125    1
    80   123   122    1
    81    75    76    1
    82    75    72    1
    83   122   124    1
    84    76    77   ar
    85   121   120    2
    86   103   105   ar
    87   103   102    1
    88   101   100    2
    89    99   100    1
    90    99    98    1
    91    99   102    1
    92    74    73    2
    93    72    73    1
    94    72    71    1
    95    96    94   ar
    96    96    97   ar
    97    69    68    1
    98    94    93   ar
    99    68    70    1
   100    68    67    1
   101    97    95   ar
   102    71    65   am
   103    93    95   ar
   104    93    92    1
   105    66    65    2
   106    65    64    1
   107    92    89    1
   108    67    64    1
   109    59    61   ar
   110    59    58   ar
   111    64    63    1
   112    89    88    1
   113    89    90    1
   114    82    81    2
   115    87    84    1
   116    61    62   ar
   117    57    58    1
   118    57    54    1
   119    63    55   am
   120    84    83    1
   121    84    85    1
   122    79    80    1
   123    81    80    1
   124    81    83   am
   125    58    60   ar
   126    91    90    2
   127    55    56    2
   128    55    54    1
   129    62    60   ar
   130    86    85    2
   131    54    53    1
