@<TRIPOS>MOLECULE
tmp/6ch0B01.pdb
 85 82 0 0 0
SMALL
GASTEIGER

@<TRIPOS>ATOM
      1  N         31.9530   27.9080   61.1290 N.3   170  ARG170     -0.1231
      2  CA        31.2030   27.2660   62.2020 C.3   170  ARG170      0.1694
      3  C         29.8890   27.9830   62.5490 C.2   170  ARG170      0.2592
      4  O         28.9790   27.3600   63.0840 O.2   170  ARG170     -0.2718
      5  CB        32.0860   27.0160   63.4470 C.3   170  ARG170      0.0321
      6  CG        32.6060   28.2590   64.1690 C.3   170  ARG170      0.0489
      7  CD        33.5460   27.8920   65.3140 C.3   170  ARG170      0.2205
      8  NE        34.8280   27.3710   64.8300 N.pl3 170  ARG170     -0.0865
      9  CZ        35.8130   28.1150   64.3270 C.cat 170  ARG170      0.5346
     10  NH1       35.6950   29.4300   64.2350 N.pl3 170  ARG170      0.1354
     11  NH2       36.9280   27.5380   63.9050 N.pl3 170  ARG170      0.1354
     12  N         29.7730   29.2610   62.1930 N.am  171  ASP171     -0.1960
     13  CA        28.5350   30.0270   62.4000 C.3   171  ASP171      0.1840
     14  C         27.6890   30.1900   61.1220 C.2   171  ASP171      0.2622
     15  O         26.6370   30.8160   61.1470 O.2   171  ASP171     -0.2715
     16  CB        28.8650   31.4160   62.9640 C.3   171  ASP171      0.1450
     17  CG        29.2010   31.3870   64.4550 C.2   171  ASP171      0.3671
     18  OD1       28.3870   30.8600   65.2440 O.co2 171  ASP171     -0.2456
     19  OD2       30.2720   31.9080   64.8410 O.co2 171  ASP171     -0.2456
     20  N         28.1470   29.6230   60.0140 N.am  172  GLU172     -0.1963
     21  CA        27.4430   29.7100   58.7310 C.3   172  GLU172      0.1733
     22  C         26.4190   28.5640   58.6460 C.2   172  GLU172      0.2616
     23  O         26.7470   27.4260   58.9610 O.2   172  GLU172     -0.2715
     24  CB        28.4970   29.6050   57.6160 C.3   172  GLU172      0.0429
     25  CG        28.0860   29.9990   56.2050 C.3   172  GLU172      0.1163
     26  CD        29.2090   29.7590   55.1770 C.2   172  GLU172      0.3649
     27  OE1       28.9410   29.8790   53.9570 O.co2 172  GLU172     -0.2457
     28  OE2       30.3630   29.4510   55.5750 O.co2 172  GLU172     -0.2457
     29  N         25.1840   28.8580   58.2410 N.am  173  ASP173     -0.1971
     30  CA        24.1410   27.8320   58.1340 C.3   173  ASP173      0.1709
     31  C         23.2220   28.0820   56.9420 C.2   173  ASP173      0.2293
     32  O         23.1420   29.1910   56.4270 O.2   173  ASP173     -0.2864
     33  CB        23.2960   27.7820   59.4150 C.3   173  ASP173      0.1436
     34  CG        22.5410   26.4380   59.6030 C.2   173  ASP173      0.3671
     35  OD1       22.6700   25.4860   58.7850 O.co2 173  ASP173     -0.2456
     36  OD2       21.8100   26.3330   60.6120 O.co2 173  ASP173     -0.2456
     37  N         24.2040   23.0900   58.5390 N.3   185  ASN185     -0.1225
     38  CA        25.3860   22.9800   59.3710 C.3   185  ASN185      0.1785
     39  C         24.9880   22.5000   60.7590 C.2   185  ASN185      0.2597
     40  O         24.4640   23.2780   61.5560 O.2   185  ASN185     -0.2718
     41  CB        26.0660   24.3490   59.4600 C.3   185  ASN185      0.1169
     42  CG        27.3420   24.3230   60.2590 C.2   185  ASN185      0.2627
     43  OD1       27.7080   23.3050   60.8560 O.2   185  ASN185     -0.2716
     44  ND2       28.0260   25.4550   60.2930 N.am  185  ASN185     -0.0877
     45  N         25.2500   21.2280   61.0560 N.am  186  PHE186     -0.1962
     46  CA        24.9240   20.6700   62.3770 C.3   186  PHE186      0.1771
     47  C         26.0130   20.9400   63.4180 C.2   186  PHE186      0.2620
     48  O         25.7620   20.8690   64.6090 O.2   186  PHE186     -0.2715
     49  CB        24.6700   19.1620   62.2990 C.3   186  PHE186      0.0574
     50  CG        23.6180   18.7700   61.3070 C.ar  186  PHE186     -0.0200
     51  CD1       22.3840   19.4000   61.2950 C.ar  186  PHE186     -0.0042
     52  CD2       23.8520   17.7390   60.4110 C.ar  186  PHE186     -0.0042
     53  CE1       21.4140   19.0370   60.3760 C.ar  186  PHE186     -0.0003
     54  CE2       22.8830   17.3600   59.5020 C.ar  186  PHE186     -0.0003
     55  CZ        21.6660   18.0120   59.4810 C.ar  186  PHE186     -0.0000
     56  N         27.2260   21.2330   62.9740 N.am  187  GLY187     -0.1940
     57  CA        28.3200   21.5130   63.9050 C.3   187  GLY187      0.2014
     58  C         28.8650   20.2490   64.5300 C.2   187  GLY187      0.2639
     59  O         28.7480   19.1660   63.9600 O.2   187  GLY187     -0.2714
     60  N         29.4570   20.3710   65.7110 N.am  188  SER188     -0.1949
     61  CA        30.1130   19.2330   66.3260 C.3   188  SER188      0.1924
     62  C         29.1130   18.2870   66.9580 C.2   188  SER188      0.2314
     63  O         28.0430   18.6840   67.3980 O.2   188  SER188     -0.2863
     64  CB        31.1440   19.6840   67.3560 C.3   188  SER188      0.2116
     65  OG        30.5260   20.4130   68.3640 O.3   188  SER188     -0.2180
     66  N         21.8260   17.8890   70.4040 N.3   238  ARG238     -0.1245
     67  CA        21.3500   19.1480   69.8460 C.3   238  ARG238      0.1563
     68  C         21.1110   19.0090   68.3370 C.2   238  ARG238      0.2260
     69  O         20.1030   19.4690   67.8250 O.2   238  ARG238     -0.2867
     70  CB        22.3820   20.2550   70.1230 C.3   238  ARG238      0.0307
     71  CG        22.0160   21.6560   69.6320 C.3   238  ARG238      0.0489
     72  CD        23.2520   22.5200   69.3530 C.3   238  ARG238      0.2205
     73  NE        24.1480   21.9070   68.3600 N.pl3 238  ARG238     -0.0865
     74  CZ        25.4450   21.6560   68.5530 C.cat 238  ARG238      0.5346
     75  NH1       26.0270   21.9910   69.7060 N.pl3 238  ARG238      0.1354
     76  NH2       26.1710   21.0780   67.5830 N.pl3 238  ARG238      0.1354
     77  N         17.7220   19.3640   66.1520 N.3   242  LYS242     -0.1245
     78  CA        17.6740   20.3220   65.0590 C.3   242  LYS242      0.1561
     79  C         17.1000   19.6700   63.7910 C.2   242  LYS242      0.2260
     80  O         16.2600   20.2490   63.1190 O.2   242  LYS242     -0.2867
     81  CB        19.0750   20.8750   64.7850 C.3   242  LYS242      0.0271
     82  CG        19.1450   21.7950   63.5810 C.3   242  LYS242      0.0035
     83  CD        20.4340   22.5980   63.5930 C.3   242  LYS242      0.0206
     84  CE        20.4950   23.5730   62.4380 C.3   242  LYS242      0.1093
     85  NZ        21.8170   24.2610   62.4020 N.3   242  LYS242     -0.1314
@<TRIPOS>BOND
     1    27    26   ar
     2    26    28   ar
     3    26    25    1
     4    25    24    1
     5    32    31    2
     6    31    30    1
     7    24    21    1
     8    30    29    1
     9    30    33    1
    10    29    22   am
    11    37    38    1
    12    22    21    1
    13    22    23    2
    14    21    20    1
    15    35    34   ar
    16    38    41    1
    17    38    39    1
    18    33    34    1
    19    41    42    1
    20    55    54   ar
    21    55    53   ar
    22    54    52   ar
    23    34    36   ar
    24    20    14   am
    25    42    44   am
    26    42    43    2
    27    53    51   ar
    28    52    50   ar
    29    39    45   am
    30    39    40    2
    31    45    46    1
    32    14    15    2
    33    14    13    1
    34     1     2    1
    35    51    50   ar
    36    50    49    1
    37    12    13    1
    38    12     3   am
    39     2     3    1
    40     2     5    1
    41    49    46    1
    42    46    47    1
    43    13    16    1
    44    85    84    1
    45    84    83    1
    46     3     4    2
    47    16    17    1
    48    56    47   am
    49    56    57    1
    50    80    79    2
    51    47    48    2
    52     5     6    1
    53    82    83    1
    54    82    81    1
    55    79    78    1
    56    11     9    1
    57    57    58    1
    58    59    58    2
    59     6     7    1
    60    10     9    1
    61     9     8    2
    62    17    19   ar
    63    17    18   ar
    64    58    60   am
    65    81    78    1
    66     8     7    1
    67    78    77    1
    68    60    61    1
    69    61    62    1
    70    61    64    1
    71    62    63    2
    72    64    65    1
    73    76    74    1
    74    69    68    2
    75    68    67    1
    76    73    74    2
    77    73    72    1
    78    74    75    1
    79    72    71    1
    80    71    70    1
    81    67    70    1
    82    67    66    1
