@<TRIPOS>MOLECULE
tmp/6ch5A01.pdb
 105 101 0 0 0
SMALL
GASTEIGER

@<TRIPOS>ATOM
      1  N        -15.1200    4.2550  -19.9070 N.3    17  ALA17      -0.1245
      2  CA       -14.1130    3.3120  -19.3500 C.3    17  ALA17       0.1562
      3  C        -13.3730    2.5710  -20.4380 C.2    17  ALA17       0.2260
      4  O        -12.1420    2.5020  -20.4290 O.2    17  ALA17      -0.2867
      5  CB       -14.7780    2.3260  -18.4170 C.3    17  ALA17       0.0290
      6  N        -11.0750    5.0520  -22.4810 N.3    20  ILE20      -0.1231
      7  CA        -9.9160    5.4960  -21.7370 C.3    20  ILE20       0.1692
      8  C         -8.8990    4.3560  -21.5130 C.2    20  ILE20       0.2592
      9  O         -7.6920    4.5370  -21.6440 O.2    20  ILE20      -0.2718
     10  CB       -10.3510    6.2080  -20.4370 C.3    20  ILE20       0.0266
     11  CG1      -11.1300    7.4910  -20.7920 C.3    20  ILE20       0.0019
     12  CG2       -9.1480    6.4450  -19.5090 C.3    20  ILE20       0.0020
     13  CD1      -11.8830    8.0810  -19.6010 C.3    20  ILE20       0.0001
     14  N         -9.3930    3.1800  -21.1780 N.am   21  PHE21      -0.1976
     15  CA        -8.5030    2.0490  -20.9810 C.3    21  PHE21       0.1639
     16  C         -7.7960    1.7180  -22.2820 C.2    21  PHE21       0.2290
     17  O         -6.6190    1.4680  -22.2670 O.2    21  PHE21      -0.2864
     18  CB        -9.2800    0.8760  -20.4540 C.3    21  PHE21       0.0560
     19  CG        -8.4180   -0.2860  -20.0460 C.ar   21  PHE21      -0.0200
     20  CD1       -7.2600   -0.1160  -19.2890 C.ar   21  PHE21      -0.0042
     21  CD2       -8.7280   -1.5510  -20.4750 C.ar   21  PHE21      -0.0042
     22  CE1       -6.4740   -1.1780  -18.9380 C.ar   21  PHE21      -0.0003
     23  CE2       -7.9370   -2.6300  -20.1000 C.ar   21  PHE21      -0.0003
     24  CZ        -6.8270   -2.4500  -19.3300 C.ar   21  PHE21      -0.0000
     25  N         -5.0190    4.1870  -22.9220 N.3    24  PHE24      -0.1241
     26  CA        -3.9330    3.7940  -22.0740 C.3    24  PHE24       0.1605
     27  C         -3.1180    2.6370  -22.6750 C.2    24  PHE24       0.2264
     28  O         -1.8720    2.7300  -22.8160 O.2    24  PHE24      -0.2867
     29  CB        -4.4710    3.4370  -20.6720 C.3    24  PHE24       0.0534
     30  CG        -3.4790    2.7540  -19.8010 C.ar   24  PHE24      -0.0203
     31  CD1       -2.4030    3.4290  -19.2860 C.ar   24  PHE24      -0.0042
     32  CD2       -3.6530    1.4380  -19.4600 C.ar   24  PHE24      -0.0042
     33  CE1       -1.4690    2.7770  -18.4680 C.ar   24  PHE24      -0.0003
     34  CE2       -2.7760    0.7810  -18.6500 C.ar   24  PHE24      -0.0003
     35  CZ        -1.6680    1.4460  -18.1150 C.ar   24  PHE24      -0.0000
     36  N         -2.0380   -7.3140  -18.3380 N.3    35  PHE35      -0.1241
     37  CA        -3.3140   -7.6930  -18.9280 C.3    35  PHE35       0.1605
     38  C         -3.0540   -8.6780  -20.0490 C.2    35  PHE35       0.2264
     39  O         -3.4530   -8.4800  -21.2170 O.2    35  PHE35      -0.2867
     40  CB        -4.0520   -6.4590  -19.4750 C.3    35  PHE35       0.0534
     41  CG        -4.2310   -5.3920  -18.4620 C.ar   35  PHE35      -0.0203
     42  CD1       -5.2040   -5.5210  -17.4960 C.ar   35  PHE35      -0.0042
     43  CD2       -3.3980   -4.2650  -18.4540 C.ar   35  PHE35      -0.0042
     44  CE1       -5.3590   -4.5620  -16.5190 C.ar   35  PHE35      -0.0003
     45  CE2       -3.5570   -3.2850  -17.4920 C.ar   35  PHE35      -0.0003
     46  CZ        -4.5360   -3.4410  -16.5300 C.ar   35  PHE35      -0.0000
     47  N        -15.1020   -5.5830  -16.8660 N.3    55  HIS55      -0.1226
     48  CA       -13.8960   -5.2490  -16.1020 C.3    55  HIS55       0.1752
     49  C        -13.7460   -3.7250  -16.0800 C.2    55  HIS55       0.2596
     50  O        -13.6190   -3.1200  -15.0190 O.2    55  HIS55      -0.2718
     51  CB       -12.6470   -5.9580  -16.6850 C.3    55  HIS55       0.0759
     52  CG       -11.3290   -5.3790  -16.2490 C.ar   55  HIS55       0.0818
     53  ND1      -10.7930   -5.5680  -14.9920 N.ar   55  HIS55      -0.2268
     54  CD2      -10.4470   -4.5910  -16.9150 C.ar   55  HIS55       0.1154
     55  CE1       -9.6310   -4.9370  -14.9120 C.ar   55  HIS55       0.1986
     56  NE2       -9.3990   -4.3330  -16.0620 N.ar   55  HIS55      -0.2212
     57  N        -13.7940   -3.1150  -17.2590 N.am   56  THR56      -0.1953
     58  CA       -13.5050   -1.6730  -17.3690 C.3    56  THR56       0.1897
     59  C        -14.5520   -0.8600  -16.6010 C.2    56  THR56       0.2313
     60  O        -14.2300    0.1180  -15.9150 O.2    56  THR56      -0.2863
     61  CB       -13.3860   -1.1660  -18.8490 C.3    56  THR56       0.1794
     62  OG1      -14.5710   -1.4570  -19.5610 O.3    56  THR56      -0.2208
     63  CG2      -12.1200   -1.6750  -19.5800 C.3    56  THR56       0.0378
     64  N        -13.8110   -1.1680  -12.8340 N.3    59  VAL59      -0.1231
     65  CA       -12.6360   -0.3450  -12.5380 C.3    59  VAL59       0.1692
     66  C        -13.0350    1.1280  -12.4600 C.2    59  VAL59       0.2592
     67  O        -12.7140    1.8490  -11.4600 O.2    59  VAL59      -0.2718
     68  CB       -11.5260   -0.5310  -13.5920 C.3    59  VAL59       0.0266
     69  CG1      -10.4050    0.4810  -13.4160 C.3    59  VAL59       0.0020
     70  CG2      -10.9630   -1.9520  -13.4920 C.3    59  VAL59       0.0020
     71  N        -13.6890    1.6190  -13.5020 N.am   60  PHE60      -0.1976
     72  CA       -14.0330    3.0480  -13.5260 C.3    60  PHE60       0.1639
     73  C        -15.0650    3.4430  -12.5040 C.2    60  PHE60       0.2290
     74  O        -15.0360    4.5700  -12.0060 O.2    60  PHE60      -0.2864
     75  CB       -14.3970    3.5060  -14.9310 C.3    60  PHE60       0.0560
     76  CG       -13.2090    3.8920  -15.7170 C.ar   60  PHE60      -0.0200
     77  CD1      -12.3070    2.9250  -16.1030 C.ar   60  PHE60      -0.0042
     78  CD2      -12.9330    5.2180  -15.9990 C.ar   60  PHE60      -0.0042
     79  CE1      -11.1500    3.2570  -16.7760 C.ar   60  PHE60      -0.0003
     80  CE2      -11.7840    5.5580  -16.6780 C.ar   60  PHE60      -0.0003
     81  CZ       -10.8850    4.5900  -17.0610 C.ar   60  PHE60      -0.0000
     82  N        -12.9100    4.1110   -9.5960 N.3    63  MET63      -0.1245
     83  CA       -12.1860    5.3610   -9.8520 C.3    63  MET63       0.1570
     84  C        -13.0990    6.5570   -9.5880 C.2    63  MET63       0.2261
     85  O        -12.6780    7.5280   -8.9470 O.2    63  MET63      -0.2867
     86  CB       -11.5830    5.4110  -11.2420 C.3    63  MET63       0.0387
     87  CG       -10.6970    6.6090  -11.4420 C.3    63  MET63       0.0595
     88  SD       -10.2990    7.0400  -13.1150 S.3    63  MET63      -0.1393
     89  CE        -9.3860    5.6430  -13.6680 C.3    63  MET63       0.0692
     90  N          2.6100    2.7540  -12.9110 N.3    96  ASN96      -0.1240
     91  CA         1.4690    2.2030  -13.6150 C.3    96  ASN96       0.1653
     92  C          0.2720    3.1910  -13.5940 C.2    96  ASN96       0.2266
     93  O         -0.3880    3.4160  -14.6210 O.2    96  ASN96      -0.2867
     94  CB         1.0450    0.8670  -13.0030 C.3    96  ASN96       0.1155
     95  CG         2.1130   -0.2040  -13.1380 C.2    96  ASN96       0.2627
     96  OD1        2.6680   -0.6440  -12.1400 O.2    96  ASN96      -0.2716
     97  ND2        2.3900   -0.6330  -14.3550 N.am   96  ASN96      -0.0877
     98  N         -1.6230    5.6980  -16.5150 N.3   100  LEU100     -0.1245
     99  CA        -3.0620    5.6440  -16.7030 C.3   100  LEU100      0.1561
    100  C         -3.6140    7.0800  -16.7590 C.2   100  LEU100      0.2260
    101  O         -4.3830    7.4310  -17.6230 O.2   100  LEU100     -0.2867
    102  CB        -3.7240    4.8830  -15.5610 C.3   100  LEU100      0.0270
    103  CG        -5.2500    4.8940  -15.5940 C.3   100  LEU100      0.0019
    104  CD1       -5.7750    4.2920  -16.8860 C.3   100  LEU100      0.0001
    105  CD2       -5.8170    4.1820  -14.3600 C.3   100  LEU100      0.0001
@<TRIPOS>BOND
     1    25    26    1
     2    28    27    2
     3    27    26    1
     4     6     7    1
     5    16    17    2
     6    16    15    1
     7    26    29    1
     8     7     8    1
     9     7    10    1
    10     9     8    2
    11     8    14   am
    12    39    38    2
    13    14    15    1
    14    15    18    1
    15    11    10    1
    16    11    13    1
    17    29    30    1
    18    21    23   ar
    19    21    19   ar
    20    18    19    1
    21     3     4    2
    22     3     2    1
    23    10    12    1
    24    23    24   ar
    25    38    37    1
    26    19    20   ar
    27     1     2    1
    28    30    32   ar
    29    30    31   ar
    30    63    61    1
    31    62    61    1
    32    40    37    1
    33    40    41    1
    34    32    34   ar
    35     2     5    1
    36    24    22   ar
    37    20    22   ar
    38    31    33   ar
    39    37    36    1
    40    61    58    1
    41    34    35   ar
    42    33    35   ar
    43    41    43   ar
    44    41    42   ar
    45    43    45   ar
    46   101   100    2
    47    42    44   ar
    48    45    46   ar
    49    58    57    1
    50    58    59    1
    51    57    49   am
    52    81    79   ar
    53    81    80   ar
    54    54    52   ar
    55    54    56   ar
    56   104   103    1
    57    47    48    1
    58    79    77   ar
    59   100    99    1
    60    99    98    1
    61    99   102    1
    62    51    52    1
    63    51    48    1
    64    80    78   ar
    65    59    60    2
    66    46    44   ar
    67    52    53   ar
    68    77    76   ar
    69    48    49    1
    70    49    50    2
    71    56    55   ar
    72    78    76   ar
    73    76    75    1
    74   103   102    1
    75   103   105    1
    76    53    55   ar
    77    75    72    1
    78    93    92    2
    79    97    95   am
    80    89    88    1
    81    91    92    1
    82    91    94    1
    83    91    90    1
    84    68    70    1
    85    68    69    1
    86    68    65    1
    87    72    71    1
    88    72    73    1
    89    71    66   am
    90    95    94    1
    91    95    96    2
    92    88    87    1
    93    64    65    1
    94    65    66    1
    95    73    74    2
    96    66    67    2
    97    87    86    1
    98    86    83    1
    99    83    82    1
   100    83    84    1
   101    84    85    2
