@<TRIPOS>MOLECULE
tmp/6ch6B00.pdb
 210 202 0 0 0
SMALL
GASTEIGER

@<TRIPOS>ATOM
      1  N         -5.0910   37.0740   14.6240 N.3    21  PHE21      -0.1241
      2  CA        -5.9480   36.6600   15.6710 C.3    21  PHE21       0.1605
      3  C         -6.7830   37.8210   16.2270 C.2    21  PHE21       0.2264
      4  O         -7.9770   37.6270   16.5880 O.2    21  PHE21      -0.2867
      5  CB        -5.1940   35.9360   16.7860 C.3    21  PHE21       0.0534
      6  CG        -6.0050   34.8930   17.4590 C.ar   21  PHE21      -0.0203
      7  CD1       -6.1420   33.6140   16.9090 C.ar   21  PHE21      -0.0042
      8  CD2       -6.6680   35.1820   18.6290 C.ar   21  PHE21      -0.0042
      9  CE1       -6.9360   32.6490   17.5240 C.ar   21  PHE21      -0.0003
     10  CE2       -7.4900   34.2350   19.2400 C.ar   21  PHE21      -0.0003
     11  CZ        -7.6090   32.9620   18.6980 C.ar   21  PHE21      -0.0000
     12  N         -9.6700   38.3930   13.9030 N.3    24  PHE24      -0.1241
     13  CA       -10.6680   37.3850   14.2650 C.3    24  PHE24       0.1605
     14  C        -11.5160   37.8410   15.4640 C.2    24  PHE24       0.2264
     15  O        -12.7720   37.8860   15.3880 O.2    24  PHE24      -0.2867
     16  CB        -9.9600   36.0380   14.4910 C.3    24  PHE24       0.0534
     17  CG       -10.7390   35.0140   15.2690 C.ar   24  PHE24      -0.0203
     18  CD1      -11.9040   34.4480   14.7610 C.ar   24  PHE24      -0.0042
     19  CD2      -10.2700   34.5590   16.5210 C.ar   24  PHE24      -0.0042
     20  CE1      -12.5740   33.4720   15.4350 C.ar   24  PHE24      -0.0003
     21  CE2      -10.9780   33.6060   17.2390 C.ar   24  PHE24      -0.0003
     22  CZ       -12.1800   33.0860   16.7200 C.ar   24  PHE24      -0.0000
     23  N        -16.7300   35.5960   20.0880 N.3    31  GLU31      -0.1245
     24  CA       -15.6520   34.6160   20.2180 C.3    31  GLU31       0.1567
     25  C        -14.7770   34.7940   21.4640 C.2    31  GLU31       0.2260
     26  O        -14.1360   33.8520   21.8810 O.2    31  GLU31      -0.2867
     27  CB       -14.7950   34.5180   18.9480 C.3    31  GLU31       0.0388
     28  CG       -15.6110   33.9990   17.7470 C.3    31  GLU31       0.1160
     29  CD       -15.9610   32.5330   17.8630 C.2    31  GLU31       0.3649
     30  OE1      -17.1690   32.1740   17.7930 O.co2  31  GLU31      -0.2457
     31  OE2      -15.0330   31.7290   18.0500 O.co2  31  GLU31      -0.2457
     32  N        -14.8180   32.2660   24.6630 N.3    34  ASN34      -0.1225
     33  CA       -13.8330   31.2090   24.9290 C.3    34  ASN34       0.1785
     34  C        -12.5930   31.6880   25.6940 C.2    34  ASN34       0.2597
     35  O        -11.8120   30.8580   26.1690 O.2    34  ASN34      -0.2718
     36  CB       -13.3910   30.5650   23.6110 C.3    34  ASN34       0.1169
     37  CG       -14.5670   30.1060   22.7850 C.2    34  ASN34       0.2627
     38  OD1      -15.2690   29.1880   23.1870 O.2    34  ASN34      -0.2716
     39  ND2      -14.8440   30.8050   21.6670 N.am   34  ASN34      -0.0877
     40  N        -12.4300   33.0150   25.7840 N.am   35  PHE35      -0.1976
     41  CA       -11.3050   33.7080   26.4140 C.3    35  PHE35       0.1639
     42  C        -11.8590   34.8460   27.3360 C.2    35  PHE35       0.2290
     43  O        -11.7470   36.0550   27.0380 O.2    35  PHE35      -0.2864
     44  CB       -10.4090   34.3710   25.3750 C.3    35  PHE35       0.0560
     45  CG        -9.9230   33.4680   24.2620 C.ar   35  PHE35      -0.0200
     46  CD1       -8.7980   32.6530   24.4310 C.ar   35  PHE35      -0.0042
     47  CD2      -10.5360   33.5100   23.0090 C.ar   35  PHE35      -0.0042
     48  CE1       -8.3370   31.8750   23.3870 C.ar   35  PHE35      -0.0003
     49  CE2      -10.0910   32.7390   21.9860 C.ar   35  PHE35      -0.0003
     50  CZ        -8.9870   31.9120   22.1560 C.ar   35  PHE35      -0.0000
     51  N        -10.0730   38.0730   28.0260 N.3    38  TYR38      -0.1241
     52  CA        -9.8250   39.0110   26.9130 C.3    38  TYR38       0.1605
     53  C        -10.8210   40.1890   26.8460 C.2    38  TYR38       0.2264
     54  O        -10.6460   41.1440   26.0830 O.2    38  TYR38      -0.2867
     55  CB        -9.8490   38.2910   25.5940 C.3    38  TYR38       0.0534
     56  CG        -8.7250   37.3250   25.2800 C.ar   38  TYR38      -0.0201
     57  CD1       -7.7220   36.9970   26.2040 C.ar   38  TYR38      -0.0009
     58  CD2       -8.7000   36.6860   24.0430 C.ar   38  TYR38      -0.0009
     59  CE1       -6.7140   36.1010   25.8840 C.ar   38  TYR38       0.0417
     60  CE2       -7.6970   35.8000   23.7170 C.ar   38  TYR38       0.0417
     61  CZ        -6.7190   35.5050   24.6420 C.ar   38  TYR38       0.1957
     62  OH        -5.7710   34.6250   24.2470 O.3    38  TYR38      -0.2866
     63  N         -0.9610   35.1690   28.2050 N.3    51  LYS51      -0.1245
     64  CA        -1.7030   34.0020   27.6980 C.3    51  LYS51       0.1561
     65  C         -2.1380   34.2800   26.2420 C.2    51  LYS51       0.2260
     66  O         -2.1160   33.3840   25.4280 O.2    51  LYS51      -0.2867
     67  CB        -2.8690   33.5960   28.6100 C.3    51  LYS51       0.0271
     68  CG        -2.4020   33.1300   29.9880 C.3    51  LYS51       0.0035
     69  CD        -3.2270   31.9870   30.5470 C.3    51  LYS51       0.0206
     70  CE        -2.6730   31.5510   31.9150 C.3    51  LYS51       0.1093
     71  NZ        -3.7600   31.2690   32.9010 N.3    51  LYS51      -0.1314
     72  N          1.0370   33.9550   24.1590 N.3    54  ASP54      -0.1225
     73  CA         1.4150   32.5330   24.1440 C.3    54  ASP54       0.1805
     74  C          0.5210   31.6460   23.2700 C.2    54  ASP54       0.2597
     75  O          1.0400   30.8460   22.5090 O.2    54  ASP54      -0.2718
     76  CB         1.5560   31.9810   25.5590 C.3    54  ASP54       0.1424
     77  CG         2.8190   32.5170   26.2770 C.2    54  ASP54       0.3668
     78  OD1        3.6450   33.2060   25.6190 O.co2  54  ASP54      -0.2456
     79  OD2        3.0020   32.2410   27.4790 O.co2  54  ASP54      -0.2456
     80  N         -0.8010   31.7900   23.4290 N.am   55  HIS55      -0.1975
     81  CA        -1.7670   31.0390   22.6580 C.3    55  HIS55       0.1656
     82  C         -1.5780   31.3690   21.1700 C.2    55  HIS55       0.2291
     83  O         -1.4300   30.4430   20.3520 O.2    55  HIS55      -0.2864
     84  CB        -3.2350   31.2870   23.0820 C.3    55  HIS55       0.0771
     85  CG        -4.2160   30.4820   22.2750 C.ar   55  HIS55       0.0820
     86  ND1       -5.1360   31.0530   21.4360 N.ar   55  HIS55      -0.2267
     87  CD2       -4.3760   29.1490   22.1470 C.ar   55  HIS55       0.1154
     88  CE1       -5.8140   30.1150   20.8130 C.ar   55  HIS55       0.1986
     89  NE2       -5.3610   28.9450   21.2180 N.ar   55  HIS55      -0.2212
     90  N          1.3890   29.8420   19.5030 N.3    58  LYS58      -0.1231
     91  CA         1.1810   28.3870   19.3660 C.3    58  LYS58       0.1693
     92  C          0.2420   28.0910   18.2080 C.2    58  LYS58       0.2591
     93  O          0.5070   27.2140   17.3760 O.2    58  LYS58      -0.2718
     94  CB         0.5750   27.7850   20.6610 C.3    58  LYS58       0.0285
     95  CG         1.6000   27.5700   21.7770 C.3    58  LYS58       0.0035
     96  CD         1.9010   26.0730   21.9790 C.3    58  LYS58       0.0206
     97  CE         3.2460   25.8030   22.6770 C.3    58  LYS58       0.1093
     98  NZ         3.8440   24.5210   22.2020 N.3    58  LYS58      -0.1314
     99  N         -0.8460   28.8590   18.1540 N.am   59  VAL59      -0.1980
    100  CA        -1.8450   28.7550   17.0360 C.3    59  VAL59       0.1595
    101  C         -1.1170   28.8240   15.7060 C.2    59  VAL59       0.2287
    102  O         -1.3160   27.9670   14.8860 O.2    59  VAL59      -0.2864
    103  CB        -2.9030   29.8660   17.0680 C.3    59  VAL59       0.0276
    104  CG1       -3.7120   29.9530   15.7460 C.3    59  VAL59       0.0022
    105  CG2       -3.8880   29.6960   18.2470 C.3    59  VAL59       0.0022
    106  N          1.7210   26.0760   14.8650 N.3    62  LEU62      -0.1231
    107  CA         1.1040   24.7900   14.4890 C.3    62  LEU62       0.1693
    108  C          0.3730   24.9160   13.1590 C.2    62  LEU62       0.2591
    109  O          0.5020   24.0360   12.3030 O.2    62  LEU62      -0.2718
    110  CB         0.1710   24.2130   15.5700 C.3    62  LEU62       0.0284
    111  CG        -0.4250   22.8070   15.3540 C.3    62  LEU62       0.0019
    112  CD1        0.5870   21.7550   14.8440 C.3    62  LEU62       0.0001
    113  CD2       -1.1060   22.3050   16.6370 C.3    62  LEU62       0.0001
    114  N         -0.3310   26.0310   12.9750 N.am   63  MET63      -0.1979
    115  CA        -1.1310   26.2210   11.7620 C.3    63  MET63       0.1605
    116  C         -0.2240   26.1940   10.5450 C.2    63  MET63       0.2287
    117  O         -0.5950   25.6110    9.5090 O.2    63  MET63      -0.2864
    118  CB        -1.9460   27.5110   11.7480 C.3    63  MET63       0.0413
    119  CG        -2.8540   27.6630   10.5040 C.3    63  MET63       0.0598
    120  SD        -3.3920   29.3450   10.1380 S.3    63  MET63      -0.1393
    121  CE        -4.4750   29.7380   11.4940 C.3    63  MET63       0.0692
    122  N         -5.4720   17.9800   16.3200 N.3    83  LEU83      -0.1245
    123  CA        -6.1700   19.1820   16.7430 C.3    83  LEU83       0.1561
    124  C         -7.4550   18.8520   17.5500 C.2    83  LEU83       0.2260
    125  O         -7.7250   19.5020   18.5780 O.2    83  LEU83      -0.2867
    126  CB        -6.4950   20.0850   15.5400 C.3    83  LEU83       0.0270
    127  CG        -5.3200   20.8760   14.9810 C.3    83  LEU83       0.0019
    128  CD1       -5.6670   21.5150   13.6480 C.3    83  LEU83       0.0001
    129  CD2       -4.8680   21.9380   15.9500 C.3    83  LEU83       0.0001
    130  N         -6.7200   17.6990   21.1440 N.3    86  MET86      -0.1245
    131  CA        -6.2070   18.6730   22.1060 C.3    86  MET86       0.1570
    132  C         -7.2640   18.9820   23.1750 C.2    86  MET86       0.2261
    133  O         -8.3650   19.4750   22.8990 O.2    86  MET86      -0.2867
    134  CB        -5.8420   19.9830   21.4530 C.3    86  MET86       0.0387
    135  CG        -4.6190   19.9960   20.5720 C.3    86  MET86       0.0595
    136  SD        -4.4910   21.6260   19.8060 S.3    86  MET86      -0.1393
    137  CE        -4.8160   22.6370   21.2560 C.3    86  MET86       0.0692
    138  N         -7.6060   21.2200   25.8030 N.3    88  GLN88      -0.1231
    139  CA        -8.0100   22.6250   26.0380 C.3    88  GLN88       0.1698
    140  C         -8.9340   23.1900   24.9250 C.2    88  GLN88       0.2592
    141  O         -9.5410   24.2660   25.0730 O.2    88  GLN88      -0.2718
    142  CB        -6.7770   23.5050   26.2970 C.3    88  GLN88       0.0381
    143  CG        -5.5690   23.3220   25.3770 C.3    88  GLN88       0.0905
    144  CD        -4.6620   22.1210   25.7040 C.2    88  GLN88       0.2608
    145  OE1       -4.9210   20.9980   25.2560 O.2    88  GLN88      -0.2717
    146  NE2       -3.5830   22.3650   26.4530 N.am   88  GLN88      -0.0878
    147  N         -9.0210   22.4550   23.8180 N.am   89  HIS89      -0.1976
    148  CA       -10.0500   22.6280   22.7910 C.3    89  HIS89       0.1656
    149  C        -11.3520   21.8520   22.9510 C.2    89  HIS89       0.2291
    150  O        -12.1440   21.7930   21.9990 O.2    89  HIS89      -0.2864
    151  CB        -9.4600   22.2790   21.4380 C.3    89  HIS89       0.0771
    152  CG        -8.5300   23.3140   20.9310 C.ar   89  HIS89       0.0820
    153  ND1       -7.9210   23.2020   19.7020 N.ar   89  HIS89      -0.2267
    154  CD2       -8.1280   24.4950   21.4600 C.ar   89  HIS89       0.1154
    155  CE1       -7.1620   24.2590   19.5060 C.ar   89  HIS89       0.1986
    156  NE2       -7.2770   25.0610   20.5510 N.ar   89  HIS89      -0.2212
    157  N        -14.7570   23.6200   21.8330 N.3    92  LEU92      -0.1245
    158  CA       -14.7500   24.2230   20.5050 C.3    92  LEU92       0.1561
    159  C        -15.5190   23.3750   19.5160 C.2    92  LEU92       0.2260
    160  O        -15.6970   22.1410   19.6930 O.2    92  LEU92      -0.2867
    161  CB       -13.3210   24.4590   19.9810 C.3    92  LEU92       0.0270
    162  CG       -12.4350   25.3360   20.8800 C.3    92  LEU92       0.0019
    163  CD1      -11.1280   25.5680   20.1390 C.3    92  LEU92       0.0001
    164  CD2      -13.0980   26.6610   21.2210 C.3    92  LEU92       0.0001
    165  N        -15.8020   27.8120   15.2950 N.3    96  ASN96      -0.1225
    166  CA       -14.7210   28.6370   15.8230 C.3    96  ASN96       0.1785
    167  C        -13.5690   28.7410   14.7930 C.2    96  ASN96       0.2597
    168  O        -13.0520   29.8090   14.5340 O.2    96  ASN96      -0.2718
    169  CB       -14.1960   28.0910   17.1860 C.3    96  ASN96       0.1169
    170  CG       -15.2780   28.0320   18.2460 C.2    96  ASN96       0.2627
    171  OD1      -15.6810   26.9490   18.6350 O.2    96  ASN96      -0.2716
    172  ND2      -15.7880   29.1750   18.6720 N.am   96  ASN96      -0.0877
    173  N        -13.2220   27.6190   14.1800 N.am   97  PHE97      -0.1976
    174  CA       -12.1510   27.5360   13.1780 C.3    97  PHE97       0.1639
    175  C        -12.5450   28.2260   11.8530 C.2    97  PHE97       0.2290
    176  O        -11.7660   28.9430   11.2680 O.2    97  PHE97      -0.2864
    177  CB       -11.7290   26.0790   12.9570 C.3    97  PHE97       0.0560
    178  CG       -10.9990   25.4820   14.1320 C.ar   97  PHE97      -0.0200
    179  CD1      -11.6980   25.0260   15.2380 C.ar   97  PHE97      -0.0042
    180  CD2       -9.6200   25.4780   14.1700 C.ar   97  PHE97      -0.0042
    181  CE1      -11.0330   24.4970   16.3240 C.ar   97  PHE97      -0.0003
    182  CE2       -8.9410   24.9800   15.2750 C.ar   97  PHE97      -0.0003
    183  CZ        -9.6500   24.4950   16.3490 C.ar   97  PHE97      -0.0000
    184  N        -12.1570   31.9500   12.3300 N.3   100  LEU100     -0.1231
    185  CA       -10.7330   32.3160   12.2810 C.3   100  LEU100      0.1693
    186  C        -10.2710   32.4200   10.8330 C.2   100  LEU100      0.2592
    187  O         -9.6000   33.3800   10.4490 O.2   100  LEU100     -0.2718
    188  CB        -9.8830   31.2910   13.0580 C.3   100  LEU100      0.0284
    189  CG        -8.3750   31.4790   13.0160 C.3   100  LEU100      0.0019
    190  CD1       -7.9580   32.8490   13.5090 C.3   100  LEU100      0.0001
    191  CD2       -7.7210   30.3720   13.8020 C.3   100  LEU100      0.0001
    192  N        -10.6200   31.4430   10.0340 N.am  101  PHE101     -0.1976
    193  CA       -10.1710   31.4660    8.6210 C.3   101  PHE101      0.1639
    194  C        -10.8400   32.5460    7.7870 C.2   101  PHE101      0.2290
    195  O        -10.1910   33.1240    6.9040 O.2   101  PHE101     -0.2864
    196  CB       -10.2020   30.0880    7.9940 C.3   101  PHE101      0.0560
    197  CG        -9.0200   29.2660    8.4220 C.ar  101  PHE101     -0.0200
    198  CD1       -7.7940   29.4380    7.8370 C.ar  101  PHE101     -0.0042
    199  CD2       -9.1120   28.4360    9.5120 C.ar  101  PHE101     -0.0042
    200  CE1       -6.6820   28.7590    8.2990 C.ar  101  PHE101     -0.0003
    201  CE2       -8.0340   27.7040    9.9530 C.ar  101  PHE101     -0.0003
    202  CZ        -6.8080   27.8630    9.3580 C.ar  101  PHE101     -0.0000
    203  N         -9.6900   22.2890    6.2270 N.3   127  LEU127     -0.1245
    204  CA        -9.3670   21.9880    7.6060 C.3   127  LEU127      0.1561
    205  C        -10.6390   21.7730    8.4040 C.2   127  LEU127      0.2260
    206  O        -10.7000   20.7990    9.1560 O.2   127  LEU127     -0.2867
    207  CB        -8.5150   23.0620    8.2160 C.3   127  LEU127      0.0270
    208  CG        -8.0300   22.8420    9.6590 C.3   127  LEU127      0.0019
    209  CD1       -7.2730   21.5310    9.7430 C.3   127  LEU127      0.0001
    210  CD2       -7.1720   23.9890   10.1570 C.3   127  LEU127      0.0001
@<TRIPOS>BOND
     1   203   204    1
     2   195   194    2
     3   204   207    1
     4   204   205    1
     5   194   193    1
     6   198   200   ar
     7   198   197   ar
     8   196   197    1
     9   196   193    1
    10   207   208    1
    11   200   202   ar
    12   205   206    2
    13   197   199   ar
    14   193   192    1
    15   202   201   ar
    16   117   116    2
    17   199   201   ar
    18   208   209    1
    19   208   210    1
    20   192   186   am
    21   120   119    1
    22   120   121    1
    23   187   186    2
    24   119   118    1
    25   116   115    1
    26   186   185    1
    27   176   175    2
    28   118   115    1
    29   115   114    1
    30   175   174    1
    31   185   184    1
    32   185   188    1
    33   109   108    2
    34   177   174    1
    35   177   178    1
    36   114   108   am
    37   189   188    1
    38   189   190    1
    39   189   191    1
    40   108   107    1
    41   174   173    1
    42   128   127    1
    43    12    13    1
    44   178   180   ar
    45   178   179   ar
    46   180   182   ar
    47   173   167   am
    48    13    16    1
    49    13    14    1
    50   107   106    1
    51   107   110    1
    52    16    17    1
    53   168   167    2
    54     1     2    1
    55    18    17   ar
    56    18    20   ar
    57   167   166    1
    58   112   111    1
    59   102   101    2
    60   127   126    1
    61   127   129    1
    62   179   181   ar
    63    17    19   ar
    64   182   183   ar
    65   165   166    1
    66   111   110    1
    67   111   113    1
    68    15    14    2
    69    20    22   ar
    70   126   123    1
    71     2     3    1
    72     2     5    1
    73   101   100    1
    74   104   103    1
    75   166   169    1
    76     3     4    2
    77   122   123    1
    78   181   183   ar
    79    19    21   ar
    80    22    21   ar
    81   123   124    1
    82     5     6    1
    83     7     6   ar
    84     7     9   ar
    85   100   103    1
    86   100    99    1
    87   103   105    1
    88   169   170    1
    89    93    92    2
    90     6     8   ar
    91     9    11   ar
    92   124   125    2
    93    28    29    1
    94    28    27    1
    95    30    29   ar
    96    29    31   ar
    97    99    92   am
    98    92    91    1
    99   170   171    2
   100   170   172   am
   101     8    10   ar
   102    11    10   ar
   103    27    24    1
   104    91    90    1
   105    91    94    1
   106   155   153   ar
   107   155   156   ar
   108   159   160    2
   109   159   158    1
   110   153   152   ar
   111   136   135    1
   112   136   137    1
   113   161   158    1
   114   161   162    1
   115    23    24    1
   116   163   162    1
   117    24    25    1
   118    83    82    2
   119   158   157    1
   120   156   154   ar
   121   135   134    1
   122    94    95    1
   123    88    89   ar
   124    88    86   ar
   125   162   164    1
   126   152   151    1
   127   152   154   ar
   128   130   131    1
   129    82    81    1
   130    89    87   ar
   131    86    85   ar
   132   151   148    1
   133   134   131    1
   134    25    26    2
   135    39    37   am
   136    95    96    1
   137    96    97    1
   138    49    50   ar
   139    49    47   ar
   140   150   149    2
   141   131   132    1
   142    87    85   ar
   143    50    48   ar
   144    98    97    1
   145    85    84    1
   146    75    74    2
   147    81    84    1
   148    81    80    1
   149    37    38    2
   150    37    36    1
   151   148   149    1
   152   148   147    1
   153   133   132    2
   154    47    45   ar
   155    74    80   am
   156    74    73    1
   157    48    46   ar
   158    36    33    1
   159    60    58   ar
   160    60    61   ar
   161   147   140   am
   162    58    56   ar
   163    73    72    1
   164    73    76    1
   165    62    61    1
   166    45    46   ar
   167    45    44    1
   168    61    59   ar
   169    32    33    1
   170   140   141    2
   171   140   139    1
   172    33    34    1
   173   145   144    2
   174    56    55    1
   175    56    57   ar
   176    44    41    1
   177   143   144    1
   178   143   142    1
   179    66    65    2
   180    76    77    1
   181    55    52    1
   182    78    77   ar
   183    34    40   am
   184    34    35    2
   185   144   146   am
   186    40    41    1
   187   138   139    1
   188    59    57   ar
   189   139   142    1
   190    54    53    2
   191    65    64    1
   192    77    79   ar
   193    41    42    1
   194    53    52    1
   195    52    51    1
   196    43    42    2
   197    64    63    1
   198    64    67    1
   199    67    68    1
   200    68    69    1
   201    69    70    1
   202    70    71    1
