@<TRIPOS>MOLECULE
tmp/6ch6A01.pdb
 105 101 0 0 0
SMALL
GASTEIGER

@<TRIPOS>ATOM
      1  N        -15.2140    4.2140  -19.9850 N.3    17  ALA17      -0.1245
      2  CA       -14.2340    3.3000  -19.3910 C.3    17  ALA17       0.1562
      3  C        -13.4890    2.5500  -20.4770 C.2    17  ALA17       0.2260
      4  O        -12.2560    2.4440  -20.4510 O.2    17  ALA17      -0.2867
      5  CB       -14.9120    2.3380  -18.4570 C.3    17  ALA17       0.0290
      6  N        -11.1700    5.0300  -22.5660 N.3    20  ILE20      -0.1231
      7  CA       -10.0030    5.4960  -21.8070 C.3    20  ILE20       0.1692
      8  C         -9.0250    4.3450  -21.5740 C.2    20  ILE20       0.2592
      9  O         -7.8110    4.5420  -21.6940 O.2    20  ILE20      -0.2718
     10  CB       -10.4530    6.1760  -20.4710 C.3    20  ILE20       0.0266
     11  CG1      -11.2290    7.4750  -20.7670 C.3    20  ILE20       0.0019
     12  CG2       -9.2240    6.3680  -19.5560 C.3    20  ILE20       0.0020
     13  CD1      -11.9650    8.0870  -19.5820 C.3    20  ILE20       0.0001
     14  N         -9.5050    3.1550  -21.2810 N.am   21  PHE21      -0.1976
     15  CA        -8.6080    2.0040  -21.0800 C.3    21  PHE21       0.1639
     16  C         -7.8620    1.6870  -22.3740 C.2    21  PHE21       0.2290
     17  O         -6.6860    1.4660  -22.3740 O.2    21  PHE21      -0.2864
     18  CB        -9.3640    0.8020  -20.6030 C.3    21  PHE21       0.0560
     19  CG        -8.4790   -0.3830  -20.2360 C.ar   21  PHE21      -0.0200
     20  CD1       -7.2970   -0.2310  -19.5380 C.ar   21  PHE21      -0.0042
     21  CD2       -8.8640   -1.6700  -20.5470 C.ar   21  PHE21      -0.0042
     22  CE1       -6.5430   -1.3380  -19.1810 C.ar   21  PHE21      -0.0003
     23  CE2       -8.1190   -2.7690  -20.1730 C.ar   21  PHE21      -0.0003
     24  CZ        -6.9440   -2.5820  -19.4740 C.ar   21  PHE21      -0.0000
     25  N         -5.1320    4.2240  -22.9780 N.3    24  PHE24      -0.1241
     26  CA        -4.0160    3.7860  -22.1530 C.3    24  PHE24       0.1605
     27  C         -3.1770    2.6510  -22.7610 C.2    24  PHE24       0.2264
     28  O         -1.9460    2.7790  -22.8930 O.2    24  PHE24      -0.2867
     29  CB        -4.5540    3.4170  -20.7340 C.3    24  PHE24       0.0534
     30  CG        -3.5600    2.7560  -19.8470 C.ar   24  PHE24      -0.0203
     31  CD1       -2.4470    3.4320  -19.3880 C.ar   24  PHE24      -0.0042
     32  CD2       -3.7170    1.4510  -19.5020 C.ar   24  PHE24      -0.0042
     33  CE1       -1.5070    2.8090  -18.5330 C.ar   24  PHE24      -0.0003
     34  CE2       -2.7970    0.7870  -18.7020 C.ar   24  PHE24      -0.0003
     35  CZ        -1.6930    1.4610  -18.2100 C.ar   24  PHE24      -0.0000
     36  N         -2.0690   -7.3400  -18.5140 N.3    35  PHE35      -0.1241
     37  CA        -3.3880   -7.6750  -19.0050 C.3    35  PHE35       0.1605
     38  C         -3.2010   -8.7090  -20.0750 C.2    35  PHE35       0.2264
     39  O         -3.6320   -8.5310  -21.2220 O.2    35  PHE35      -0.2867
     40  CB        -4.1060   -6.4360  -19.5450 C.3    35  PHE35       0.0534
     41  CG        -4.3120   -5.3810  -18.5080 C.ar   35  PHE35      -0.0203
     42  CD1       -5.3350   -5.5080  -17.5740 C.ar   35  PHE35      -0.0042
     43  CD2       -3.4730   -4.2740  -18.4510 C.ar   35  PHE35      -0.0042
     44  CE1       -5.5070   -4.5290  -16.6090 C.ar   35  PHE35      -0.0003
     45  CE2       -3.6520   -3.2970  -17.4960 C.ar   35  PHE35      -0.0003
     46  CZ        -4.6700   -3.4280  -16.5930 C.ar   35  PHE35      -0.0000
     47  N        -15.1970   -5.6020  -16.9710 N.3    55  HIS55      -0.1226
     48  CA       -13.9770   -5.2520  -16.2210 C.3    55  HIS55       0.1752
     49  C        -13.7880   -3.7370  -16.1880 C.2    55  HIS55       0.2596
     50  O        -13.6080   -3.1180  -15.1540 O.2    55  HIS55      -0.2718
     51  CB       -12.7660   -5.8750  -16.9040 C.3    55  HIS55       0.0759
     52  CG       -11.4590   -5.3490  -16.4170 C.ar   55  HIS55       0.0818
     53  ND1      -10.9910   -5.5910  -15.1330 N.ar   55  HIS55      -0.2268
     54  CD2      -10.5270   -4.5790  -17.0210 C.ar   55  HIS55       0.1154
     55  CE1       -9.8200   -4.9990  -14.9840 C.ar   55  HIS55       0.1986
     56  NE2       -9.5250   -4.3620  -16.1050 N.ar   55  HIS55      -0.2212
     57  N        -13.8350   -3.1380  -17.3880 N.am   56  THR56      -0.1953
     58  CA       -13.5310   -1.7020  -17.5170 C.3    56  THR56       0.1897
     59  C        -14.5550   -0.8570  -16.7550 C.2    56  THR56       0.2313
     60  O        -14.1670    0.1360  -16.0890 O.2    56  THR56      -0.2863
     61  CB       -13.4080   -1.2250  -18.9880 C.3    56  THR56       0.1794
     62  OG1      -14.6480   -1.5140  -19.6820 O.3    56  THR56      -0.2208
     63  CG2      -12.2060   -2.0010  -19.6810 C.3    56  THR56       0.0378
     64  N        -13.7710   -1.1190  -12.9140 N.3    59  VAL59      -0.1231
     65  CA       -12.6160   -0.3240  -12.6220 C.3    59  VAL59       0.1692
     66  C        -12.9850    1.1570  -12.5690 C.2    59  VAL59       0.2592
     67  O        -12.6750    1.8880  -11.5760 O.2    59  VAL59      -0.2718
     68  CB       -11.4870   -0.5320  -13.6890 C.3    59  VAL59       0.0266
     69  CG1      -10.3730    0.5150  -13.5310 C.3    59  VAL59       0.0020
     70  CG2      -10.9520   -1.9620  -13.6490 C.3    59  VAL59       0.0020
     71  N        -13.6700    1.6190  -13.6130 N.am   60  PHE60      -0.1976
     72  CA       -14.0370    3.0200  -13.7140 C.3    60  PHE60       0.1639
     73  C        -15.0240    3.4580  -12.6130 C.2    60  PHE60       0.2290
     74  O        -14.9510    4.5900  -12.1050 O.2    60  PHE60      -0.2864
     75  CB       -14.5320    3.3210  -15.1440 C.3    60  PHE60       0.0560
     76  CG       -14.2960    4.7440  -15.6140 C.ar   60  PHE60      -0.0200
     77  CD1      -13.0830    5.4070  -15.3990 C.ar   60  PHE60      -0.0042
     78  CD2      -15.2630    5.4050  -16.3570 C.ar   60  PHE60      -0.0042
     79  CE1      -12.8910    6.6950  -15.8640 C.ar   60  PHE60      -0.0003
     80  CE2      -15.0590    6.6970  -16.8590 C.ar   60  PHE60      -0.0003
     81  CZ       -13.8790    7.3630  -16.5800 C.ar   60  PHE60      -0.0000
     82  N        -12.8880    4.0870   -9.6920 N.3    63  MET63      -0.1245
     83  CA       -12.2060    5.3110   -9.9610 C.3    63  MET63       0.1570
     84  C        -13.0670    6.5650   -9.7360 C.2    63  MET63       0.2261
     85  O        -12.5920    7.5450   -9.1650 O.2    63  MET63      -0.2867
     86  CB       -11.6250    5.3370  -11.4130 C.3    63  MET63       0.0387
     87  CG       -10.6660    6.4980  -11.5910 C.3    63  MET63       0.0595
     88  SD       -10.1250    6.8360  -13.2670 S.3    63  MET63      -0.1393
     89  CE        -9.5100    5.2720  -13.7060 C.3    63  MET63       0.0692
     90  N          2.7400    2.8390  -13.0160 N.3    96  ASN96      -0.1240
     91  CA         1.5890    2.2710  -13.7420 C.3    96  ASN96       0.1653
     92  C          0.3850    3.2330  -13.7070 C.2    96  ASN96       0.2266
     93  O         -0.3120    3.4700  -14.7090 O.2    96  ASN96      -0.2867
     94  CB         1.1610    0.9230  -13.1330 C.3    96  ASN96       0.1155
     95  CG         2.1910   -0.1710  -13.2930 C.2    96  ASN96       0.2627
     96  OD1        2.7590   -0.6270  -12.3030 O.2    96  ASN96      -0.2716
     97  ND2        2.4300   -0.6210  -14.5390 N.am   96  ASN96      -0.0877
     98  N         -1.5420    5.6840  -16.6240 N.3   100  LEU100     -0.1245
     99  CA        -2.9950    5.6830  -16.7700 C.3   100  LEU100      0.1561
    100  C         -3.5230    7.1170  -16.8230 C.2   100  LEU100      0.2260
    101  O         -4.3450    7.4860  -17.6720 O.2   100  LEU100     -0.2867
    102  CB        -3.6540    4.9020  -15.6400 C.3   100  LEU100      0.0270
    103  CG        -5.1780    4.9830  -15.5970 C.3   100  LEU100      0.0019
    104  CD1       -5.7920    4.4140  -16.8530 C.3   100  LEU100      0.0001
    105  CD2       -5.7700    4.2340  -14.4050 C.3   100  LEU100      0.0001
@<TRIPOS>BOND
     1    25    26    1
     2    28    27    2
     3    27    26    1
     4     6     7    1
     5    17    16    2
     6    16    15    1
     7    26    29    1
     8     7     8    1
     9     7    10    1
    10     9     8    2
    11     8    14   am
    12    14    15    1
    13    39    38    2
    14    15    18    1
    15    11    10    1
    16    11    13    1
    17    29    30    1
    18    18    19    1
    19    21    19   ar
    20    21    23   ar
    21     3     4    2
    22     3     2    1
    23    10    12    1
    24    19    20   ar
    25    23    24   ar
    26    38    37    1
    27     1     2    1
    28    30    32   ar
    29    30    31   ar
    30    62    61    1
    31    63    61    1
    32    40    37    1
    33    40    41    1
    34    20    22   ar
    35    32    34   ar
    36    24    22   ar
    37     2     5    1
    38    31    33   ar
    39    37    36    1
    40    61    58    1
    41    34    35   ar
    42    33    35   ar
    43    41    43   ar
    44    41    42   ar
    45    43    45   ar
    46   101   100    2
    47    42    44   ar
    48    58    57    1
    49    58    59    1
    50    45    46   ar
    51    57    49   am
    52    54    52   ar
    53    54    56   ar
    54    47    48    1
    55    51    52    1
    56    51    48    1
    57    80    81   ar
    58    80    78   ar
    59   104   103    1
    60   100    99    1
    61    99    98    1
    62    99   102    1
    63    59    60    2
    64    44    46   ar
    65    81    79   ar
    66    52    53   ar
    67    78    76   ar
    68    48    49    1
    69    49    50    2
    70    56    55   ar
    71    79    77   ar
    72   102   103    1
    73    76    77   ar
    74    76    75    1
    75   103   105    1
    76    75    72    1
    77    53    55   ar
    78    93    92    2
    79    97    95   am
    80    91    92    1
    81    91    94    1
    82    91    90    1
    83    72    71    1
    84    72    73    1
    85    89    88    1
    86    68    70    1
    87    68    69    1
    88    68    65    1
    89    71    66   am
    90    95    94    1
    91    95    96    2
    92    88    87    1
    93    64    65    1
    94    65    66    1
    95    73    74    2
    96    66    67    2
    97    87    86    1
    98    86    83    1
    99    83    84    1
   100    83    82    1
   101    84    85    2
