@<TRIPOS>MOLECULE
tmp/6chaF00.pdb
 95 93 0 0 0
SMALL
GASTEIGER

@<TRIPOS>ATOM
      1  N         21.1940   31.1210   36.2820 N.3    41  SER41      -0.1202
      2  CA        20.8300   29.6790   36.1550 C.3    41  SER41       0.2020
      3  C         22.0790   28.9710   36.5980 C.2    41  SER41       0.2619
      4  O         23.0890   29.6740   36.3730 O.2    41  SER41      -0.2717
      5  CB        20.2520   29.3290   34.8820 C.3    41  SER41       0.2103
      6  OG        20.8800   28.0510   34.4360 O.3    41  SER41      -0.2182
      7  N         22.1570   27.8020   37.1780 N.am   42  SER42      -0.1937
      8  CA        23.4540   27.1290   37.4580 C.3    42  SER42       0.2055
      9  C         23.7800   26.6350   35.9500 C.2    42  SER42       0.2643
     10  O         22.8550   26.7810   35.1980 O.2    42  SER42      -0.2714
     11  CB        23.2110   25.9900   38.4020 C.3    42  SER42       0.2130
     12  OG        22.9750   26.5120   39.8090 O.3    42  SER42      -0.2179
     13  N         25.0130   26.1990   35.7130 N.am   43  CYS43      -0.1953
     14  CA        25.3280   25.7120   34.3880 C.3    43  CYS43       0.1843
     15  C         26.2730   24.5420   34.4410 C.2    43  CYS43       0.2625
     16  O         26.7940   24.2900   35.4620 O.2    43  CYS43      -0.2714
     17  CB        25.8730   26.8710   33.5040 C.3    43  CYS43       0.0997
     18  SG        25.7240   26.6910   31.7500 S.3    43  CYS43      -0.0798
     19  N         26.4830   23.9410   33.1490 N.am   44  MET44      -0.1963
     20  CA        27.4790   22.7670   33.2820 C.3    44  MET44       0.1736
     21  C         28.6570   23.1120   34.2300 C.2    44  MET44       0.2617
     22  O         29.1950   24.2080   34.0830 O.2    44  MET44      -0.2715
     23  CB        27.8960   22.1840   31.9940 C.3    44  MET44       0.0427
     24  CG        26.7370   21.5230   31.2730 C.3    44  MET44       0.0599
     25  SD        25.7720   22.8810   30.4290 S.3    44  MET44      -0.1393
     26  CE        24.0890   22.2000   30.7370 C.3    44  MET44       0.0692
     27  N         29.1100   22.2120   35.0720 N.am   45  GLY45      -0.1955
     28  CA        30.2370   22.4630   35.9520 C.3    45  GLY45       0.1869
     29  C         29.8630   22.8010   37.4210 C.2    45  GLY45       0.2309
     30  O         30.6260   22.6580   38.3600 O.2    45  GLY45      -0.2863
     31  N         27.1690   21.3880   39.0150 N.3    47  SER47      -0.1273
     32  CA        26.7310   20.1100   39.5600 C.3    47  SER47       0.1575
     33  C         27.3280   19.6910   40.8810 C.3    47  SER47       0.2036
     34  O         28.6180   19.8960   40.9770 O.3    47  SER47      -0.2187
     35  CB        27.1680   18.9920   38.5750 C.3    47  SER47       0.2036
     36  OG        26.1280   18.7190   37.6840 O.3    47  SER47      -0.2187
     37  N         22.9510   20.9900   43.3940 N.3    65  VAL65      -0.1231
     38  CA        22.7440   21.2250   41.9520 C.3    65  VAL65       0.1692
     39  C         22.6670   19.9320   41.1940 C.2    65  VAL65       0.2593
     40  O         23.5490   19.0390   41.2420 O.2    65  VAL65      -0.2718
     41  CB        23.9440   22.0650   41.3770 C.3    65  VAL65       0.0266
     42  CG1       23.6270   22.2680   39.9160 C.3    65  VAL65       0.0020
     43  CG2       24.2200   23.3320   42.1510 C.3    65  VAL65       0.0020
     44  N         21.5500   19.7530   40.5450 N.am   66  SER66      -0.1938
     45  CA        21.3300   18.4470   39.8610 C.3    66  SER66       0.2055
     46  C         21.1230   18.5390   38.3530 C.2    66  SER66       0.2643
     47  O         21.8090   17.7490   37.6190 O.2    66  SER66      -0.2714
     48  CB        20.2320   17.8280   40.8670 C.3    66  SER66       0.2130
     49  OG        19.7570   16.4940   40.4340 O.3    66  SER66      -0.2179
     50  N         20.2240   19.3150   37.8130 N.am   67  TRP67      -0.1959
     51  CA        20.0760   19.2930   36.2710 C.3    67  TRP67       0.1771
     52  C         19.2500   20.5630   36.0990 C.2    67  TRP67       0.2620
     53  O         18.8470   21.1120   37.3090 O.2    67  TRP67      -0.2715
     54  CB        19.5260   17.9890   35.7700 C.3    67  TRP67       0.0590
     55  CG        18.2020   17.5260   36.4450 C.ar   67  TRP67       0.0006
     56  CD1       17.9970   16.6990   37.5010 C.ar   67  TRP67       0.0946
     57  CD2       16.8960   17.8430   35.8790 C.ar   67  TRP67       0.0152
     58  NE1       16.6480   16.5510   37.7220 N.ar   67  TRP67      -0.2442
     59  CE2       15.9310   17.2580   36.8390 C.ar   67  TRP67       0.0810
     60  CE3       16.4180   18.6620   34.9780 C.ar   67  TRP67       0.0012
     61  CZ2       14.5410   17.3630   36.6420 C.ar   67  TRP67       0.0191
     62  CZ3       15.0840   18.7750   34.7690 C.ar   67  TRP67       0.0001
     63  CH2       14.1160   18.1430   35.4670 C.ar   67  TRP67       0.0015
     64  N         18.9700   21.0080   34.9620 N.am   68  GLY68      -0.1940
     65  CA        18.2840   22.2040   34.5730 C.3    68  GLY68       0.2014
     66  C         18.2540   22.2490   32.9460 C.2    68  GLY68       0.2636
     67  O         18.2870   21.2720   32.2380 O.2    68  GLY68      -0.2714
     68  N         18.0370   23.5220   32.5730 N.am   69  SER69      -0.2003
     69  CA        17.9050   23.9750   31.2200 C.3    69  SER69       0.1610
     70  C         19.0190   23.4050   30.2670 C.3    69  SER69       0.2063
     71  O         20.1800   23.5980   30.7250 O.3    69  SER69      -0.2184
     72  CB        17.9780   25.4990   31.0500 C.3    69  SER69       0.2063
     73  OG        17.9870   25.6460   29.4640 O.3    69  SER69      -0.2184
     74  N         21.1560   26.3400   29.8080 N.3    72  CYS72      -0.1292
     75  CA        21.4710   27.2250   31.0340 C.3    72  CYS72       0.1363
     76  C         20.6870   28.4990   31.0240 C.3    72  CYS72       0.2019
     77  O         21.1290   29.6650   31.3960 O.3    72  CYS72      -0.2188
     78  CB        22.9230   27.6020   31.3060 C.3    72  CYS72       0.0903
     79  SG        23.9120   26.0450   31.3550 S.3    72  CYS72      -0.0805
     80  N         16.3800   25.9220   37.7110 N.3    78  GLY78      -0.1285
     81  CA        17.3390   24.7870   37.8330 C.3    78  GLY78       0.1447
     82  C         16.6300   23.7730   38.7340 C.3    78  GLY78       0.2025
     83  O         15.5470   24.1660   39.3110 O.3    78  GLY78      -0.2188
     84  N         17.2640   21.0130   41.7520 N.3    80  TYR80      -0.1298
     85  CA        18.3380   20.6580   42.8160 C.3    80  TYR80       0.1290
     86  C         17.7840   19.4780   43.5180 C.3    80  TYR80       0.2013
     87  O         16.5680   19.4150   43.3930 O.3    80  TYR80      -0.2188
     88  CB        18.3220   21.9300   43.6480 C.3    80  TYR80       0.0480
     89  CG        18.8680   23.1940   43.0760 C.ar   80  TYR80      -0.0204
     90  CD1       18.0090   23.9550   42.2170 C.ar   80  TYR80      -0.0009
     91  CD2       20.1930   23.5110   43.2180 C.ar   80  TYR80      -0.0009
     92  CE1       18.3970   25.1140   41.5270 C.ar   80  TYR80       0.0417
     93  CE2       20.6650   24.6320   42.4880 C.ar   80  TYR80       0.0417
     94  CZ        19.8090   25.3270   41.6060 C.ar   80  TYR80       0.1957
     95  OH        20.3530   26.4590   41.0480 O.3    80  TYR80      -0.2866
@<TRIPOS>BOND
     1    73    72    1
     2    74    75    1
     3    70    71    1
     4    70    69    1
     5    25    26    1
     6    25    24    1
     7    76    75    1
     8    76    77    1
     9    75    78    1
    10    72    69    1
    11    69    68    1
    12    24    23    1
    13    78    79    1
    14    79    18    1
    15    18    17    1
    16    23    20    1
    17    67    66    2
    18    68    66   am
    19    66    65    1
    20    19    20    1
    21    19    15   am
    22    20    21    1
    23    17    14    1
    24    22    21    2
    25    21    27   am
    26    14    15    1
    27    14    13    1
    28     6     5    1
    29    15    16    2
    30    65    64    1
    31    62    60   ar
    32    62    63   ar
    33     5     2    1
    34    64    52   am
    35    60    57   ar
    36    27    28    1
    37    10     9    2
    38    63    61   ar
    39    13     9   am
    40    54    51    1
    41    54    55    1
    42    57    55   ar
    43    57    59   ar
    44     9     8    1
    45    28    29    1
    46    52    51    1
    47    52    53    2
    48     2     1    1
    49     2     3    1
    50    51    50    1
    51     4     3    2
    52    55    56   ar
    53     3     7   am
    54    61    59   ar
    55    59    58   ar
    56     7     8    1
    57    29    30    2
    58     8    11    1
    59    56    58   ar
    60    47    46    2
    61    36    35    1
    62    80    81    1
    63    50    46   am
    64    81    82    1
    65    46    45    1
    66    11    12    1
    67    35    32    1
    68    82    83    1
    69    31    32    1
    70    32    33    1
    71    45    44    1
    72    45    48    1
    73    42    41    1
    74    49    48    1
    75    44    39   am
    76    33    34    1
    77    95    94    1
    78    39    40    2
    79    39    38    1
    80    41    38    1
    81    41    43    1
    82    92    94   ar
    83    92    90   ar
    84    94    93   ar
    85    84    85    1
    86    38    37    1
    87    90    89   ar
    88    93    91   ar
    89    85    86    1
    90    85    88    1
    91    89    91   ar
    92    89    88    1
    93    87    86    1
