@<TRIPOS>MOLECULE
tmp/6chgC01.pdb
 185 187 0 0 0
SMALL
GASTEIGER

@<TRIPOS>ATOM
      1  N        -70.2740   28.7590  147.0660 N.3    20  ILE20      -0.1231
      2  CA       -71.0750   27.7560  147.7580 C.3    20  ILE20       0.1692
      3  C        -72.5500   28.1330  147.7130 C.2    20  ILE20       0.2592
      4  O        -73.4020   27.3400  147.2950 O.2    20  ILE20      -0.2718
      5  CB       -70.5710   27.5910  149.2040 C.3    20  ILE20       0.0266
      6  CG1      -69.2010   26.9070  149.1940 C.3    20  ILE20       0.0019
      7  CG2      -71.5800   26.8190  150.0520 C.3    20  ILE20       0.0020
      8  CD1      -68.6030   26.6620  150.5630 C.3    20  ILE20       0.0001
      9  N        -72.8720   29.3480  148.1470 N.am   21  HIS21      -0.1962
     10  CA       -74.2450   29.8250  148.1900 C.3    21  HIS21       0.1787
     11  C        -74.2180   31.3320  147.9730 C.2    21  HIS21       0.2620
     12  O        -73.1530   31.9510  147.9270 O.2    21  HIS21      -0.2715
     13  CB       -74.9180   29.4380  149.5170 C.3    21  HIS21       0.0785
     14  CG       -76.4090   29.5920  149.5180 C.ar   21  HIS21       0.0821
     15  ND1      -77.0370   30.7550  149.9110 N.ar   21  HIS21      -0.2267
     16  CD2      -77.3970   28.7240  149.1950 C.ar   21  HIS21       0.1154
     17  CE1      -78.3460   30.6010  149.8200 C.ar   21  HIS21       0.1986
     18  NE2      -78.5910   29.3770  149.3880 N.ar   21  HIS21      -0.2212
     19  N        -75.4060   31.9150  147.8200 N.am   22  ASN22      -0.1958
     20  CA       -75.5540   33.3300  147.4940 C.3    22  ASN22       0.1819
     21  C        -74.5530   34.2080  148.2410 C.2    22  ASN22       0.2621
     22  O        -73.6730   34.8120  147.6200 O.2    22  ASN22      -0.2715
     23  CB       -76.9840   33.7950  147.7920 C.3    22  ASN22       0.1195
     24  CG       -78.0380   32.9030  147.1560 C.2    22  ASN22       0.2630
     25  OD1      -79.0780   32.6340  147.7550 O.2    22  ASN22      -0.2716
     26  ND2      -77.7730   32.4380  145.9390 N.am   22  ASN22      -0.0877
     27  N        -74.6730   34.2900  149.5630 N.am   23  TRP23      -0.1974
     28  CA       -73.7880   35.1100  150.3780 C.3    23  TRP23       0.1640
     29  C        -72.9850   34.2280  151.3230 C.2    23  TRP23       0.2290
     30  O        -73.4890   33.2190  151.8270 O.2    23  TRP23      -0.2864
     31  CB       -74.5700   36.1500  151.1880 C.3    23  TRP23       0.0576
     32  CG       -75.2490   37.1980  150.3570 C.ar   23  TRP23       0.0006
     33  CD1      -76.5910   37.3370  150.1520 C.ar   23  TRP23       0.0946
     34  CD2      -74.6210   38.2590  149.6250 C.ar   23  TRP23       0.0152
     35  NE1      -76.8370   38.4160  149.3390 N.ar   23  TRP23      -0.2442
     36  CE2      -75.6450   38.9990  149.0000 C.ar   23  TRP23       0.0810
     37  CE3      -73.2930   38.6540  149.4360 C.ar   23  TRP23       0.0012
     38  CZ2      -75.3830   40.1090  148.2020 C.ar   23  TRP23       0.0191
     39  CZ3      -73.0350   39.7590  148.6410 C.ar   23  TRP23       0.0001
     40  CH2      -74.0760   40.4730  148.0350 C.ar   23  TRP23       0.0015
     41  N        -71.9800   34.5600  167.1170 N.3    40  TYR40      -0.1241
     42  CA       -73.2200   34.4150  166.3610 C.3    40  TYR40       0.1605
     43  C        -74.3360   35.0570  167.1700 C.2    40  TYR40       0.2264
     44  O        -74.7690   34.5100  168.1890 O.2    40  TYR40      -0.2867
     45  CB       -73.5210   32.9480  166.0690 C.3    40  TYR40       0.0534
     46  CG       -74.6450   32.7530  165.0740 C.ar   40  TYR40      -0.0201
     47  CD1      -75.9710   32.9060  165.4550 C.ar   40  TYR40      -0.0009
     48  CD2      -74.3800   32.4190  163.7520 C.ar   40  TYR40      -0.0009
     49  CE1      -77.0010   32.7320  164.5500 C.ar   40  TYR40       0.0417
     50  CE2      -75.4040   32.2420  162.8410 C.ar   40  TYR40       0.0417
     51  CZ       -76.7110   32.3990  163.2450 C.ar   40  TYR40       0.1957
     52  OH       -77.7350   32.2240  162.3420 O.3    40  TYR40      -0.2866
     53  N        -86.6730   29.4810  152.5710 N.3    63  GLY63      -0.1210
     54  CA       -85.7280   28.4710  152.1440 C.3    63  GLY63       0.1956
     55  C        -84.3810   28.5190  152.8270 C.2    63  GLY63       0.2613
     56  O        -83.4870   27.7540  152.4460 O.2    63  GLY63      -0.2717
     57  N        -84.2020   29.3890  153.8170 N.am   64  SER64      -0.1938
     58  CA       -82.9470   29.5120  154.5430 C.3    64  SER64       0.2055
     59  C        -83.2470   29.5850  156.0300 C.2    64  SER64       0.2644
     60  O        -84.1270   30.3430  156.4510 O.2    64  SER64      -0.2714
     61  CB       -82.1720   30.7530  154.1010 C.3    64  SER64       0.2130
     62  OG       -81.8680   30.6930  152.7210 O.3    64  SER64      -0.2179
     63  N        -82.5210   28.8000  156.8200 N.am   65  SER65      -0.1935
     64  CA       -82.6730   28.7920  158.2690 C.3    65  SER65       0.2055
     65  C        -81.4390   29.4370  158.8800 C.2    65  SER65       0.2643
     66  O        -80.3320   28.8940  158.7850 O.2    65  SER65      -0.2714
     67  CB       -82.8650   27.3740  158.8000 C.3    65  SER65       0.2130
     68  OG       -81.6250   26.7950  159.1700 O.3    65  SER65      -0.2179
     69  N        -81.6300   30.5990  159.4960 N.am   66  TYR66      -0.1973
     70  CA       -80.5750   31.2800  160.2400 C.3    66  TYR66       0.1639
     71  C        -80.7360   31.0590  161.7370 C.2    66  TYR66       0.2290
     72  O        -80.4750   31.9530  162.5490 O.2    66  TYR66      -0.2864
     73  CB       -80.5740   32.7670  159.8990 C.3    66  TYR66       0.0560
     74  CG       -80.5550   33.0360  158.4060 C.ar   66  TYR66      -0.0198
     75  CD1      -81.7290   33.2590  157.6960 C.ar   66  TYR66      -0.0009
     76  CD2      -79.3630   33.0530  157.7020 C.ar   66  TYR66      -0.0009
     77  CE1      -81.7130   33.5020  156.3430 C.ar   66  TYR66       0.0417
     78  CE2      -79.3410   33.2960  156.3450 C.ar   66  TYR66       0.0417
     79  CZ       -80.5180   33.5170  155.6690 C.ar   66  TYR66       0.1957
     80  OH       -80.4960   33.7550  154.3170 O.3    66  TYR66      -0.2866
     81  N        -72.3480   37.1510  161.3560 N.3    85  ALA85      -0.1231
     82  CA       -72.0380   35.7440  161.5760 C.3    85  ALA85       0.1694
     83  C        -73.0810   34.8250  160.9550 C.2    85  ALA85       0.2592
     84  O        -72.8250   33.6260  160.8030 O.2    85  ALA85      -0.2718
     85  CB       -71.9260   35.4620  163.0760 C.3    85  ALA85       0.0304
     86  N        -74.2480   35.3600  160.5950 N.am   86  ARG86      -0.1966
     87  CA       -75.3150   34.5810  159.9800 C.3    86  ARG86       0.1729
     88  C        -74.9980   34.1500  158.5550 C.2    86  ARG86       0.2616
     89  O        -75.8480   33.5090  157.9300 O.2    86  ARG86      -0.2715
     90  CB       -76.6070   35.3980  159.9770 C.3    86  ARG86       0.0348
     91  CG       -76.5780   36.5450  158.9770 C.3    86  ARG86       0.0492
     92  CD       -77.6700   37.5700  159.2370 C.3    86  ARG86       0.2205
     93  NE       -78.9910   37.0730  158.8740 N.pl3  86  ARG86      -0.0865
     94  CZ       -79.4640   37.0460  157.6320 C.cat  86  ARG86       0.5346
     95  NH1      -78.7220   37.4790  156.6220 N.pl3  86  ARG86       0.1354
     96  NH2      -80.6810   36.5770  157.3990 N.pl3  86  ARG86       0.1354
     97  N        -73.8220   34.4850  158.0210 N.am   87  PHE87      -0.1960
     98  CA       -73.5040   34.2470  156.6180 C.3    87  PHE87       0.1771
     99  C        -72.5450   33.0760  156.4170 C.2    87  PHE87       0.2619
    100  O        -71.9570   32.9450  155.3400 O.2    87  PHE87      -0.2715
    101  CB       -72.9130   35.5110  155.9890 C.3    87  PHE87       0.0574
    102  CG       -73.9290   36.5780  155.6950 C.ar   87  PHE87      -0.0200
    103  CD1      -74.8070   36.4410  154.6340 C.ar   87  PHE87      -0.0042
    104  CD2      -73.9980   37.7230  156.4700 C.ar   87  PHE87      -0.0042
    105  CE1      -75.7410   37.4230  154.3570 C.ar   87  PHE87      -0.0003
    106  CE2      -74.9300   38.7090  156.1960 C.ar   87  PHE87      -0.0003
    107  CZ       -75.8010   38.5580  155.1390 C.ar   87  PHE87      -0.0000
    108  N        -72.3740   32.2200  157.4180 N.am   88  ILE88      -0.1963
    109  CA       -71.4320   31.1110  157.3190 C.3    88  ILE88       0.1727
    110  C        -72.1400   29.9310  156.6630 C.2    88  ILE88       0.2616
    111  O        -73.1680   29.4580  157.1590 O.2    88  ILE88      -0.2715
    112  CB       -70.8700   30.7290  158.6960 C.3    88  ILE88       0.0290
    113  CG1      -70.2140   31.9540  159.3430 C.3    88  ILE88       0.0022
    114  CG2      -69.8750   29.5800  158.5570 C.3    88  ILE88       0.0023
    115  CD1      -69.4710   31.6740  160.6410 C.3    88  ILE88       0.0001
    116  N        -71.5900   29.4580  155.5470 N.am   89  ASN89      -0.1958
    117  CA       -72.1690   28.3490  154.8030 C.3    89  ASN89       0.1819
    118  C        -71.6190   27.0160  155.3050 C.2    89  ASN89       0.2621
    119  O        -70.6100   26.9540  156.0110 O.2    89  ASN89      -0.2715
    120  CB       -71.8880   28.4990  153.3070 C.3    89  ASN89       0.1195
    121  CG       -72.3710   29.8260  152.7520 C.2    89  ASN89       0.2630
    122  OD1      -73.5720   30.0470  152.6040 O.2    89  ASN89      -0.2716
    123  ND2      -71.4350   30.7110  152.4310 N.am   89  ASN89      -0.0877
    124  N        -72.2990   25.9400  154.9170 N.am   90  HIS90      -0.1973
    125  CA       -71.9850   24.6030  155.4020 C.3    90  HIS90       0.1656
    126  C        -70.9330   23.9230  154.5370 C.2    90  HIS90       0.2291
    127  O        -70.9290   24.0610  153.3100 O.2    90  HIS90      -0.2864
    128  CB       -73.2440   23.7350  155.4300 C.3    90  HIS90       0.0771
    129  CG       -72.9580   22.2650  155.4860 C.ar   90  HIS90       0.0820
    130  ND1      -72.1050   21.7060  156.4130 N.ar   90  HIS90      -0.2267
    131  CD2      -73.4070   21.2400  154.7230 C.ar   90  HIS90       0.1154
    132  CE1      -72.0420   20.4010  156.2210 C.ar   90  HIS90       0.1986
    133  NE2      -72.8230   20.0920  155.2020 N.ar   90  HIS90      -0.2212
    134  N        -72.7210   22.2550  159.9000 N.3   127  TYR127     -0.1241
    135  CA       -73.9980   22.6890  160.4580 C.3   127  TYR127      0.1605
    136  C        -74.5400   21.7590  161.5340 C.2   127  TYR127      0.2264
    137  O        -75.1070   22.2340  162.5220 O.2   127  TYR127     -0.2867
    138  CB       -75.0360   22.8360  159.3400 C.3   127  TYR127      0.0534
    139  CG       -74.9990   24.1810  158.6520 C.ar  127  TYR127     -0.0201
    140  CD1      -73.8810   25.0000  158.7410 C.ar  127  TYR127     -0.0009
    141  CD2      -76.0870   24.6390  157.9240 C.ar  127  TYR127     -0.0009
    142  CE1      -73.8430   26.2250  158.1190 C.ar  127  TYR127      0.0417
    143  CE2      -76.0590   25.8680  157.2990 C.ar  127  TYR127      0.0417
    144  CZ       -74.9340   26.6560  157.4020 C.ar  127  TYR127      0.1957
    145  OH       -74.8900   27.8810  156.7850 O.3   127  TYR127     -0.2866
    146  N        -77.0250   19.2320  161.5450 N.3   129  PHE129     -0.1241
    147  CA       -78.4750   19.0830  161.6350 C.3   129  PHE129      0.1605
    148  C        -78.8270   17.8190  162.4150 C.2   129  PHE129      0.2264
    149  O        -79.1690   16.7890  161.8330 O.2   129  PHE129     -0.2867
    150  CB       -79.1090   19.0420  160.2390 C.3   129  PHE129      0.0534
    151  CG       -79.4940   20.3970  159.7080 C.ar  129  PHE129     -0.0203
    152  CD1      -78.5700   21.1850  159.0430 C.ar  129  PHE129     -0.0042
    153  CD2      -80.7840   20.8800  159.8760 C.ar  129  PHE129     -0.0042
    154  CE1      -78.9250   22.4310  158.5550 C.ar  129  PHE129     -0.0003
    155  CE2      -81.1430   22.1250  159.3900 C.ar  129  PHE129     -0.0003
    156  CZ       -80.2120   22.9000  158.7290 C.ar  129  PHE129     -0.0000
    157  N        -79.1780   17.5150  150.6780 N.3   130  PRO130     -0.2102
    158  CA       -78.5970   18.4400  149.7110 C.3   130  PRO130      0.1504
    159  C        -77.2960   18.9650  150.2300 C.2   130  PRO130      0.2576
    160  O        -77.1280   18.9970  151.4410 O.2   130  PRO130     -0.2718
    161  CB       -79.5990   19.5710  149.7010 C.3   130  PRO130      0.0282
    162  CG       -80.0680   19.6180  151.1100 C.3   130  PRO130      0.0208
    163  CD       -80.1230   18.1980  151.5750 C.3   130  PRO130      0.0893
    164  N        -76.3930   19.3750  149.3520 N.am  131  CYS131     -0.1957
    165  CA       -75.1290   19.9070  149.8250 C.3   131  CYS131      0.1843
    166  C        -74.5000   20.5270  148.6080 C.2   131  CYS131      0.2625
    167  O        -74.4640   19.9100  147.5540 O.2   131  CYS131     -0.2714
    168  CB       -74.3680   18.8650  150.6510 C.3   131  CYS131      0.0997
    169  SG       -72.6830   19.3600  151.1260 S.3   131  CYS131     -0.0797
    170  N        -73.9430   21.7140  148.7720 N.am  132  LEU132     -0.1977
    171  CA       -73.1850   22.3280  147.6850 C.3   132  LEU132      0.1596
    172  C        -71.9710   22.8700  148.4280 C.2   132  LEU132      0.2287
    173  O        -71.9580   24.0320  148.8390 O.2   132  LEU132     -0.2864
    174  CB       -73.7740   23.5050  146.9130 C.3   132  LEU132      0.0297
    175  CG       -74.7750   23.3110  145.7690 C.3   132  LEU132      0.0022
    176  CD1      -76.0180   22.5640  146.2090 C.3   132  LEU132      0.0001
    177  CD2      -75.1520   24.6780  145.2030 C.3   132  LEU132      0.0001
    178  N        -77.0120   17.5930  153.0170 N.3   142  LEU142     -0.1245
    179  CA       -76.9710   18.6390  154.0350 C.3   142  LEU142      0.1561
    180  C        -77.0670   18.0590  155.4400 C.2   142  LEU142      0.2260
    181  O        -76.3760   18.5150  156.3590 O.2   142  LEU142     -0.2867
    182  CB       -78.1120   19.6270  153.7820 C.3   142  LEU142      0.0270
    183  CG       -78.2780   20.8620  154.6710 C.3   142  LEU142      0.0019
    184  CD1      -76.9420   21.4790  155.0460 C.3   142  LEU142      0.0001
    185  CD2      -79.1630   21.8840  153.9620 C.3   142  LEU142      0.0001
@<TRIPOS>BOND
     1   177   175    1
     2   175   176    1
     3   175   174    1
     4    26    24   am
     5   174   171    1
     6     1     2    1
     7    24    25    2
     8    24    23    1
     9     4     3    2
    10    20    23    1
    11    20    19    1
    12    20    21    1
    13   167   166    2
    14    22    21    2
    15   171   172    1
    16   171   170    1
    17     3     2    1
    18     3     9   am
    19     2     5    1
    20    19    11   am
    21    12    11    2
    22    11    10    1
    23    40    38   ar
    24    40    39   ar
    25     9    10    1
    26    10    13    1
    27    38    36   ar
    28    21    27   am
    29   172   173    2
    30   166   170   am
    31   166   165    1
    32    39    37   ar
    33    36    35   ar
    34    36    34   ar
    35     6     5    1
    36     6     8    1
    37    16    18   ar
    38    16    14   ar
    39     5     7    1
    40    35    33   ar
    41   164   165    1
    42   164   159   am
    43    18    17   ar
    44    37    34   ar
    45    13    14    1
    46    14    15   ar
    47    27    28    1
    48    34    32   ar
    49   161   158    1
    50   161   162    1
    51   158   159    1
    52   158   157    1
    53    17    15   ar
    54   165   168    1
    55    33    32   ar
    56   159   160    2
    57    32    31    1
    58    28    31    1
    59    28    29    1
    60   168   169    1
    61   157   163    1
    62   162   163    1
    63    29    30    2
    64    54    53    1
    65    54    55    1
    66   123   121   am
    67    56    55    2
    68   122   121    2
    69    62    61    1
    70   121   120    1
    71    55    57   am
    72   178   179    1
    73   120   117    1
    74   127   126    2
    75   182   179    1
    76   182   183    1
    77    57    58    1
    78   185   183    1
    79   179   180    1
    80    61    58    1
    81    80    79    1
    82   105   103   ar
    83   105   107   ar
    84   126   125    1
    85    58    59    1
    86   103   102   ar
    87   183   184    1
    88   131   133   ar
    89   131   129   ar
    90   117   118    1
    91   117   116    1
    92   124   118   am
    93   124   125    1
    94   107   106   ar
    95   133   132   ar
    96   118   119    2
    97   100    99    2
    98   125   128    1
    99   128   129    1
   100   180   181    2
   101   129   130   ar
   102   116   110   am
   103    79    77   ar
   104    79    78   ar
   105   102   101    1
   106   102   104   ar
   107   101    98    1
   108    59    60    2
   109    59    63   am
   110   106   104   ar
   111   132   130   ar
   112    77    75   ar
   113    78    76   ar
   114    99    98    1
   115    99   108   am
   116    98    97    1
   117    95    94    1
   118   110   111    2
   119   110   109    1
   120   145   144    1
   121    63    64    1
   122   143   144   ar
   123   143   141   ar
   124   109   108    1
   125   109   112    1
   126    96    94    1
   127   144   142   ar
   128    94    93    2
   129    75    74   ar
   130    76    74   ar
   131   141   139   ar
   132    89    88    2
   133    97    88   am
   134   142   140   ar
   135    64    67    1
   136    64    65    1
   137    74    73    1
   138   154   156   ar
   139   154   152   ar
   140    88    87    1
   141   114   112    1
   142   139   140   ar
   143   139   138    1
   144   112   113    1
   145   156   155   ar
   146    66    65    2
   147    67    68    1
   148    93    92    1
   149    65    69   am
   150    91    92    1
   151    91    90    1
   152   152   151   ar
   153   138   135    1
   154   113   115    1
   155   155   153   ar
   156    69    70    1
   157   151   153   ar
   158   151   150    1
   159    73    70    1
   160   134   135    1
   161    90    87    1
   162    87    86    1
   163   150   147    1
   164    70    71    1
   165   135   136    1
   166    86    83   am
   167    84    83    2
   168    83    82    1
   169    81    82    1
   170   136   137    2
   171   146   147    1
   172    82    85    1
   173   147   148    1
   174    71    72    2
   175   149   148    2
   176    52    51    1
   177    50    51   ar
   178    50    48   ar
   179    51    49   ar
   180    48    46   ar
   181    49    47   ar
   182    46    47   ar
   183    46    45    1
   184    45    42    1
   185    42    41    1
   186    42    43    1
   187    43    44    2
