@<TRIPOS>MOLECULE
tmp/6chmA00.pdb
 156 146 0 0 0
SMALL
GASTEIGER

@<TRIPOS>ATOM
      1  N         11.3580  159.2780   40.8830 N.3     7  PRO7       -0.2102
      2  CA        11.0170  158.7020   39.5680 C.3     7  PRO7        0.1504
      3  C         12.2120  158.1190   38.8100 C.2     7  PRO7        0.2576
      4  O         13.3480  158.4690   39.0770 O.2     7  PRO7       -0.2718
      5  CB        10.4460  159.8980   38.8190 C.3     7  PRO7        0.0282
      6  CG        11.2690  161.0660   39.3420 C.3     7  PRO7        0.0208
      7  CD        11.5820  160.7410   40.7850 C.3     7  PRO7        0.0893
      8  N         11.9200  157.2860   37.8240 N.am    8  GLY8       -0.1943
      9  CA        12.9160  156.6800   36.9540 C.3     8  GLY8        0.2014
     10  C         12.3410  155.5180   36.1790 C.2     8  GLY8        0.2639
     11  O         11.1740  155.1650   36.3640 O.2     8  GLY8       -0.2714
     12  N         13.1580  154.9250   35.2970 N.am    9  THR9       -0.1950
     13  CA        12.7930  153.7620   34.4870 C.3     9  THR9        0.1897
     14  C         12.9630  152.4810   35.3080 C.2     9  THR9        0.2313
     15  O         12.1240  151.5790   35.2040 O.2     9  THR9       -0.2863
     16  CB        13.5810  153.7640   33.1780 C.3     9  THR9        0.1794
     17  OG1       13.3190  155.0000   32.5190 O.3     9  THR9       -0.2208
     18  CG2       13.1890  152.6210   32.2580 C.3     9  THR9        0.0378
     19  N          8.4650  154.8560   35.5760 N.3    36  ALA36      -0.1245
     20  CA         7.9770  155.3840   34.3070 C.3    36  ALA36       0.1562
     21  C          7.7320  154.2670   33.3030 C.2    36  ALA36       0.2260
     22  O          8.5640  153.3740   33.1900 O.2    36  ALA36      -0.2867
     23  CB         8.9890  156.3710   33.7470 C.3    36  ALA36       0.0290
     24  N          8.0650  154.4350   30.1710 N.3    38  SER38      -0.1217
     25  CA         9.2480  154.6540   29.3180 C.3    38  SER38       0.1889
     26  C          9.3070  153.7700   28.0710 C.2    38  SER38       0.2288
     27  O         10.3060  153.0630   27.8950 O.2    38  SER38      -0.2866
     28  CB        10.5380  154.5120   30.1290 C.3    38  SER38       0.2089
     29  OG        10.8080  155.6240   30.9680 O.3    38  SER38      -0.2183
     30  N         12.5490  154.2250   25.4500 N.3    41  LYS41      -0.1245
     31  CA        13.8010  153.5780   25.8170 C.3    41  LYS41       0.1561
     32  C         13.7880  152.0970   25.4420 C.2    41  LYS41       0.2260
     33  O         14.8650  151.4890   25.3900 O.2    41  LYS41      -0.2867
     34  CB        14.0570  153.7230   27.3310 C.3    41  LYS41       0.0271
     35  CG        14.3900  155.1430   27.7830 C.3    41  LYS41       0.0035
     36  CD        14.6620  155.1950   29.2770 C.3    41  LYS41       0.0206
     37  CE        15.0800  156.5690   29.7350 C.3    41  LYS41       0.1093
     38  NZ        15.5280  156.5580   31.1530 N.3    41  LYS41      -0.1314
     39  N          3.7360  154.6990   36.3720 N.3    69  PHE69      -0.1241
     40  CA         3.0650  155.9020   35.8410 C.3    69  PHE69       0.1605
     41  C          3.4860  156.1890   34.4030 C.2    69  PHE69       0.2264
     42  O          4.6160  155.8980   34.0120 O.2    69  PHE69      -0.2867
     43  CB         3.3300  157.1270   36.7320 C.3    69  PHE69       0.0534
     44  CG         4.6960  157.7590   36.6020 C.ar   69  PHE69      -0.0203
     45  CD1        5.8230  157.1450   37.1380 C.ar   69  PHE69      -0.0042
     46  CD2        4.8460  159.0020   36.0060 C.ar   69  PHE69      -0.0042
     47  CE1        7.0910  157.7380   37.0230 C.ar   69  PHE69      -0.0003
     48  CE2        6.1020  159.5940   35.8990 C.ar   69  PHE69      -0.0003
     49  CZ         7.2240  158.9640   36.4210 C.ar   69  PHE69      -0.0000
     50  N          2.2880  159.2640   33.1970 N.3    71  ASP71      -0.1225
     51  CA         2.0770  160.7070   33.2720 C.3    71  ASP71       0.1805
     52  C          3.3350  161.5350   33.1150 C.2    71  ASP71       0.2598
     53  O          4.4610  161.0340   33.2370 O.2    71  ASP71      -0.2718
     54  CB         1.4410  161.0970   34.6240 C.3    71  ASP71       0.1424
     55  CG         0.1560  160.3800   34.9940 C.2    71  ASP71       0.3668
     56  OD1       -0.7150  160.2280   34.1190 O.co2  71  ASP71      -0.2456
     57  OD2        0.0290  159.9700   36.1550 O.co2  71  ASP71      -0.2456
     58  N          3.1090  162.8350   32.8630 N.am   72  LEU72      -0.1966
     59  CA         4.0980  163.8690   32.9170 C.3    72  LEU72       0.1728
     60  C          4.4760  163.9140   34.4290 C.2    72  LEU72       0.2616
     61  O          3.5750  163.8960   35.3030 O.2    72  LEU72      -0.2715
     62  CB         3.4550  165.2220   32.5070 C.3    72  LEU72       0.0311
     63  CG         4.3470  166.4580   32.6670 C.3    72  LEU72       0.0022
     64  CD1        5.4320  166.5300   31.5700 C.3    72  LEU72       0.0001
     65  CD2        3.5190  167.7250   32.7150 C.3    72  LEU72       0.0001
     66  N          5.7940  163.9730   34.7220 N.am   73  MET73      -0.1977
     67  CA         6.3090  164.0310   36.0830 C.3    73  MET73       0.1605
     68  C          5.5730  165.0100   36.9790 C.2    73  MET73       0.2287
     69  O          5.1530  164.6270   38.0560 O.2    73  MET73      -0.2864
     70  CB         7.8270  164.3780   36.1180 C.3    73  MET73       0.0413
     71  CG         8.4140  164.3390   37.5280 C.3    73  MET73       0.0598
     72  SD         8.3770  162.6150   37.9650 S.3    73  MET73      -0.1393
     73  CE         7.3260  162.6180   39.2840 C.3    73  MET73       0.0692
     74  N         11.1020  165.9400   44.8830 N.3    85  LEU85      -0.1245
     75  CA        11.4600  165.0250   43.8200 C.3    85  LEU85       0.1561
     76  C         12.9070  164.5610   44.0340 C.2    85  LEU85       0.2260
     77  O         13.8270  165.3690   43.9990 O.2    85  LEU85      -0.2867
     78  CB        11.3090  165.7480   42.4770 C.3    85  LEU85       0.0270
     79  CG        11.2170  164.8690   41.2260 C.3    85  LEU85       0.0019
     80  CD1        9.9090  164.1030   41.2210 C.3    85  LEU85       0.0001
     81  CD2       11.1890  165.7320   39.9910 C.3    85  LEU85       0.0001
     82  N         16.3930  162.5970   43.1490 N.3    87  ARG87      -0.1245
     83  CA        17.3120  162.1830   42.0840 C.3    87  ARG87       0.1563
     84  C         18.5920  161.7770   42.7460 C.2    87  ARG87       0.2260
     85  O         18.9310  162.3030   43.7950 O.2    87  ARG87      -0.2867
     86  CB        17.6660  163.3380   41.1150 C.3    87  ARG87       0.0307
     87  CG        16.5340  164.2430   40.6810 C.3    87  ARG87       0.0489
     88  CD        15.4400  163.4570   40.0280 C.3    87  ARG87       0.2205
     89  NE        15.9190  162.6540   38.9070 N.pl3  87  ARG87      -0.0865
     90  CZ        15.6510  161.3690   38.7540 C.cat  87  ARG87       0.5346
     91  NH1       14.9920  160.7050   39.7020 N.pl3  87  ARG87       0.1354
     92  NH2       16.0420  160.7290   37.6540 N.pl3  87  ARG87       0.1354
     93  N         22.0120  166.6550   32.4710 N.3    97  TYR97      -0.1227
     94  CA        20.6690  166.2700   32.0730 C.3    97  TYR97       0.1736
     95  C         19.7100  166.4760   33.2350 C.2    97  TYR97       0.2595
     96  O         18.6260  167.0030   33.0250 O.2    97  TYR97      -0.2718
     97  CB        20.6100  164.8140   31.5700 C.3    97  TYR97       0.0548
     98  CG        19.2350  164.3970   31.0960 C.ar   97  TYR97      -0.0200
     99  CD1       18.5340  165.1630   30.1630 C.ar   97  TYR97      -0.0009
    100  CD2       18.6510  163.2150   31.5420 C.ar   97  TYR97      -0.0009
    101  CE1       17.2760  164.7710   29.7020 C.ar   97  TYR97       0.0417
    102  CE2       17.3970  162.8080   31.0820 C.ar   97  TYR97       0.0417
    103  CZ        16.7110  163.5930   30.1650 C.ar   97  TYR97       0.1957
    104  OH        15.4690  163.2190   29.7060 O.3    97  TYR97      -0.2866
    105  N         20.1310  166.1050   34.4600 N.am   98  GLU98      -0.1979
    106  CA        19.3410  166.2770   35.6900 C.3    98  GLU98       0.1602
    107  C         18.9790  167.7540   35.9620 C.2    98  GLU98       0.2287
    108  O         17.8750  168.0130   36.4210 O.2    98  GLU98      -0.2864
    109  CB        20.0030  165.5960   36.9140 C.3    98  GLU98       0.0415
    110  CG        19.9730  164.0640   36.8750 C.3    98  GLU98       0.1163
    111  CD        18.6420  163.3380   36.7700 C.2    98  GLU98       0.3649
    112  OE1       17.5970  163.9220   37.1380 O.co2  98  GLU98      -0.2457
    113  OE2       18.6540  162.1510   36.3670 O.co2  98  GLU98      -0.2457
    114  N         16.1930  168.6440   33.4160 N.3   101  LEU101     -0.1231
    115  CA        14.9440  168.0570   33.8850 C.3   101  LEU101      0.1693
    116  C         14.4000  168.8380   35.0450 C.2   101  LEU101      0.2591
    117  O         13.2070  169.1170   35.0620 O.2   101  LEU101     -0.2718
    118  CB        15.1180  166.5810   34.3100 C.3   101  LEU101      0.0284
    119  CG        15.3670  165.5360   33.2380 C.3   101  LEU101      0.0019
    120  CD1       15.3150  164.1680   33.8300 C.3   101  LEU101      0.0001
    121  CD2       14.3790  165.6460   32.0950 C.3   101  LEU101      0.0001
    122  N         15.2670  169.1850   36.0200 N.am  102  ALA102     -0.1980
    123  CA        14.8630  169.8950   37.2300 C.3   102  ALA102      0.1597
    124  C         14.3130  171.3020   36.9420 C.2   102  ALA102      0.2287
    125  O         13.3080  171.6880   37.5380 O.2   102  ALA102     -0.2864
    126  CB        15.9970  169.9230   38.2450 C.3   102  ALA102      0.0319
    127  N         12.9600  172.1700   34.0230 N.3   104  MET104     -0.1230
    128  CA        11.7270  171.9290   33.2910 C.3   104  MET104      0.1702
    129  C         10.5970  171.6130   34.2800 C.2   104  MET104      0.2592
    130  O          9.5590  172.2760   34.2520 O.2   104  MET104     -0.2718
    131  CB        11.9000  170.8000   32.2590 C.3   104  MET104      0.0401
    132  CG        10.6290  170.5440   31.4550 C.3   104  MET104      0.0596
    133  SD        10.0270  172.0250   30.5910 S.3   104  MET104     -0.1393
    134  CE        11.1500  172.0300   29.1450 C.3   104  MET104      0.0692
    135  N         10.8440  170.6660   35.1940 N.am  105  ASN105     -0.1974
    136  CA         9.9290  170.2680   36.2430 C.3   105  ASN105      0.1688
    137  C          9.5190  171.4290   37.1290 C.2   105  ASN105      0.2292
    138  O          8.3830  171.4610   37.5900 O.2   105  ASN105     -0.2864
    139  CB        10.5260  169.1290   37.0720 C.3   105  ASN105      0.1181
    140  CG        10.4110  167.7950   36.3690 C.2   105  ASN105      0.2629
    141  OD1        9.5030  167.5760   35.5720 O.2   105  ASN105     -0.2716
    142  ND2       11.3120  166.8680   36.6690 N.am  105  ASN105     -0.0877
    143  N          7.0400  173.5910   35.1980 N.3   108  LEU108     -0.1245
    144  CA         5.7760  172.8570   35.1730 C.3   108  LEU108      0.1561
    145  C          5.0930  172.8450   36.5400 C.2   108  LEU108      0.2260
    146  O          3.8750  172.9590   36.6150 O.2   108  LEU108     -0.2867
    147  CB         6.0390  171.4090   34.6830 C.3   108  LEU108      0.0270
    148  CG         6.5300  171.2580   33.2200 C.3   108  LEU108      0.0019
    149  CD1        7.1380  169.8980   32.9820 C.3   108  LEU108      0.0001
    150  CD2        5.4080  171.5260   32.2320 C.3   108  LEU108      0.0001
    151  N         13.2300  169.7680   43.5110 N.3   114  SER114     -0.1217
    152  CA        14.1720  168.6930   43.1570 C.3   114  SER114      0.1889
    153  C         15.2960  168.6300   44.1890 C.2   114  SER114      0.2288
    154  O         15.8820  169.6650   44.5350 O.2   114  SER114     -0.2866
    155  CB        14.7660  168.9060   41.7700 C.3   114  SER114      0.2089
    156  OG        13.8730  168.4510   40.7670 O.3   114  SER114     -0.2183
@<TRIPOS>BOND
     1    33    32    2
     2    32    31    1
     3    30    31    1
     4    31    34    1
     5    34    35    1
     6    35    36    1
     7    27    26    2
     8    26    25    1
     9   134   133    1
    10    36    37    1
    11    25    28    1
    12    25    24    1
    13   101    99   ar
    14   101   103   ar
    15   104   103    1
    16    37    38    1
    17    28    29    1
    18    99    98   ar
    19   103   102   ar
    20   133   132    1
    21   102   100   ar
    22    98   100   ar
    23    98    97    1
    24   132   131    1
    25    64    63    1
    26    97    94    1
    27    94    93    1
    28    94    95    1
    29   121   119    1
    30   150   148    1
    31    18    16    1
    32   131   128    1
    33    62    63    1
    34    62    59    1
    35    17    16    1
    36    63    65    1
    37    58    59    1
    38    58    52   am
    39    59    60    1
    40   149   148    1
    41    96    95    2
    42    52    53    2
    43    52    51    1
    44    16    13    1
    45    22    21    2
    46    50    51    1
    47   148   147    1
    48    95   105   am
    49   119   120    1
    50   119   118    1
    51    51    54    1
    52   128   127    1
    53   128   129    1
    54    21    20    1
    55   114   115    1
    56    23    20    1
    57   115   118    1
    58   115   116    1
    59    42    41    2
    60    56    55   ar
    61   130   129    2
    62   129   135   am
    63    20    19    1
    64    41    40    1
    65    60    66   am
    66    60    61    2
    67   105   106    1
    68    13    12    1
    69    13    14    1
    70    54    55    1
    71   147   144    1
    72    66    67    1
    73    55    57   ar
    74   116   117    2
    75   116   122   am
    76   144   143    1
    77   144   145    1
    78   135   136    1
    79    15    14    2
    80    12    10   am
    81   141   140    2
    82   106   107    1
    83   106   109    1
    84    40    39    1
    85    40    43    1
    86    48    46   ar
    87    48    49   ar
    88   107   108    2
    89    46    44   ar
    90   122   123    1
    91    67    70    1
    92    67    68    1
    93    70    71    1
    94    10    11    2
    95    10     9    1
    96   136   139    1
    97   136   137    1
    98   113   111   ar
    99   140   142   am
   100   140   139    1
   101    49    47   ar
   102   145   146    2
   103    44    43    1
   104    44    45   ar
   105   111   110    1
   106   111   112   ar
   107   110   109    1
   108   124   123    1
   109   124   125    2
   110     9     8    1
   111    68    69    2
   112    47    45   ar
   113   137   138    2
   114   123   126    1
   115    71    72    1
   116    92    90    1
   117     8     3   am
   118    72    73    1
   119    90    89    2
   120    90    91    1
   121     3     4    2
   122     3     2    1
   123     5     6    1
   124     5     2    1
   125    89    88    1
   126     6     7    1
   127     2     1    1
   128    81    79    1
   129    88    87    1
   130    87    86    1
   131   156   155    1
   132     7     1    1
   133    86    83    1
   134    80    79    1
   135    79    78    1
   136   155   152    1
   137    83    84    1
   138    83    82    1
   139    78    75    1
   140    84    85    2
   141   152   151    1
   142   152   153    1
   143    75    76    1
   144    75    74    1
   145    77    76    2
   146   153   154    2
