@<TRIPOS>MOLECULE
tmp/6chnA00.pdb
 176 170 0 0 0
SMALL
GASTEIGER

@<TRIPOS>ATOM
      1  N        146.2340   23.6090   40.9320 N.3     6  PRO6       -0.2102
      2  CA       145.8840   23.0450   39.6280 C.3     6  PRO6        0.1504
      3  C        147.0620   22.5670   38.8030 C.2     6  PRO6        0.2576
      4  O        148.2000   22.9690   39.0230 O.2     6  PRO6       -0.2718
      5  CB       145.2220   24.2240   38.9390 C.3     6  PRO6        0.0282
      6  CG       146.0130   25.4480   39.4790 C.3     6  PRO6        0.0208
      7  CD       146.5440   25.0540   40.8260 C.3     6  PRO6        0.0893
      8  N        146.7570   21.7440   37.8170 N.am    7  GLY7       -0.1943
      9  CA       147.7570   21.2010   36.9150 C.3     7  GLY7        0.2014
     10  C        147.1680   20.0490   36.1380 C.2     7  GLY7        0.2639
     11  O        146.0020   19.7150   36.3270 O.2     7  GLY7       -0.2714
     12  N        147.9850   19.4420   35.2780 N.am    8  THR8       -0.1950
     13  CA       147.6140   18.3170   34.4260 C.3     8  THR8        0.1897
     14  C        147.8140   16.9870   35.1810 C.2     8  THR8        0.2313
     15  O        147.0710   16.0350   34.9290 O.2     8  THR8       -0.2863
     16  CB       148.3550   18.4530   33.0790 C.3     8  THR8        0.1794
     17  OG1      148.0140   19.7290   32.5170 O.3     8  THR8       -0.2208
     18  CG2      147.9970   17.3670   32.0890 C.3     8  THR8        0.0378
     19  N        143.2920   19.3510   35.3650 N.3    35  ALA35      -0.1231
     20  CA       142.8290   19.8100   34.0570 C.3    35  ALA35       0.1694
     21  C        142.5810   18.6210   33.1200 C.2    35  ALA35       0.2592
     22  O        143.4520   17.7530   32.9910 O.2    35  ALA35      -0.2718
     23  CB       143.8730   20.7450   33.4410 C.3    35  ALA35       0.0304
     24  N        141.3830   18.5510   32.4940 N.am   36  ALA36      -0.1966
     25  CA       141.0840   17.4530   31.5590 C.3    36  ALA36       0.1728
     26  C        142.1630   17.4210   30.4600 C.2    36  ALA36       0.2617
     27  O        142.6940   16.3480   30.1550 O.2    36  ALA36      -0.2715
     28  CB       139.6970   17.6290   30.9550 C.3    36  ALA36       0.0334
     29  N        142.5770   18.6240   29.9780 N.am   37  SER37      -0.1936
     30  CA       143.6560   18.8790   29.0020 C.3    37  SER37       0.2040
     31  C        143.6890   17.9030   27.8130 C.2    37  SER37       0.2485
     32  O        144.7520   17.3350   27.5350 O.2    37  SER37      -0.2729
     33  CB       145.0130   18.9160   29.7090 C.3    37  SER37       0.2129
     34  OG       146.0580   19.2960   28.8260 O.3    37  SER37      -0.2179
     35  N        142.5670   17.6780   27.0780 N.am   38  PRO38      -0.2726
     36  CA       142.6340   16.7300   25.9420 C.3    38  PRO38       0.1402
     37  C        143.6330   17.1170   24.8470 C.2    38  PRO38       0.2269
     38  O        144.2120   16.2220   24.2280 O.2    38  PRO38      -0.2865
     39  CB       141.1940   16.6860   25.4180 C.3    38  PRO38       0.0296
     40  CG       140.5680   17.9670   25.9090 C.3    38  PRO38       0.0237
     41  CD       141.2050   18.2390   27.2340 C.3    38  PRO38       0.0939
     42  N        138.6470   19.2900   36.1070 N.3    68  PHE68      -0.1227
     43  CA       138.0090   20.4970   35.5400 C.3    68  PHE68       0.1736
     44  C        138.3410   20.6650   34.0600 C.2    68  PHE68       0.2596
     45  O        139.4460   20.3170   33.6340 O.2    68  PHE68      -0.2718
     46  CB       138.3530   21.7910   36.3400 C.3    68  PHE68       0.0547
     47  CG       139.7500   22.3670   36.1590 C.ar   68  PHE68      -0.0202
     48  CD1      140.8410   21.8170   36.8230 C.ar   68  PHE68      -0.0042
     49  CD2      139.9620   23.4840   35.3550 C.ar   68  PHE68      -0.0042
     50  CE1      142.1190   22.3370   36.6500 C.ar   68  PHE68      -0.0003
     51  CE2      141.2480   24.0050   35.1780 C.ar   68  PHE68      -0.0003
     52  CZ       142.3140   23.4410   35.8420 C.ar   68  PHE68      -0.0000
     53  N        137.4160   21.2530   33.3080 N.am   69  SER69      -0.1938
     54  CA       137.6380   21.5630   31.8900 C.3    69  SER69       0.2055
     55  C        137.4700   23.0860   31.6860 C.2    69  SER69       0.2643
     56  O        137.7180   23.6070   30.6020 O.2    69  SER69      -0.2714
     57  CB       136.6720   20.7820   30.9980 C.3    69  SER69       0.2130
     58  OG       135.3300   21.2250   31.1370 O.3    69  SER69      -0.2179
     59  N        137.0590   23.7810   32.7480 N.am   70  ASP70      -0.1957
     60  CA       136.7880   25.2170   32.7540 C.3    70  ASP70       0.1840
     61  C        138.0420   26.0640   32.6780 C.2    70  ASP70       0.2622
     62  O        139.1480   25.5710   32.8840 O.2    70  ASP70      -0.2715
     63  CB       136.0930   25.5790   34.0900 C.3    70  ASP70       0.1450
     64  CG       134.6800   25.0510   34.2650 C.2    70  ASP70       0.3671
     65  OD1      134.0920   24.5670   33.2720 O.co2  70  ASP70      -0.2456
     66  OD2      134.1520   25.1630   35.3680 O.co2  70  ASP70      -0.2456
     67  N        137.8490   27.3690   32.4900 N.am   71  LEU71      -0.1963
     68  CA       138.9060   28.3600   32.6020 C.3    71  LEU71       0.1728
     69  C        139.3310   28.2530   34.0780 C.2    71  LEU71       0.2616
     70  O        138.4690   28.2480   34.9700 O.2    71  LEU71      -0.2715
     71  CB       138.3290   29.7590   32.3440 C.3    71  LEU71       0.0311
     72  CG       139.3290   30.9250   32.4760 C.3    71  LEU71       0.0022
     73  CD1      140.3340   30.9620   31.2930 C.3    71  LEU71       0.0001
     74  CD2      138.5800   32.2530   32.6010 C.3    71  LEU71       0.0001
     75  N        140.6590   28.1980   34.3170 N.am   72  MET72      -0.1977
     76  CA       141.2550   28.1040   35.6500 C.3    72  MET72       0.1605
     77  C        140.6250   29.0630   36.6500 C.2    72  MET72       0.2287
     78  O        140.1370   28.6480   37.7050 O.2    72  MET72      -0.2864
     79  CB       142.7760   28.3680   35.5710 C.3    72  MET72       0.0413
     80  CG       143.4660   28.3760   36.9230 C.3    72  MET72       0.0598
     81  SD       143.7060   26.6870   37.4790 S.3    72  MET72      -0.1393
     82  CE       142.3610   26.4960   38.6200 C.3    72  MET72       0.0692
     83  N        145.8990   30.3750   44.7800 N.3    84  LEU84      -0.1245
     84  CA       146.2880   29.4510   43.7390 C.3    84  LEU84       0.1561
     85  C        147.7420   29.0290   44.0210 C.2    84  LEU84       0.2260
     86  O        148.6270   29.8690   44.0580 O.2    84  LEU84      -0.2867
     87  CB       146.1940   30.2320   42.4400 C.3    84  LEU84       0.0270
     88  CG       145.9790   29.4880   41.1610 C.3    84  LEU84       0.0019
     89  CD1      145.7940   30.4960   40.0510 C.3    84  LEU84       0.0001
     90  CD2      147.1790   28.6480   40.8240 C.3    84  LEU84       0.0001
     91  N        151.2230   27.0040   43.0470 N.3    86  ARG86      -0.1245
     92  CA       152.0510   26.4690   41.9500 C.3    86  ARG86       0.1563
     93  C        153.4460   26.2150   42.5120 C.2    86  ARG86       0.2260
     94  O        153.8990   26.9380   43.3950 O.2    86  ARG86      -0.2867
     95  CB       152.0820   27.4220   40.7210 C.3    86  ARG86       0.0307
     96  CG       150.6830   27.6220   40.0300 C.3    86  ARG86       0.0489
     97  CD       150.2100   26.3870   39.2450 C.3    86  ARG86       0.2205
     98  NE       150.8810   26.3150   37.9490 N.pl3  86  ARG86      -0.0865
     99  CZ       150.8250   25.2880   37.1090 C.cat  86  ARG86       0.5346
    100  NH1      150.1240   24.2060   37.4170 N.pl3  86  ARG86       0.1354
    101  NH2      151.4750   25.3340   35.9520 N.pl3  86  ARG86       0.1354
    102  N        156.6940   31.2190   32.5330 N.3    96  TYR96      -0.1227
    103  CA       155.3310   30.8120   32.1780 C.3    96  TYR96       0.1736
    104  C        154.3470   31.1030   33.3170 C.2    96  TYR96       0.2595
    105  O        153.2580   31.6270   33.0490 O.2    96  TYR96      -0.2718
    106  CB       155.2880   29.3270   31.7380 C.3    96  TYR96       0.0548
    107  CG       153.9050   28.8020   31.4230 C.ar   96  TYR96      -0.0200
    108  CD1      153.0980   29.4260   30.4670 C.ar   96  TYR96      -0.0009
    109  CD2      153.4280   27.6390   32.0210 C.ar   96  TYR96      -0.0009
    110  CE1      151.8360   28.9150   30.1370 C.ar   96  TYR96       0.0417
    111  CE2      152.1750   27.1150   31.6920 C.ar   96  TYR96       0.0417
    112  CZ       151.3840   27.7560   30.7490 C.ar   96  TYR96       0.1957
    113  OH       150.1530   27.2330   30.4230 O.3    96  TYR96      -0.2866
    114  N        154.7310   30.8100   34.5840 N.am   97  GLU97      -0.1979
    115  CA       153.9030   31.0800   35.7820 C.3    97  GLU97       0.1602
    116  C        153.6060   32.5700   35.9360 C.2    97  GLU97       0.2287
    117  O        152.4980   32.9260   36.3480 O.2    97  GLU97      -0.2864
    118  CB       154.5470   30.5580   37.0770 C.3    97  GLU97       0.0415
    119  CG       154.5880   29.0470   37.1980 C.3    97  GLU97       0.1163
    120  CD       153.3050   28.2640   36.9770 C.2    97  GLU97       0.3649
    121  OE1      152.2010   28.7560   37.3090 O.co2  97  GLU97      -0.2457
    122  OE2      153.4200   27.1230   36.4850 O.co2  97  GLU97      -0.2457
    123  N        150.8310   33.3740   33.3960 N.3   100  LEU100     -0.1231
    124  CA       149.5520   32.8890   33.9290 C.3   100  LEU100      0.1693
    125  C        149.0840   33.7380   35.0810 C.2   100  LEU100      0.2591
    126  O        147.9050   34.0540   35.1430 O.2   100  LEU100     -0.2718
    127  CB       149.6360   31.4110   34.3970 C.3   100  LEU100      0.0284
    128  CG       149.9920   30.3860   33.3330 C.3   100  LEU100      0.0019
    129  CD1      150.1760   29.0190   33.9730 C.3   100  LEU100      0.0001
    130  CD2      148.8970   30.3130   32.2370 C.3   100  LEU100      0.0001
    131  N        149.9890   34.1170   36.0010 N.am  101  ALA101     -0.1980
    132  CA       149.5700   34.9190   37.1520 C.3   101  ALA101      0.1597
    133  C        149.0460   36.3000   36.7740 C.2   101  ALA101      0.2287
    134  O        148.0660   36.7410   37.3590 O.2   101  ALA101     -0.2864
    135  CB       150.6770   35.0150   38.1910 C.3   101  ALA101      0.0319
    136  N        147.7400   37.0850   33.8210 N.3   103  MET103     -0.1230
    137  CA       146.4810   36.8150   33.1270 C.3   103  MET103      0.1702
    138  C        145.3690   36.5170   34.1500 C.2   103  MET103      0.2592
    139  O        144.3140   37.1400   34.0970 O.2   103  MET103     -0.2718
    140  CB       146.6290   35.6690   32.1150 C.3   103  MET103      0.0401
    141  CG       145.3140   35.3830   31.3530 C.3   103  MET103      0.0596
    142  SD       144.6030   36.8040   30.4360 S.3   103  MET103     -0.1393
    143  CE       145.6680   36.7880   28.9490 C.3   103  MET103      0.0692
    144  N        145.6360   35.6420   35.1250 N.am  104  ASN104     -0.1974
    145  CA       144.6600   35.3020   36.1690 C.3   104  ASN104      0.1688
    146  C        144.2870   36.5000   37.0260 C.2   104  ASN104      0.2292
    147  O        143.1660   36.5660   37.5220 O.2   104  ASN104     -0.2864
    148  CB       145.1650   34.1790   37.0500 C.3   104  ASN104      0.1181
    149  CG       145.0700   32.8430   36.3920 C.2   104  ASN104      0.2629
    150  OD1      144.2080   32.6000   35.5490 O.2   104  ASN104     -0.2716
    151  ND2      145.9870   31.9640   36.7250 N.am  104  ASN104     -0.0877
    152  N        141.6790   38.2960   35.1180 N.3   107  LEU107     -0.1245
    153  CA       140.4060   37.5380   35.1200 C.3   107  LEU107      0.1561
    154  C        139.7490   37.4780   36.5190 C.2   107  LEU107      0.2260
    155  O        138.5320   37.4360   36.6340 O.2   107  LEU107     -0.2867
    156  CB       140.6620   36.1030   34.6270 C.3   107  LEU107      0.0270
    157  CG       141.2170   35.9690   33.2040 C.3   107  LEU107      0.0019
    158  CD1      141.9690   34.6680   33.0360 C.3   107  LEU107      0.0001
    159  CD2      140.1190   36.1080   32.1710 C.3   107  LEU107      0.0001
    160  N        148.0620   34.2830   43.4500 N.3   113  SER113     -0.1217
    161  CA       148.9400   33.1970   43.0260 C.3   113  SER113      0.1889
    162  C        150.1040   33.1140   44.0350 C.2   113  SER113      0.2288
    163  O        150.7260   34.1170   44.3630 O.2   113  SER113     -0.2866
    164  CB       149.4310   33.4320   41.6040 C.3   113  SER113      0.2089
    165  OG       148.3100   33.4710   40.7340 O.3   113  SER113     -0.2183
    166  N        153.5410   30.8310   45.2360 N.3   115  PHE115     -0.1241
    167  CA       154.5170   29.8760   44.7200 C.3   115  PHE115      0.1605
    168  C        155.2760   29.2130   45.8270 C.2   115  PHE115      0.2264
    169  O        155.7610   29.8860   46.7320 O.2   115  PHE115     -0.2867
    170  CB       155.4460   30.5360   43.6740 C.3   115  PHE115      0.0534
    171  CG       154.6410   31.1630   42.5550 C.ar  115  PHE115     -0.0203
    172  CD1      154.2240   30.4030   41.4670 C.ar  115  PHE115     -0.0042
    173  CD2      154.2180   32.4870   42.6370 C.ar  115  PHE115     -0.0042
    174  CE1      153.4230   30.9670   40.4600 C.ar  115  PHE115     -0.0003
    175  CE2      153.4140   33.0520   41.6340 C.ar  115  PHE115     -0.0003
    176  CZ       153.0340   32.2920   40.5430 C.ar  115  PHE115     -0.0000
@<TRIPOS>BOND
     1    38    37    2
     2    37    36    1
     3    39    40    1
     4    39    36    1
     5    40    41    1
     6    36    35    1
     7    35    41    1
     8    35    31   am
     9    32    31    2
    10    31    30    1
    11    34    33    1
    12   143   142    1
    13    30    33    1
    14    30    29    1
    15    29    26   am
    16   110   108   ar
    17   110   112   ar
    18    27    26    2
    19   113   112    1
    20   142   141    1
    21    26    25    1
    22   108   107   ar
    23    56    55    2
    24   112   111   ar
    25    28    25    1
    26    57    58    1
    27    57    54    1
    28    73    72    1
    29   141   140    1
    30   107   106    1
    31   107   109   ar
    32    25    24    1
    33    55    54    1
    34    55    59   am
    35   111   109   ar
    36   106   103    1
    37    54    53    1
    38    18    16    1
    39   140   137    1
    40   159   157    1
    41   103   102    1
    42   103   104    1
    43   130   128    1
    44    71    72    1
    45    71    68    1
    46    72    74    1
    47    67    68    1
    48    67    61   am
    49    24    21   am
    50    17    16    1
    51    68    69    1
    52    61    60    1
    53    61    62    2
    54    59    60    1
    55    60    63    1
    56    22    21    2
    57   158   157    1
    58   105   104    2
    59    16    13    1
    60    21    20    1
    61   137   136    1
    62   137   138    1
    63   157   156    1
    64    65    64   ar
    65    53    44   am
    66   104   114   am
    67   128   129    1
    68   128   127    1
    69   123   124    1
    70    23    20    1
    71    45    44    2
    72   124   127    1
    73   124   125    1
    74    20    19    1
    75    44    43    1
    76    69    75   am
    77    69    70    2
    78    63    64    1
    79   139   138    2
    80   138   144   am
    81    64    66   ar
    82    75    76    1
    83    13    14    1
    84    13    12    1
    85   114   115    1
    86   156   153    1
    87    15    14    2
    88   125   126    2
    89   125   131   am
    90   152   153    1
    91   153   154    1
    92   144   145    1
    93    51    49   ar
    94    51    52   ar
    95    12    10   am
    96    49    47   ar
    97    43    42    1
    98    43    46    1
    99   150   149    2
   100    79    76    1
   101    79    80    1
   102    76    77    1
   103   115   116    1
   104   115   118    1
   105    52    50   ar
   106   116   117    2
   107   101    99    1
   108   131   132    1
   109    10    11    2
   110    10     9    1
   111    47    46    1
   112    47    48   ar
   113   145   146    1
   114   145   148    1
   115   149   151   am
   116   149   148    1
   117   122   120   ar
   118   154   155    2
   119    50    48   ar
   120    77    78    2
   121   133   132    1
   122   133   134    2
   123     9     8    1
   124    80    81    1
   125   120   119    1
   126   120   121   ar
   127   146   147    2
   128   118   119    1
   129    99   100    1
   130    99    98    2
   131   132   135    1
   132    81    82    1
   133     8     3   am
   134    98    97    1
   135     3     4    2
   136     3     2    1
   137     5     6    1
   138     5     2    1
   139    97    96    1
   140     6     7    1
   141     2     1    1
   142    96    95    1
   143    89    88    1
   144   174   176   ar
   145   174   172   ar
   146   176   175   ar
   147    95    92    1
   148   165   164    1
   149    90    88    1
   150     7     1    1
   151    88    87    1
   152   172   171   ar
   153   164   161    1
   154   175   173   ar
   155    92    93    1
   156    92    91    1
   157    87    84    1
   158    93    94    2
   159   171   173   ar
   160   171   170    1
   161   161   160    1
   162   161   162    1
   163   170   167    1
   164    84    85    1
   165    84    83    1
   166    85    86    2
   167   162   163    2
   168   167   166    1
   169   167   168    1
   170   168   169    2
