@<TRIPOS>MOLECULE
tmp/6choB00.pdb
 159 153 0 0 0
SMALL
GASTEIGER

@<TRIPOS>ATOM
      1  N        160.2340  174.2820   55.4710 N.3     8  PRO8       -0.2102
      2  CA       161.4730  174.9710   55.8370 C.3     8  PRO8        0.1504
      3  C        162.2210  175.6360   54.7040 C.2     8  PRO8        0.2576
      4  O        162.1000  175.2420   53.5400 O.2     8  PRO8       -0.2718
      5  CB       162.3030  173.8500   56.4740 C.3     8  PRO8        0.0282
      6  CG       161.9370  172.6360   55.6130 C.3     8  PRO8        0.0208
      7  CD       160.4730  172.8390   55.2120 C.3     8  PRO8        0.0893
      8  N        163.0540  176.6060   55.0760 N.am    9  GLY9       -0.1943
      9  CA       163.8980  177.3030   54.1170 C.3     9  GLY9        0.2014
     10  C        164.5320  178.5390   54.7180 C.2     9  GLY9        0.2639
     11  O        164.3090  178.8480   55.8880 O.2     9  GLY9       -0.2714
     12  N        165.2950  179.2660   53.9140 N.am   10  THR10      -0.1950
     13  CA       165.8830  180.5320   54.3680 C.3    10  THR10       0.1897
     14  C        164.8850  181.6710   54.1970 C.2    10  THR10       0.2313
     15  O        164.9480  182.6230   54.9690 O.2    10  THR10      -0.2863
     16  CB       167.2340  180.8120   53.6900 C.3    10  THR10       0.1794
     17  OG1      167.0940  180.5930   52.2880 O.3    10  THR10      -0.2208
     18  CG2      168.3580  179.9560   54.2600 C.3    10  THR10       0.0378
     19  N        165.2690  179.1980   58.5710 N.3    37  ALA37      -0.1245
     20  CA       166.6300  178.8420   58.9670 C.3    37  ALA37       0.1562
     21  C        167.4250  180.0760   59.3880 C.2    37  ALA37       0.2260
     22  O        167.4860  181.0570   58.6380 O.2    37  ALA37      -0.2867
     23  CB       167.3330  178.1210   57.8310 C.3    37  ALA37       0.0290
     24  N        170.5820  180.3120   59.6460 N.3    39  SER39      -0.1203
     25  CA       171.7400  180.3480   58.7390 C.3    39  SER39       0.2005
     26  C        171.5890  181.3700   57.6080 C.2    39  SER39       0.2460
     27  O        170.4830  181.5870   57.1010 O.2    39  SER39      -0.2732
     28  CB       171.9620  178.9730   58.1140 C.3    39  SER39       0.2103
     29  OG       172.3530  178.0130   59.0790 O.3    39  SER39      -0.2182
     30  N        172.7020  181.9850   57.1710 N.am   40  PRO40      -0.2728
     31  CA       172.6210  182.9210   56.0490 C.3    40  PRO40       0.1401
     32  C        172.3190  182.1860   54.7370 C.2    40  PRO40       0.2269
     33  O        172.7520  181.0450   54.5670 O.2    40  PRO40      -0.2865
     34  CB       174.0490  183.5050   56.0040 C.3    40  PRO40       0.0296
     35  CG       174.6570  183.2080   57.3370 C.3    40  PRO40       0.0237
     36  CD       174.0990  181.8580   57.6350 C.3    40  PRO40       0.0939
     37  N        164.7050  178.5060   63.2960 N.3    70  PHE70      -0.1227
     38  CA       165.4250  177.3130   63.7660 C.3    70  PHE70       0.1736
     39  C        166.8750  177.3980   63.2970 C.2    70  PHE70       0.2596
     40  O        167.1460  178.0200   62.2690 O.2    70  PHE70      -0.2718
     41  CB       164.7560  175.9920   63.2960 C.3    70  PHE70       0.0547
     42  CG       164.9740  175.6660   61.8290 C.ar   70  PHE70      -0.0202
     43  CD1      164.1970  176.2640   60.8440 C.ar   70  PHE70      -0.0042
     44  CD2      165.9700  174.7720   61.4370 C.ar   70  PHE70      -0.0042
     45  CE1      164.4100  175.9800   59.4890 C.ar   70  PHE70      -0.0003
     46  CE2      166.1880  174.4960   60.0840 C.ar   70  PHE70      -0.0003
     47  CZ       165.4150  175.1170   59.1200 C.ar   70  PHE70      -0.0000
     48  N        167.8010  176.7560   64.0190 N.am   71  SER71      -0.1938
     49  CA       169.2250  176.7930   63.6320 C.3    71  SER71       0.2055
     50  C        169.8240  175.3920   63.4890 C.2    71  SER71       0.2643
     51  O        170.9090  175.2210   62.9280 O.2    71  SER71      -0.2714
     52  CB       170.0210  177.6200   64.6380 C.3    71  SER71       0.2130
     53  OG       169.8010  177.0700   65.9260 O.3    71  SER71      -0.2179
     54  N        169.0960  174.3820   63.9540 N.am   72  ASP72      -0.1957
     55  CA       169.5540  172.9940   63.8880 C.3    72  ASP72       0.1840
     56  C        169.4730  172.4580   62.4690 C.2    72  ASP72       0.2622
     57  O        168.9440  173.1030   61.5590 O.2    72  ASP72      -0.2715
     58  CB       168.6280  172.1040   64.7780 C.3    72  ASP72       0.1450
     59  CG       169.3400  170.9230   65.4560 C.2    72  ASP72       0.3671
     60  OD1      170.3820  170.4600   64.9240 O.co2  72  ASP72      -0.2456
     61  OD2      168.8110  170.4100   66.4560 O.co2  72  ASP72      -0.2456
     62  N        169.9160  171.2190   62.3100 N.am   73  LEU73      -0.1963
     63  CA       169.6600  170.4390   61.1090 C.3    73  LEU73       0.1728
     64  C        168.1310  170.4770   60.9900 C.2    73  LEU73       0.2616
     65  O        167.4320  170.3420   62.0040 O.2    73  LEU73      -0.2715
     66  CB       170.0930  168.9940   61.3920 C.3    73  LEU73       0.0311
     67  CG       169.9150  167.9910   60.2570 C.3    73  LEU73       0.0022
     68  CD1      171.0260  168.1100   59.2570 C.3    73  LEU73       0.0001
     69  CD2      169.8550  166.6120   60.8250 C.3    73  LEU73       0.0001
     70  N        167.6130  170.7340   59.7840 N.am   74  MET74      -0.1963
     71  CA       166.1710  170.8260   59.6050 C.3    74  MET74       0.1736
     72  C        165.4200  169.6040   60.1870 C.2    74  MET74       0.2616
     73  O        164.4090  169.7910   60.8830 O.2    74  MET74      -0.2715
     74  CB       165.8670  171.0300   58.1130 C.3    74  MET74       0.0427
     75  CG       164.4030  171.3440   57.8360 C.3    74  MET74       0.0599
     76  SD       163.3850  169.8340   57.7530 S.3    74  MET74      -0.1393
     77  CE       164.1160  169.0590   56.3220 C.3    74  MET74       0.0692
     78  N        165.8960  168.3690   59.8820 N.am   75  ALA75      -0.1977
     79  CA       165.2350  167.1480   60.3590 C.3    75  ALA75       0.1597
     80  C        165.2000  167.0850   61.8810 C.2    75  ALA75       0.2287
     81  O        164.2060  166.6160   62.4210 O.2    75  ALA75      -0.2864
     82  CB       165.9200  165.8940   59.7970 C.3    75  ALA75       0.0319
     83  N        156.7610  167.0480   55.3860 N.3    86  LEU86      -0.1245
     84  CA       157.7780  168.0190   55.0390 C.3    86  LEU86       0.1561
     85  C        157.4050  168.5960   53.6860 C.2    86  LEU86       0.2260
     86  O        157.4810  167.8960   52.6780 O.2    86  LEU86      -0.2867
     87  CB       159.1390  167.2940   54.9800 C.3    86  LEU86       0.0270
     88  CG       160.3070  168.0100   54.3010 C.3    86  LEU86       0.0019
     89  CD1      160.5180  169.4460   54.8720 C.3    86  LEU86       0.0001
     90  CD2      161.5720  167.2270   54.5070 C.3    86  LEU86       0.0001
     91  N        157.8100  170.7150   50.3380 N.3    88  ARG88      -0.1245
     92  CA       158.8080  171.2100   49.3900 C.3    88  ARG88       0.1563
     93  C        158.0330  171.7570   48.2070 C.2    88  ARG88       0.2260
     94  O        156.9190  171.2990   47.9490 O.2    88  ARG88      -0.2867
     95  CB       159.7170  170.0640   48.8850 C.3    88  ARG88       0.0307
     96  CG       160.3720  169.1930   49.9840 C.3    88  ARG88       0.0489
     97  CD       161.1340  170.0300   51.0280 C.3    88  ARG88       0.2205
     98  NE       162.0940  170.9710   50.4470 N.pl3  88  ARG88      -0.0865
     99  CZ       162.3270  172.1990   50.9070 C.cat  88  ARG88       0.5346
    100  NH1      161.5800  172.7070   51.8850 N.pl3  88  ARG88       0.1354
    101  NH2      163.2690  172.9520   50.3560 N.pl3  88  ARG88       0.1354
    102  N        168.2370  168.3080   43.1010 N.3    98  TYR98      -0.1227
    103  CA       168.7310  168.6320   44.4330 C.3    98  TYR98       0.1736
    104  C        167.7420  168.2570   45.5190 C.2    98  TYR98       0.2595
    105  O        168.1570  167.7060   46.5490 O.2    98  TYR98      -0.2718
    106  CB       169.1450  170.1140   44.5040 C.3    98  TYR98       0.0548
    107  CG       169.7100  170.5510   45.8340 C.ar   98  TYR98      -0.0200
    108  CD1      170.7510  169.8490   46.4380 C.ar   98  TYR98      -0.0009
    109  CD2      169.2540  171.7070   46.4600 C.ar   98  TYR98      -0.0009
    110  CE1      171.2900  170.2610   47.6550 C.ar   98  TYR98       0.0417
    111  CE2      169.8030  172.1420   47.6630 C.ar   98  TYR98       0.0417
    112  CZ       170.8110  171.4060   48.2650 C.ar   98  TYR98       0.1957
    113  OH       171.3410  171.8200   49.4590 O.3    98  TYR98      -0.2866
    114  N        166.4270  168.5010   45.2790 N.am   99  GLU99      -0.1979
    115  CA       165.3750  168.1390   46.2420 C.3    99  GLU99       0.1602
    116  C        165.2740  166.6100   46.4220 C.2    99  GLU99       0.2287
    117  O        164.9900  166.1610   47.5280 O.2    99  GLU99      -0.2864
    118  CB       164.0140  168.7890   45.8890 C.3    99  GLU99       0.0415
    119  CG       163.9870  170.3070   46.0890 C.3    99  GLU99       0.1163
    120  CD       164.0220  170.8320   47.5180 C.2    99  GLU99       0.3649
    121  OE1      163.7900  170.0450   48.4570 O.co2  99  GLU99      -0.2457
    122  OE2      164.2330  172.0490   47.6970 O.co2  99  GLU99      -0.2457
    123  N        168.1200  165.7220   48.8020 N.3   102  LEU102     -0.1231
    124  CA       167.7290  166.1200   50.1570 C.3   102  LEU102      0.1693
    125  C        166.6410  165.2410   50.7340 C.2   102  LEU102      0.2591
    126  O        166.7260  164.8920   51.9120 O.2   102  LEU102     -0.2718
    127  CB       167.2950  167.5900   50.2260 C.3   102  LEU102      0.0284
    128  CG       168.3410  168.6140   49.8290 C.3   102  LEU102      0.0019
    129  CD1      167.7020  169.9800   49.6580 C.3   102  LEU102      0.0001
    130  CD2      169.4780  168.6720   50.8520 C.3   102  LEU102      0.0001
    131  N        165.6260  164.8610   49.9220 N.am  103  ALA103     -0.1980
    132  CA       164.5390  164.0020   50.4120 C.3   103  ALA103      0.1597
    133  C        165.0300  162.6080   50.8330 C.2   103  ALA103      0.2287
    134  O        164.6030  162.0970   51.8750 O.2   103  ALA103     -0.2864
    135  CB       163.4320  163.9000   49.3810 C.3   103  ALA103      0.0319
    136  N        168.0530  161.9800   51.8740 N.3   105  MET105     -0.1230
    137  CA       168.8420  162.2410   53.0800 C.3   105  MET105      0.1702
    138  C        167.9340  162.4660   54.3080 C.2   105  MET105      0.2592
    139  O        168.1600  161.8430   55.3510 O.2   105  MET105     -0.2718
    140  CB       169.8190  163.4020   52.8530 C.3   105  MET105      0.0401
    141  CG       170.6030  163.7870   54.1050 C.3   105  MET105      0.0596
    142  SD       171.6680  162.4410   54.6850 S.3   105  MET105     -0.1393
    143  CE       173.0280  162.5370   53.4580 C.3   105  MET105      0.0692
    144  N        166.8820  163.2910   54.1620 N.am  106  ASN106     -0.1974
    145  CA       165.9150  163.5330   55.2310 C.3   106  ASN106      0.1688
    146  C        165.1940  162.2570   55.6550 C.2   106  ASN106      0.2292
    147  O        164.8780  162.1120   56.8430 O.2   106  ASN106     -0.2864
    148  CB       164.9160  164.6420   54.8290 C.3   106  ASN106      0.1181
    149  CG       165.5700  166.0130   54.8660 C.2   106  ASN106      0.2629
    150  OD1      166.4350  166.2970   55.6970 O.2   106  ASN106     -0.2716
    151  ND2      165.2320  166.8670   53.9280 N.am  106  ASN106     -0.0877
    152  N        167.5690  160.4260   57.8520 N.3   109  LEU109     -0.1245
    153  CA       167.6700  161.0920   59.1560 C.3   109  LEU109      0.1561
    154  C        166.3970  160.9420   60.0040 C.2   109  LEU109      0.2260
    155  O        166.4840  160.7730   61.2230 O.2   109  LEU109     -0.2867
    156  CB       167.9420  162.5950   58.9540 C.3   109  LEU109      0.0270
    157  CG       169.2780  162.9570   58.2940 C.3   109  LEU109      0.0019
    158  CD1      169.2110  164.3760   57.6980 C.3   109  LEU109      0.0001
    159  CD2      170.4230  162.7960   59.2550 C.3   109  LEU109      0.0001
@<TRIPOS>BOND
     1   102   103    1
     2   103   106    1
     3   103   104    1
     4   106   107    1
     5   114   104   am
     6   114   115    1
     7   104   105    2
     8   107   108   ar
     9   107   109   ar
    10   118   119    1
    11   118   115    1
    12   119   120    1
    13   115   116    1
    14   116   117    2
    15   108   110   ar
    16   109   111   ar
    17   120   122   ar
    18   120   121   ar
    19   110   112   ar
    20   111   112   ar
    21    94    93    2
    22    93    92    1
    23   112   113    1
    24   123   124    1
    25    95    92    1
    26    95    96    1
    27   135   132    1
    28    92    91    1
    29   129   128    1
    30   128   127    1
    31   128   130    1
    32   131   132    1
    33   131   125   am
    34    96    97    1
    35   124   127    1
    36   124   125    1
    37   101    99    1
    38   132   133    1
    39    98    99    2
    40    98    97    1
    41   125   126    2
    42   133   134    2
    43    99   100    1
    44   136   137    1
    45    17    16    1
    46    86    85    2
    47   140   137    1
    48   140   141    1
    49   137   138    1
    50   143   142    1
    51     4     3    2
    52    85    84    1
    53    16    18    1
    54    16    13    1
    55    12    13    1
    56    12    10   am
    57   151   149   am
    58   141   142    1
    59     9    10    1
    60     9     8    1
    61   144   138   am
    62   144   145    1
    63    14    13    1
    64    14    15    2
    65    88    90    1
    66    88    89    1
    67    88    87    1
    68   138   139    2
    69    33    32    2
    70     3     8   am
    71     3     2    1
    72    10    11    2
    73    32    31    1
    74   148   149    1
    75   148   145    1
    76   149   150    2
    77    87    84    1
    78    84    83    1
    79     7     1    1
    80     7     6    1
    81   145   146    1
    82     1     2    1
    83     6     5    1
    84   146   147    2
    85     2     5    1
    86    34    31    1
    87    34    35    1
    88    31    30    1
    89    77    76    1
    90    27    26    2
    91    30    26   am
    92    30    36    1
    93    35    36    1
    94    26    25    1
    95   158   157    1
    96    76    75    1
    97    23    20    1
    98    75    74    1
    99   152   153    1
   100    74    71    1
   101    28    25    1
   102    28    29    1
   103   157   156    1
   104   157   159    1
   105    19    20    1
   106    22    21    2
   107    25    24    1
   108   156   153    1
   109    20    21    1
   110    47    45   ar
   111    47    46   ar
   112   153   154    1
   113    68    67    1
   114    45    43   ar
   115    71    70    1
   116    71    72    1
   117    70    64   am
   118    82    79    1
   119    78    72   am
   120    78    79    1
   121   154   155    2
   122    46    44   ar
   123    72    73    2
   124    67    69    1
   125    67    66    1
   126    79    80    1
   127    43    42   ar
   128    64    63    1
   129    64    65    2
   130    63    66    1
   131    63    62    1
   132    44    42   ar
   133    57    56    2
   134    42    41    1
   135    80    81    2
   136    40    39    2
   137    62    56   am
   138    56    55    1
   139    51    50    2
   140    37    38    1
   141    41    38    1
   142    39    38    1
   143    39    48   am
   144    50    49    1
   145    50    54   am
   146    49    48    1
   147    49    52    1
   148    55    54    1
   149    55    58    1
   150    52    53    1
   151    58    59    1
   152    60    59   ar
   153    59    61   ar
