@<TRIPOS>MOLECULE
tmp/6choA01.pdb
 92 86 0 0 0
SMALL
GASTEIGER

@<TRIPOS>ATOM
      1  N        145.7550  158.0120   40.7730 N.3     8  PRO8       -0.2102
      2  CA       145.3710  157.4350   39.4880 C.3     8  PRO8        0.1504
      3  C        146.5300  156.9780   38.6130 C.2     8  PRO8        0.2576
      4  O        147.6510  157.4830   38.7070 O.2     8  PRO8       -0.2718
      5  CB       144.5940  158.5760   38.8330 C.3     8  PRO8        0.0282
      6  CG       145.3760  159.8110   39.2620 C.3     8  PRO8        0.0208
      7  CD       145.8790  159.4870   40.6730 C.3     8  PRO8        0.0893
      8  N        146.2340  156.0560   37.7210 N.am    9  GLY9       -0.1943
      9  CA       147.2180  155.5400   36.7690 C.3     9  GLY9        0.2014
     10  C        146.6810  154.3070   36.0810 C.2     9  GLY9        0.2639
     11  O        145.5610  153.8810   36.3780 O.2     9  GLY9       -0.2714
     12  N        147.4620  153.7370   35.1490 N.am   10  THR10      -0.1950
     13  CA       147.0330  152.5130   34.4470 C.3    10  THR10       0.1897
     14  C        147.3160  151.2660   35.2770 C.2    10  THR10       0.2313
     15  O        146.6310  150.2610   35.0770 O.2    10  THR10      -0.2863
     16  CB       147.6510  152.4270   33.0390 C.3    10  THR10       0.1794
     17  OG1      149.0690  152.5580   33.1580 O.3    10  THR10      -0.2208
     18  CG2      147.1210  153.5040   32.1140 C.3    10  THR10       0.0378
     19  N        141.9630  152.7160   29.8040 N.3    39  SER39      -0.1217
     20  CA       142.8330  153.0280   28.6630 C.3    39  SER39       0.1889
     21  C        142.9890  151.8650   27.6270 C.2    39  SER39       0.2288
     22  O        144.1200  151.4340   27.3760 O.2    39  SER39      -0.2866
     23  CB       144.1890  153.5260   29.1550 C.3    39  SER39       0.2089
     24  OG       144.9280  154.1120   28.0970 O.3    39  SER39      -0.2183
     25  N        145.6960  152.0070   24.6210 N.3    42  LYS42      -0.1245
     26  CA       147.1020  151.7190   24.9140 C.3    42  LYS42       0.1561
     27  C        147.3970  150.2090   24.9220 C.2    42  LYS42       0.2260
     28  O        148.5480  149.8200   25.1430 O.2    42  LYS42      -0.2867
     29  CB       147.5090  152.3480   26.2550 C.3    42  LYS42       0.0271
     30  CG       147.9410  153.8010   26.1510 C.3    42  LYS42       0.0035
     31  CD       148.3550  154.3360   27.5170 C.3    42  LYS42       0.0206
     32  CE       149.1890  155.5860   27.4130 C.3    42  LYS42       0.1093
     33  NZ       149.5370  156.1240   28.7540 N.3    42  LYS42      -0.1314
     34  N        150.8480  161.7110   43.1130 N.3    88  ARG88      -0.1245
     35  CA       151.7680  161.3980   42.0320 C.3    88  ARG88       0.1563
     36  C        153.0290  160.8590   42.6700 C.2    88  ARG88       0.2260
     37  O        153.3390  161.2080   43.8070 O.2    88  ARG88      -0.2867
     38  CB       152.1130  162.6670   41.2170 C.3    88  ARG88       0.0307
     39  CG       150.9110  163.5040   40.7600 C.3    88  ARG88       0.0489
     40  CD       149.8280  162.6990   40.0310 C.3    88  ARG88       0.2205
     41  NE       150.3400  161.8910   38.9230 N.pl3  88  ARG88      -0.0865
     42  CZ       149.9880  160.6340   38.6690 C.cat  88  ARG88       0.5346
     43  NH1      149.1810  159.9760   39.5030 N.pl3  88  ARG88       0.1354
     44  NH2      150.4350  160.0240   37.5840 N.pl3  88  ARG88       0.1354
     45  N        159.8380  159.7430   40.2470 N.3    91  ARG91      -0.1245
     46  CA       161.0420  158.9350   40.0240 C.3    91  ARG91       0.1563
     47  C        162.0820  159.6670   39.1400 C.2    91  ARG91       0.2260
     48  O        163.0690  160.1290   39.6960 O.2    91  ARG91      -0.2867
     49  CB       160.7510  157.4920   39.5300 C.3    91  ARG91       0.0307
     50  CG       159.7200  157.3580   38.4190 C.3    91  ARG91       0.0489
     51  CD       159.8360  156.0230   37.6980 C.3    91  ARG91       0.2205
     52  NE       159.1100  156.0600   36.4280 N.pl3  91  ARG91      -0.0865
     53  CZ       157.9410  155.4680   36.2060 C.cat  91  ARG91       0.5346
     54  NH1      157.3470  155.5830   35.0250 N.pl3  91  ARG91       0.1354
     55  NH2      157.3670  154.7370   37.1550 N.pl3  91  ARG91       0.1354
     56  N        159.7640  161.7930   33.6360 N.3    95  ASP95      -0.1239
     57  CA       158.4520  161.6400   34.2510 C.3    95  ASP95       0.1674
     58  C        158.0450  162.9600   34.8950 C.2    95  ASP95       0.2266
     59  O        156.9060  163.3750   34.7230 O.2    95  ASP95      -0.2867
     60  CB       158.4430  160.5190   35.3030 C.3    95  ASP95       0.1410
     61  CG       158.8000  159.1560   34.7460 C.2    95  ASP95       0.3668
     62  OD1      157.9250  158.5270   34.1120 O.co2  95  ASP95      -0.2456
     63  OD2      159.9550  158.7210   34.9420 O.co2  95  ASP95      -0.2456
     64  N        156.7720  165.6400   32.3640 N.3    98  TYR98      -0.1227
     65  CA       155.4410  165.2800   31.8960 C.3    98  TYR98       0.1736
     66  C        154.4240  165.4730   33.0220 C.2    98  TYR98       0.2595
     67  O        153.3300  165.9640   32.7630 O.2    98  TYR98      -0.2718
     68  CB       155.4420  163.8510   31.3380 C.3    98  TYR98       0.0548
     69  CG       154.0920  163.3260   30.8890 C.ar   98  TYR98      -0.0200
     70  CD1      153.2900  164.0610   30.0110 C.ar   98  TYR98      -0.0009
     71  CD2      153.6700  162.0460   31.2400 C.ar   98  TYR98      -0.0009
     72  CE1      152.0480  163.5750   29.5890 C.ar   98  TYR98       0.0417
     73  CE2      152.4490  161.5380   30.7970 C.ar   98  TYR98       0.0417
     74  CZ       151.6430  162.3050   29.9680 C.ar   98  TYR98       0.1957
     75  OH       150.4470  161.7910   29.5220 O.3    98  TYR98      -0.2866
     76  N        154.7940  165.1170   34.2720 N.am   99  GLU99      -0.1979
     77  CA       153.9290  165.3060   35.4450 C.3    99  GLU99       0.1602
     78  C        153.6470  166.7950   35.7040 C.2    99  GLU99       0.2287
     79  O        152.5280  167.1330   36.1070 O.2    99  GLU99      -0.2864
     80  CB       154.4810  164.5830   36.6820 C.3    99  GLU99       0.0415
     81  CG       154.3730  163.0620   36.5890 C.3    99  GLU99       0.1163
     82  CD       152.9920  162.4400   36.7060 C.2    99  GLU99       0.3649
     83  OE1      152.0450  163.1400   37.1210 O.co2  99  GLU99      -0.2457
     84  OE2      152.8600  161.2330   36.4030 O.co2  99  GLU99      -0.2457
     85  N        150.9240  167.7500   33.1750 N.3   102  LEU102     -0.1245
     86  CA       149.6570  167.1870   33.6330 C.3   102  LEU102      0.1561
     87  C        149.1320  167.9290   34.8470 C.2   102  LEU102      0.2260
     88  O        147.9370  168.1750   34.9200 O.2   102  LEU102     -0.2867
     89  CB       149.8110  165.6890   33.9640 C.3   102  LEU102      0.0270
     90  CG       150.1710  164.7700   32.8110 C.3   102  LEU102      0.0019
     91  CD1      150.5870  163.4000   33.3320 C.3   102  LEU102      0.0001
     92  CD2      149.0090  164.6530   31.8080 C.3   102  LEU102      0.0001
@<TRIPOS>BOND
     1    25    26    1
     2    26    27    1
     3    26    29    1
     4    27    28    2
     5    30    29    1
     6    30    31    1
     7    22    21    2
     8    32    31    1
     9    32    33    1
    10    21    20    1
    11    24    23    1
    12    20    23    1
    13    20    19    1
    14    75    74    1
    15    72    74   ar
    16    72    70   ar
    17    74    73   ar
    18    70    69   ar
    19    73    71   ar
    20    69    71   ar
    21    69    68    1
    22    68    65    1
    23    92    90    1
    24    65    64    1
    25    65    66    1
    26    18    16    1
    27    67    66    2
    28    90    91    1
    29    90    89    1
    30    66    76   am
    31    16    17    1
    32    16    13    1
    33    85    86    1
    34    86    89    1
    35    86    87    1
    36    56    57    1
    37    62    61   ar
    38    57    58    1
    39    57    60    1
    40    76    77    1
    41    13    12    1
    42    13    14    1
    43    59    58    2
    44    61    63   ar
    45    61    60    1
    46    87    88    2
    47    54    53    1
    48    15    14    2
    49    12    10   am
    50    77    78    1
    51    77    80    1
    52    78    79    2
    53    10    11    2
    54    10     9    1
    55    53    52    2
    56    53    55    1
    57    84    82   ar
    58    52    51    1
    59    81    80    1
    60    81    82    1
    61    82    83   ar
    62     9     8    1
    63    44    42    1
    64    51    50    1
    65     8     3   am
    66    50    49    1
    67     3     4    2
    68     3     2    1
    69    42    41    2
    70    42    43    1
    71     5     6    1
    72     5     2    1
    73    41    40    1
    74    47    48    2
    75    47    46    1
    76     6     7    1
    77     2     1    1
    78    49    46    1
    79    46    45    1
    80    40    39    1
    81     7     1    1
    82    39    38    1
    83    38    35    1
    84    35    36    1
    85    35    34    1
    86    36    37    2
