@<TRIPOS>MOLECULE
tmp/6chpA00.pdb
 174 167 0 0 0
SMALL
GASTEIGER

@<TRIPOS>ATOM
      1  N         11.6550  159.3390   41.2510 N.3     7  PRO7       -0.2102
      2  CA        11.2720  158.7950   39.9550 C.3     7  PRO7        0.1504
      3  C         12.4330  158.2850   39.1030 C.2     7  PRO7        0.2576
      4  O         13.5910  158.6450   39.3220 O.2     7  PRO7       -0.2718
      5  CB        10.5990  159.9920   39.3050 C.3     7  PRO7        0.0282
      6  CG        11.4620  161.1640   39.7670 C.3     7  PRO7        0.0208
      7  CD        11.9700  160.7820   41.1460 C.3     7  PRO7        0.0893
      8  N         12.1020  157.4340   38.1380 N.am    8  GLY8       -0.1943
      9  CA        13.0870  156.8810   37.2220 C.3     8  GLY8        0.2014
     10  C         12.4840  155.7570   36.4140 C.2     8  GLY8        0.2639
     11  O         11.2910  155.4730   36.5400 O.2     8  GLY8       -0.2714
     12  N         13.2880  155.1270   35.5690 N.am    9  THR9       -0.1950
     13  CA        12.8680  153.9920   34.7360 C.3     9  THR9        0.1897
     14  C         13.0760  152.6620   35.4950 C.2     9  THR9        0.2313
     15  O         12.3330  151.6990   35.2660 O.2     9  THR9       -0.2863
     16  CB        13.5640  154.1060   33.3580 C.3     9  THR9        0.1794
     17  OG1       13.0650  155.3010   32.7330 O.3     9  THR9       -0.2208
     18  CG2       13.3090  152.9190   32.4550 C.3     9  THR9        0.0378
     19  N          8.5430  155.0180   35.7330 N.3    36  ALA36      -0.1231
     20  CA         7.9790  155.4330   34.4490 C.3    36  ALA36       0.1694
     21  C          7.8440  154.2680   33.4880 C.2    36  ALA36       0.2592
     22  O          8.7920  153.4890   33.3540 O.2    36  ALA36      -0.2718
     23  CB         8.8720  156.4840   33.8190 C.3    36  ALA36       0.0304
     24  N          6.7010  154.1580   32.7800 N.am   37  ALA37      -0.1966
     25  CA         6.5240  153.0890   31.7790 C.3    37  ALA37       0.1728
     26  C          7.6880  153.1360   30.7430 C.2    37  ALA37       0.2617
     27  O          8.2380  152.0900   30.3920 O.2    37  ALA37      -0.2715
     28  CB         5.1680  153.2440   31.0770 C.3    37  ALA37       0.0334
     29  N          8.1090  154.3610   30.3330 N.am   38  SER38      -0.1936
     30  CA         9.2330  154.6370   29.4060 C.3    38  SER38       0.2040
     31  C          9.2550  153.7720   28.1230 C.2    38  SER38       0.2485
     32  O         10.3260  153.2510   27.7950 O.2    38  SER38      -0.2729
     33  CB        10.5800  154.5020   30.1250 C.3    38  SER38       0.2129
     34  OG        10.5470  154.8720   31.4920 O.3    38  SER38      -0.2179
     35  N          8.1450  153.6050   27.3620 N.am   39  PRO39      -0.2726
     36  CA         8.2190  152.7550   26.1510 C.3    39  PRO39       0.1402
     37  C          9.2630  153.1670   25.1080 C.2    39  PRO39       0.2269
     38  O          9.7720  152.2930   24.4060 O.2    39  PRO39      -0.2865
     39  CB         6.7970  152.8100   25.5840 C.3    39  PRO39       0.0296
     40  CG         6.1940  154.0650   26.1770 C.3    39  PRO39       0.0237
     41  CD         6.7800  154.1450   27.5490 C.3    39  PRO39       0.0939
     42  N         12.3250  154.1130   25.5920 N.3    41  LYS41      -0.1245
     43  CA        13.6470  153.6070   25.9580 C.3    41  LYS41       0.1561
     44  C         13.7450  152.0990   25.7210 C.2    41  LYS41       0.2260
     45  O         14.8210  151.5260   25.9300 O.2    41  LYS41      -0.2867
     46  CB        13.9970  153.9610   27.4190 C.3    41  LYS41       0.0271
     47  CG        14.1020  155.4610   27.6730 C.3    41  LYS41       0.0035
     48  CD        14.6920  155.7700   29.0380 C.3    41  LYS41       0.0206
     49  CE        14.6980  157.2540   29.3110 C.3    41  LYS41       0.1093
     50  NZ        15.3000  157.5710   30.6310 N.3    41  LYS41      -0.1314
     51  N          3.8890  154.8890   36.5080 N.3    69  PHE69      -0.1227
     52  CA         3.2130  156.0600   35.9220 C.3    69  PHE69       0.1736
     53  C          3.5670  156.2580   34.4550 C.2    69  PHE69       0.2596
     54  O          4.6640  155.8930   34.0260 O.2    69  PHE69      -0.2718
     55  CB         3.5130  157.3560   36.7250 C.3    69  PHE69       0.0547
     56  CG         4.8950  157.9580   36.5450 C.ar   69  PHE69      -0.0202
     57  CD1        5.9930  157.4350   37.2220 C.ar   69  PHE69      -0.0042
     58  CD2        5.0790  159.1080   35.7760 C.ar   69  PHE69      -0.0042
     59  CE1        7.2570  158.0080   37.0820 C.ar   69  PHE69      -0.0003
     60  CE2        6.3440  159.6830   35.6400 C.ar   69  PHE69      -0.0003
     61  CZ         7.4300  159.1170   36.2820 C.ar   69  PHE69      -0.0000
     62  N          2.6680  156.8960   33.7080 N.am   70  SER70      -0.1938
     63  CA         2.9440  157.2540   32.3170 C.3    70  SER70       0.2055
     64  C          2.7360  158.7760   32.1270 C.2    70  SER70       0.2643
     65  O          2.8600  159.2800   31.0110 O.2    70  SER70      -0.2714
     66  CB         2.0450  156.4680   31.3660 C.3    70  SER70       0.2130
     67  OG         0.6960  156.8820   31.5200 O.3    70  SER70      -0.2179
     68  N          2.3680  159.4900   33.2040 N.am   71  ASP71      -0.1957
     69  CA         2.0760  160.9340   33.1350 C.3    71  ASP71       0.1840
     70  C          3.3240  161.7830   33.0470 C.2    71  ASP71       0.2622
     71  O          4.4240  161.2920   33.2850 O.2    71  ASP71      -0.2715
     72  CB         1.3530  161.3620   34.4280 C.3    71  ASP71       0.1450
     73  CG        -0.0390  160.7880   34.5920 C.2    71  ASP71       0.3671
     74  OD1       -0.5870  160.2490   33.6020 O.co2  71  ASP71      -0.2456
     75  OD2       -0.6030  160.9420   35.6660 O.co2  71  ASP71      -0.2456
     76  N          3.1420  163.0830   32.7960 N.am   72  LEU72      -0.1963
     77  CA         4.2180  164.0760   32.8760 C.3    72  LEU72       0.1728
     78  C          4.6800  164.0280   34.3590 C.2    72  LEU72       0.2616
     79  O          3.8200  163.9930   35.2650 O.2    72  LEU72      -0.2715
     80  CB         3.6360  165.4750   32.5670 C.3    72  LEU72       0.0311
     81  CG         4.6290  166.6510   32.6710 C.3    72  LEU72       0.0022
     82  CD1        5.6680  166.6080   31.5320 C.3    72  LEU72       0.0001
     83  CD2        3.8810  167.9980   32.6500 C.3    72  LEU72       0.0001
     84  N          6.0180  164.0290   34.5990 N.am   73  MET73      -0.1977
     85  CA         6.5910  163.9810   35.9630 C.3    73  MET73       0.1605
     86  C          5.9740  164.9980   36.9330 C.2    73  MET73       0.2287
     87  O          5.5340  164.6260   38.0310 O.2    73  MET73      -0.2864
     88  CB         8.1260  164.1800   35.9260 C.3    73  MET73       0.0413
     89  CG         8.7800  164.1000   37.3080 C.3    73  MET73       0.0598
     90  SD         8.9820  162.3540   37.7080 S.3    73  MET73      -0.1393
     91  CE         7.5860  162.0920   38.8810 C.3    73  MET73       0.0692
     92  N         11.2610  166.2260   44.9840 N.3    85  LEU85      -0.1245
     93  CA        11.6450  165.2680   43.9680 C.3    85  LEU85       0.1561
     94  C         13.1040  164.8360   44.2280 C.2    85  LEU85       0.2260
     95  O         14.0160  165.6550   44.1570 O.2    85  LEU85      -0.2867
     96  CB        11.5010  165.9430   42.6090 C.3    85  LEU85       0.0270
     97  CG        11.1580  165.0360   41.4630 C.3    85  LEU85       0.0019
     98  CD1       10.5890  165.8360   40.3200 C.3    85  LEU85       0.0001
     99  CD2       12.3810  164.3620   40.9810 C.3    85  LEU85       0.0001
    100  N         16.6300  162.9260   43.3190 N.3    87  ARG87      -0.1245
    101  CA        17.4550  162.4300   42.1930 C.3    87  ARG87       0.1563
    102  C         18.8950  162.2030   42.6670 C.2    87  ARG87       0.2260
    103  O         19.4610  163.0590   43.3340 O.2    87  ARG87      -0.2867
    104  CB        17.3990  163.3410   40.9400 C.3    87  ARG87       0.0307
    105  CG        16.0560  163.3270   40.1710 C.3    87  ARG87       0.0489
    106  CD        15.7580  162.0300   39.4270 C.3    87  ARG87       0.2205
    107  NE        16.4470  161.9520   38.1350 N.pl3  87  ARG87      -0.0865
    108  CZ        16.4140  160.8990   37.3210 C.cat  87  ARG87       0.5346
    109  NH1       15.7180  159.8130   37.6510 N.pl3  87  ARG87       0.1354
    110  NH2       17.0690  160.9250   36.1670 N.pl3  87  ARG87       0.1354
    111  N         22.0380  167.3120   32.7290 N.3    97  TYR97      -0.1227
    112  CA        20.6830  166.9270   32.3180 C.3    97  TYR97       0.1736
    113  C         19.6890  167.1270   33.4700 C.2    97  TYR97       0.2595
    114  O         18.5910  167.6180   33.2250 O.2    97  TYR97      -0.2718
    115  CB        20.6230  165.4830   31.7610 C.3    97  TYR97       0.0548
    116  CG        19.2540  165.0940   31.2340 C.ar   97  TYR97      -0.0200
    117  CD1       18.5840  165.8960   30.3110 C.ar   97  TYR97      -0.0009
    118  CD2       18.6270  163.9220   31.6570 C.ar   97  TYR97      -0.0009
    119  CE1       17.3150  165.5510   29.8350 C.ar   97  TYR97       0.0417
    120  CE2       17.3780  163.5460   31.1560 C.ar   97  TYR97       0.0417
    121  CZ        16.7170  164.3750   30.2610 C.ar   97  TYR97       0.1957
    122  OH        15.4750  164.0270   29.7760 O.3    97  TYR97      -0.2866
    123  N         20.0940  166.8220   34.7250 N.am   98  GLU98      -0.1979
    124  CA        19.2470  167.0330   35.9190 C.3    98  GLU98       0.1602
    125  C         18.9510  168.5160   36.1030 C.2    98  GLU98       0.2287
    126  O         17.8290  168.8650   36.4720 O.2    98  GLU98      -0.2864
    127  CB        19.8910  166.4650   37.1990 C.3    98  GLU98       0.0415
    128  CG        20.0280  164.9480   37.2340 C.3    98  GLU98       0.1163
    129  CD        18.7590  164.1210   37.1240 C.2    98  GLU98       0.3649
    130  OE1       17.6650  164.6190   37.4780 O.co2  98  GLU98      -0.2457
    131  OE2       18.8700  162.9540   36.6890 O.co2  98  GLU98      -0.2457
    132  N         16.1380  169.3770   33.6180 N.3   101  LEU101     -0.1231
    133  CA        14.8680  168.8380   34.1060 C.3   101  LEU101      0.1693
    134  C         14.3700  169.6370   35.2920 C.2   101  LEU101      0.2591
    135  O         13.1860  169.9700   35.3440 O.2   101  LEU101     -0.2718
    136  CB        14.9900  167.3390   34.4960 C.3   101  LEU101      0.0284
    137  CG        15.3770  166.3430   33.3910 C.3   101  LEU101      0.0019
    138  CD1       15.6430  164.9800   33.9780 C.3   101  LEU101      0.0001
    139  CD2       14.2720  166.2110   32.3280 C.3   101  LEU101      0.0001
    140  N         15.2700  169.9950   36.2320 N.am  102  ALA102     -0.1980
    141  CA        14.8550  170.7820   37.3960 C.3   102  ALA102      0.1597
    142  C         14.3170  172.1630   36.9930 C.2   102  ALA102      0.2287
    143  O         13.2950  172.5740   37.5400 O.2   102  ALA102     -0.2864
    144  CB        15.9980  170.9180   38.3960 C.3   102  ALA102      0.0319
    145  N         12.9770  172.9800   34.0610 N.3   104  MET104     -0.1230
    146  CA        11.7180  172.7270   33.3470 C.3   104  MET104      0.1702
    147  C         10.5910  172.4640   34.3640 C.2   104  MET104      0.2592
    148  O          9.5500  173.1100   34.2940 O.2   104  MET104     -0.2718
    149  CB        11.8610  171.5550   32.3480 C.3   104  MET104      0.0401
    150  CG        10.5640  171.2280   31.6110 C.3   104  MET104      0.0596
    151  SD         9.8470  172.6140   30.6560 S.3   104  MET104     -0.1393
    152  CE        10.9310  172.5670   29.1840 C.3   104  MET104      0.0692
    153  N         10.8370  171.5800   35.3430 N.am  105  ASN105     -0.1974
    154  CA         9.8660  171.2500   36.3910 C.3   105  ASN105      0.1688
    155  C          9.4660  172.4490   37.2360 C.2   105  ASN105      0.2292
    156  O          8.3400  172.4890   37.7400 O.2   105  ASN105     -0.2864
    157  CB        10.3940  170.1430   37.2780 C.3   105  ASN105      0.1181
    158  CG        10.3140  168.7940   36.6400 C.2   105  ASN105      0.2629
    159  OD1        9.4870  168.5200   35.7690 O.2   105  ASN105     -0.2716
    160  ND2       11.1520  167.9090   37.0900 N.am  105  ASN105     -0.0877
    161  N          6.8380  174.1370   35.2880 N.3   108  LEU108     -0.1245
    162  CA         5.6030  173.3300   35.3250 C.3   108  LEU108      0.1561
    163  C          4.9400  173.2750   36.7140 C.2   108  LEU108      0.2260
    164  O          3.7190  173.1980   36.8090 O.2   108  LEU108     -0.2867
    165  CB         5.9020  171.8910   34.8380 C.3   108  LEU108      0.0270
    166  CG         6.4330  171.7340   33.3970 C.3   108  LEU108      0.0019
    167  CD1        7.1430  170.4120   33.2160 C.3   108  LEU108      0.0001
    168  CD2        5.3090  171.8770   32.3580 C.3   108  LEU108      0.0001
    169  N         13.5290  170.1220   43.6080 N.3   114  SER114     -0.1217
    170  CA        14.4760  169.0780   43.2150 C.3   114  SER114      0.1889
    171  C         15.5540  168.9490   44.3190 C.2   114  SER114      0.2288
    172  O         16.1500  169.9480   44.7300 O.2   114  SER114     -0.2866
    173  CB        15.1270  169.4220   41.8790 C.3   114  SER114      0.2089
    174  OG        14.8110  168.4680   40.8760 O.3   114  SER114     -0.2183
@<TRIPOS>BOND
     1    38    37    2
     2    37    36    1
     3    39    36    1
     4    39    40    1
     5    42    43    1
     6    44    45    2
     7    44    43    1
     8    43    46    1
     9    36    35    1
    10    40    41    1
    11    35    41    1
    12    35    31   am
    13    46    47    1
    14    47    48    1
    15    32    31    2
    16    31    30    1
    17    48    49    1
    18   152   151    1
    19    49    50    1
    20    30    33    1
    21    30    29    1
    22   122   121    1
    23   119   121   ar
    24   119   117   ar
    25    33    34    1
    26   121   120   ar
    27   117   116   ar
    28    29    26   am
    29    27    26    2
    30   151   150    1
    31    26    25    1
    32    65    64    2
    33    28    25    1
    34   120   118   ar
    35   116   118   ar
    36   116   115    1
    37    66    67    1
    38    66    63    1
    39    82    81    1
    40   150   149    1
    41   115   112    1
    42    25    24    1
    43    64    63    1
    44    64    68   am
    45    63    62    1
    46   112   111    1
    47   112   113    1
    48   139   137    1
    49   149   146    1
    50   168   166    1
    51    18    16    1
    52    80    81    1
    53    80    77    1
    54    83    81    1
    55    17    16    1
    56    24    21   am
    57    76    77    1
    58    76    70   am
    59    77    78    1
    60    70    69    1
    61    70    71    2
    62    69    68    1
    63    69    72    1
    64   167   166    1
    65   114   113    2
    66   146   145    1
    67   146   147    1
    68    22    21    2
    69    16    13    1
    70   137   138    1
    71   137   136    1
    72   166   165    1
    73   113   123   am
    74    21    20    1
    75    74    73   ar
    76   132   133    1
    77    62    53   am
    78    23    20    1
    79    54    53    2
    80   133   136    1
    81   133   134    1
    82   148   147    2
    83    78    84   am
    84    78    79    2
    85   147   153   am
    86    72    73    1
    87    20    19    1
    88    53    52    1
    89    73    75   ar
    90    84    85    1
    91   123   124    1
    92    13    14    1
    93    13    12    1
    94   165   162    1
    95    15    14    2
    96   161   162    1
    97   134   135    2
    98   134   140   am
    99   162   163    1
   100   153   154    1
   101    12    10   am
   102    60    58   ar
   103    60    61   ar
   104   159   158    2
   105    58    56   ar
   106   124   125    1
   107   124   127    1
   108    52    51    1
   109    52    55    1
   110    88    85    1
   111    88    89    1
   112    85    86    1
   113   125   126    2
   114   110   108    1
   115   140   141    1
   116    61    59   ar
   117   154   155    1
   118   154   157    1
   119    10    11    2
   120    10     9    1
   121    56    55    1
   122    56    57   ar
   123   158   160   am
   124   158   157    1
   125   131   129   ar
   126   163   164    2
   127    86    87    2
   128   142   141    1
   129   142   143    2
   130    59    57   ar
   131   129   128    1
   132   129   130   ar
   133   127   128    1
   134     9     8    1
   135   155   156    2
   136    89    90    1
   137   108   109    1
   138   108   107    2
   139   141   144    1
   140    90    91    1
   141   107   106    1
   142     8     3   am
   143     3     4    2
   144     3     2    1
   145     5     6    1
   146     5     2    1
   147   106   105    1
   148     6     7    1
   149     2     1    1
   150   105   104    1
   151    98    97    1
   152   174   173    1
   153   104   101    1
   154    99    97    1
   155     7     1    1
   156    97    96    1
   157   173   170    1
   158   101   102    1
   159   101   100    1
   160    96    93    1
   161   102   103    2
   162   170   169    1
   163   170   171    1
   164    93    94    1
   165    93    92    1
   166    95    94    2
   167   171   172    2
