@<TRIPOS>MOLECULE
tmp/6chqA00.pdb
 142 134 0 0 0
SMALL
GASTEIGER

@<TRIPOS>ATOM
      1  N         25.4340  173.8160   55.2100 N.3     8  PRO8       -0.2102
      2  CA        26.6840  174.5160   55.5290 C.3     8  PRO8        0.1504
      3  C         27.3080  175.2670   54.3710 C.2     8  PRO8        0.2576
      4  O         27.0900  174.9520   53.1890 O.2     8  PRO8       -0.2718
      5  CB        27.5950  173.3880   55.9930 C.3     8  PRO8        0.0282
      6  CG        27.1830  172.2110   55.1090 C.3     8  PRO8        0.0208
      7  CD        25.6750  172.3760   54.9280 C.3     8  PRO8        0.0893
      8  N         28.1160  176.2500   54.7130 N.am    9  GLY9       -0.1943
      9  CA        28.7930  177.0310   53.6910 C.3     9  GLY9        0.2014
     10  C         29.5230  178.1860   54.3240 C.2     9  GLY9        0.2639
     11  O         29.4400  178.3980   55.5340 O.2     9  GLY9       -0.2714
     12  N         30.2420  178.9270   53.5120 N.am   10  THR10      -0.1950
     13  CA        30.9340  180.1080   54.0320 C.3    10  THR10       0.1897
     14  C         29.9540  181.2910   53.9660 C.2    10  THR10       0.2313
     15  O         30.0690  182.2020   54.7640 O.2    10  THR10      -0.2863
     16  CB        32.2280  180.3310   53.2490 C.3    10  THR10       0.1794
     17  OG1       31.8950  180.4410   51.8670 O.3    10  THR10      -0.2208
     18  CG2       33.1930  179.1930   53.4260 C.3    10  THR10       0.0378
     19  N         30.4300  178.6370   58.2380 N.3    37  ALA37      -0.1245
     20  CA        31.8090  178.2850   58.6010 C.3    37  ALA37       0.1562
     21  C         32.6190  179.5070   59.0320 C.2    37  ALA37       0.2260
     22  O         32.5980  180.5470   58.3510 O.2    37  ALA37      -0.2867
     23  CB        32.4940  177.6000   57.4330 C.3    37  ALA37       0.0290
     24  N         35.7130  179.7880   58.8810 N.3    39  SER39      -0.1217
     25  CA        36.6490  179.7380   57.7430 C.3    39  SER39       0.1889
     26  C         37.5430  180.9720   57.4520 C.2    39  SER39       0.2288
     27  O         37.3850  181.6090   56.4010 O.2    39  SER39      -0.2866
     28  CB        35.8860  179.3940   56.4660 C.3    39  SER39       0.2089
     29  OG        34.9840  180.4320   56.1120 O.3    39  SER39      -0.2183
     30  N         40.6090  181.0300   53.7140 N.3    42  LYS42      -0.1245
     31  CA        40.6770  181.8230   52.4950 C.3    42  LYS42       0.1561
     32  C         39.9900  183.1410   52.8410 C.2    42  LYS42       0.2260
     33  O         38.8420  183.3670   52.4430 O.2    42  LYS42      -0.2867
     34  CB        39.9950  181.0930   51.3220 C.3    42  LYS42       0.0271
     35  CG        38.5010  180.7850   51.4870 C.3    42  LYS42       0.0035
     36  CD        37.9220  180.2170   50.1800 C.3    42  LYS42       0.0206
     37  CE        36.4190  179.9580   50.2970 C.3    42  LYS42       0.1093
     38  NZ        35.6650  181.1880   50.6270 N.3    42  LYS42      -0.1314
     39  N         29.9440  177.9190   62.8890 N.3    70  PHE70      -0.1241
     40  CA        30.6350  176.7180   63.3810 C.3    70  PHE70       0.1605
     41  C         32.0680  176.7640   62.9070 C.2    70  PHE70       0.2264
     42  O         32.3360  177.2990   61.8330 O.2    70  PHE70      -0.2867
     43  CB        29.9380  175.4240   62.9430 C.3    70  PHE70       0.0534
     44  CG        30.1060  175.0870   61.4800 C.ar   70  PHE70      -0.0203
     45  CD1       29.3580  175.7370   60.5110 C.ar   70  PHE70      -0.0042
     46  CD2       31.0060  174.1030   61.0770 C.ar   70  PHE70      -0.0042
     47  CE1       29.5240  175.4350   59.1560 C.ar   70  PHE70      -0.0003
     48  CE2       31.1650  173.7960   59.7270 C.ar   70  PHE70      -0.0003
     49  CZ        30.4170  174.4590   58.7780 C.ar   70  PHE70      -0.0000
     50  N         34.1800  173.8190   63.3420 N.3    72  ASP72      -0.1225
     51  CA        34.7020  172.4670   63.1950 C.3    72  ASP72       0.1805
     52  C         34.4570  171.9330   61.7900 C.2    72  ASP72       0.2598
     53  O         33.9210  172.6500   60.9480 O.2    72  ASP72      -0.2718
     54  CB        34.0900  171.5370   64.2580 C.3    72  ASP72       0.1424
     55  CG        32.5860  171.4360   64.2980 C.2    72  ASP72       0.3668
     56  OD1       31.9140  172.3380   63.7590 O.co2  72  ASP72      -0.2456
     57  OD2       32.0780  170.5370   64.9920 O.co2  72  ASP72      -0.2456
     58  N         34.8510  170.6680   61.5320 N.am   73  LEU73      -0.1966
     59  CA        34.5290  169.9890   60.2820 C.3    73  LEU73       0.1728
     60  C         33.0250  170.0000   60.2520 C.2    73  LEU73       0.2619
     61  O         32.3980  169.8070   61.3030 O.2    73  LEU73      -0.2715
     62  CB        34.8970  168.4910   60.3760 C.3    73  LEU73       0.0311
     63  CG        36.1300  167.9500   59.7440 C.3    73  LEU73       0.0022
     64  CD1       36.0740  166.4800   59.7810 C.3    73  LEU73       0.0001
     65  CD2       36.3350  168.4340   58.3470 C.3    73  LEU73       0.0001
     66  N         32.4000  170.1310   59.0260 N.am   74  MET74      -0.1917
     67  CA        30.9260  170.1640   58.8100 C.3    74  MET74       0.1952
     68  C         30.2290  168.8770   59.3230 C.2    74  MET74       0.2658
     69  O         29.0780  168.9340   59.7730 O.2    74  MET74      -0.2711
     70  CB        30.4910  170.5330   57.3550 C.2    74  MET74       0.0110
     71  CG        30.6520  169.4160   56.2760 C.2    74  MET74       0.0285
     72  SD        29.9910  169.7430   54.5900 S.3    74  MET74      -0.1125
     73  CE        31.0310  171.1090   54.0700 C.3    74  MET74       0.0742
     74  N         30.9400  167.7500   59.3050 N.am   75  ALA75      -0.1974
     75  CA        30.4000  166.4850   59.8400 C.3    75  ALA75       0.1597
     76  C         30.3900  166.4980   61.3820 C.2    75  ALA75       0.2287
     77  O         29.4320  166.0090   61.9780 O.2    75  ALA75      -0.2864
     78  CB        31.2110  165.2950   59.3400 C.3    75  ALA75       0.0319
     79  N         23.2310  170.1670   50.1040 N.3    88  ARG88      -0.1245
     80  CA        24.2420  170.7290   49.2040 C.3    88  ARG88       0.1563
     81  C         23.5050  171.2910   48.0190 C.2    88  ARG88       0.2260
     82  O         22.5760  170.6630   47.5380 O.2    88  ARG88      -0.2867
     83  CB        25.2260  169.6520   48.6900 C.3    88  ARG88       0.0307
     84  CG        26.0830  168.9940   49.7670 C.3    88  ARG88       0.0489
     85  CD        27.0220  169.9780   50.4530 C.3    88  ARG88       0.2205
     86  NE        28.0100  170.5350   49.5300 N.pl3  88  ARG88      -0.0865
     87  CZ        28.8340  171.5290   49.8330 C.cat  88  ARG88       0.5346
     88  NH1       28.7800  172.1010   51.0240 N.pl3  88  ARG88       0.1354
     89  NH2       29.7320  171.9450   48.9520 N.pl3  88  ARG88       0.1354
     90  N         34.0820  167.4940   43.0290 N.3    98  TYR98      -0.1241
     91  CA        34.3350  167.9480   44.3970 C.3    98  TYR98       0.1605
     92  C         33.1670  167.4980   45.2770 C.2    98  TYR98       0.2264
     93  O         33.3910  167.0270   46.3930 O.2    98  TYR98      -0.2867
     94  CB        34.4800  169.4880   44.4100 C.3    98  TYR98       0.0534
     95  CG        34.5880  170.1320   45.7740 C.ar   98  TYR98      -0.0201
     96  CD1       33.4480  170.4410   46.5150 C.ar   98  TYR98      -0.0009
     97  CD2       35.8160  170.5600   46.2670 C.ar   98  TYR98      -0.0009
     98  CE1       33.5360  171.0590   47.7590 C.ar   98  TYR98       0.0417
     99  CE2       35.9120  171.2270   47.4900 C.ar   98  TYR98       0.0417
    100  CZ        34.7720  171.4480   48.2460 C.ar   98  TYR98       0.1957
    101  OH        34.8560  172.0780   49.4630 O.3    98  TYR98      -0.2866
    102  N         33.5140  163.9090   46.1270 N.3   101  GLN101     -0.1231
    103  CA        34.5580  163.6820   47.1390 C.3   101  GLN101      0.1698
    104  C         34.0110  164.0100   48.4970 C.2   101  GLN101      0.2592
    105  O         34.1660  163.2240   49.4390 O.2   101  GLN101     -0.2718
    106  CB        35.7500  164.6290   46.9400 C.3   101  GLN101      0.0381
    107  CG        36.7350  164.2210   45.9000 C.3   101  GLN101      0.0905
    108  CD        37.9740  165.0630   46.0610 C.2   101  GLN101      0.2608
    109  OE1       38.7820  164.8470   46.9660 O.2   101  GLN101     -0.2717
    110  NE2       38.1330  166.0580   45.2110 N.am  101  GLN101     -0.0878
    111  N         33.4040  165.2100   48.6060 N.am  102  LEU102     -0.1980
    112  CA        32.8780  165.7150   49.8590 C.3   102  LEU102      0.1596
    113  C         31.8370  164.8010   50.4480 C.2   102  LEU102      0.2287
    114  O         31.9030  164.4880   51.6460 O.2   102  LEU102     -0.2864
    115  CB        32.3040  167.1330   49.6690 C.3   102  LEU102      0.0297
    116  CG        31.7430  167.7930   50.9260 C.3   102  LEU102      0.0022
    117  CD1       32.8440  168.0110   51.9850 C.3   102  LEU102      0.0001
    118  CD2       31.0960  169.1430   50.5870 C.3   102  LEU102      0.0001
    119  N         33.3300  161.5260   51.6490 N.3   105  MET105     -0.1230
    120  CA        34.1020  161.7580   52.8780 C.3   105  MET105      0.1702
    121  C         33.1640  162.0060   54.0720 C.2   105  MET105      0.2592
    122  O         33.3660  161.4320   55.1400 O.2   105  MET105     -0.2718
    123  CB        35.1200  162.8950   52.6950 C.3   105  MET105      0.0401
    124  CG        35.9230  163.2120   53.9810 C.3   105  MET105      0.0596
    125  SD        36.8720  161.7770   54.5640 S.3   105  MET105     -0.1393
    126  CE        38.2280  161.8390   53.4160 C.3   105  MET105      0.0692
    127  N         32.1180  162.8420   53.8920 N.am  106  ASN106     -0.1974
    128  CA        31.1280  163.0770   54.9430 C.3   106  ASN106      0.1688
    129  C         30.4650  161.7540   55.3690 C.2   106  ASN106      0.2292
    130  O         30.1850  161.5600   56.5550 O.2   106  ASN106     -0.2864
    131  CB        30.0920  164.1020   54.4580 C.3   106  ASN106      0.1181
    132  CG        30.6390  165.5060   54.5910 C.2   106  ASN106      0.2629
    133  OD1       31.4470  165.7980   55.4720 O.2   106  ASN106     -0.2716
    134  ND2       30.2250  166.4170   53.7310 N.am  106  ASN106     -0.0877
    135  N         32.8630  159.8920   57.5930 N.3   109  LEU109     -0.1245
    136  CA        32.9920  160.5310   58.9070 C.3   109  LEU109      0.1561
    137  C         31.7100  160.3690   59.7330 C.2   109  LEU109      0.2260
    138  O         31.7630  160.2240   60.9580 O.2   109  LEU109     -0.2867
    139  CB        33.2910  162.0300   58.7220 C.3   109  LEU109      0.0270
    140  CG        34.6210  162.4040   58.0330 C.3   109  LEU109      0.0019
    141  CD1       34.5990  163.8430   57.5710 C.3   109  LEU109      0.0001
    142  CD2       35.7960  162.1500   58.9600 C.3   109  LEU109      0.0001
@<TRIPOS>BOND
     1    90    91    1
     2    91    94    1
     3    91    92    1
     4    94    95    1
     5   110   108   am
     6    92    93    2
     7    95    97   ar
     8    95    96   ar
     9   107   108    1
    10   107   106    1
    11   108   109    2
    12   102   103    1
    13    97    99   ar
    14    96    98   ar
    15   106   103    1
    16   103   104    1
    17    99   100   ar
    18    82    81    2
    19    98   100   ar
    20    81    80    1
    21   100   101    1
    22   104   111   am
    23   104   105    2
    24   111   112    1
    25    83    80    1
    26    83    84    1
    27    89    87    1
    28    80    79    1
    29    86    87    2
    30    86    85    1
    31   115   112    1
    32   115   116    1
    33    84    85    1
    34    87    88    1
    35   112   113    1
    36    36    37    1
    37    36    35    1
    38    37    38    1
    39   113   114    2
    40   118   116    1
    41   116   117    1
    42    34    35    1
    43    34    31    1
    44   119   120    1
    45    17    16    1
    46    33    32    2
    47    31    32    1
    48    31    30    1
    49   123   120    1
    50   123   124    1
    51   120   121    1
    52     4     3    2
    53    16    18    1
    54    16    13    1
    55   126   125    1
    56    12    13    1
    57    12    10   am
    58     9    10    1
    59     9     8    1
    60   134   132   am
    61   127   121   am
    62   127   128    1
    63    14    13    1
    64    14    15    2
    65   124   125    1
    66    73    72    1
    67   121   122    2
    68    10    11    2
    69     3     8   am
    70     3     2    1
    71   131   132    1
    72   131   128    1
    73    72    71    1
    74   132   133    2
    75     7     6    1
    76     7     1    1
    77   128   129    1
    78     6     5    1
    79     1     2    1
    80   129   130    2
    81     2     5    1
    82    29    28    1
    83    71    70    2
    84    27    26    2
    85    28    25    1
    86    70    67    1
    87    23    20    1
    88    26    25    1
    89   141   140    1
    90   135   136    1
    91    25    24    1
    92   140   139    1
    93   140   142    1
    94    19    20    1
    95    65    63    1
    96    22    21    2
    97    20    21    1
    98   139   136    1
    99    49    47   ar
   100    49    48   ar
   101    67    66    1
   102    67    68    1
   103   136   137    1
   104    66    60   am
   105    47    45   ar
   106    74    68   am
   107    74    75    1
   108    68    69    2
   109    78    75    1
   110    48    46   ar
   111   137   138    2
   112    63    64    1
   113    63    62    1
   114    75    76    1
   115    60    59    1
   116    60    61    2
   117    59    62    1
   118    59    58    1
   119    45    44   ar
   120    53    52    2
   121    46    44   ar
   122    76    77    2
   123    44    43    1
   124    58    52   am
   125    52    51    1
   126    42    41    2
   127    39    40    1
   128    41    40    1
   129    43    40    1
   130    51    50    1
   131    51    54    1
   132    56    55   ar
   133    54    55    1
   134    55    57   ar
