@<TRIPOS>MOLECULE
tmp/6chqB00.pdb
 130 122 0 0 0
SMALL
GASTEIGER

@<TRIPOS>ATOM
      1  N         11.3600  157.5970   40.7740 N.3     7  PRO7       -0.2102
      2  CA        10.9530  157.0400   39.4890 C.3     7  PRO7        0.1504
      3  C         12.1230  156.5550   38.6600 C.2     7  PRO7        0.2576
      4  O         13.2610  157.0070   38.8140 O.2     7  PRO7       -0.2718
      5  CB        10.2810  158.2210   38.8260 C.3     7  PRO7        0.0282
      6  CG        11.1280  159.3870   39.2760 C.3     7  PRO7        0.0208
      7  CD        11.5850  159.0600   40.6720 C.3     7  PRO7        0.0893
      8  N         11.8440  155.6370   37.7630 N.am    8  GLY8       -0.1943
      9  CA        12.9010  155.1220   36.9080 C.3     8  GLY8        0.2014
     10  C         12.3840  153.9960   36.0440 C.2     8  GLY8        0.2639
     11  O         11.2250  153.5970   36.1740 O.2     8  GLY8       -0.2714
     12  N         13.2240  153.4910   35.1620 N.am    9  THR9       -0.1950
     13  CA        12.8130  152.3740   34.3100 C.3     9  THR9        0.1897
     14  C         12.9960  151.0640   35.0620 C.2     9  THR9        0.2313
     15  O         12.2150  150.1360   34.8490 O.2     9  THR9       -0.2863
     16  CB        13.4920  152.4390   32.9380 C.3     9  THR9        0.1794
     17  OG1       13.0830  153.6530   32.2920 O.3     9  THR9       -0.2208
     18  CG2       13.1340  151.2570   32.0490 C.3     9  THR9        0.0378
     19  N          8.5030  153.4150   35.4490 N.3    36  ALA36      -0.1245
     20  CA         7.9850  153.9200   34.1820 C.3    36  ALA36       0.1562
     21  C          7.9360  152.7890   33.1790 C.2    36  ALA36       0.2260
     22  O          8.9030  152.0230   33.0610 O.2    36  ALA36      -0.2867
     23  CB         8.8880  155.0420   33.6430 C.3    36  ALA36       0.0290
     24  N          8.2470  153.0050   29.9770 N.3    38  SER38      -0.1217
     25  CA         9.3760  153.2910   29.0730 C.3    38  SER38       0.1889
     26  C          9.4070  152.4470   27.7640 C.2    38  SER38       0.2288
     27  O         10.4600  151.8960   27.4560 O.2    38  SER38      -0.2866
     28  CB        10.7030  153.1290   29.8240 C.3    38  SER38       0.2089
     29  OG        10.7590  153.9370   30.9890 O.3    38  SER38      -0.2183
     30  N         12.4570  152.7480   25.2770 N.3    41  LYS41      -0.1245
     31  CA        13.7170  152.1600   25.7060 C.3    41  LYS41       0.1561
     32  C         13.7770  150.6760   25.3790 C.2    41  LYS41       0.2260
     33  O         14.8380  150.0680   25.5680 O.2    41  LYS41      -0.2867
     34  CB        13.9250  152.3760   27.2130 C.3    41  LYS41       0.0271
     35  CG        14.0690  153.8420   27.6070 C.3    41  LYS41       0.0035
     36  CD        14.6000  153.9640   29.0190 C.3    41  LYS41       0.0206
     37  CE        14.8050  155.4000   29.4300 C.3    41  LYS41       0.1093
     38  NZ        15.0060  155.5220   30.8980 N.3    41  LYS41      -0.1314
     39  N          3.8270  153.0360   36.0580 N.3    69  PHE69      -0.1227
     40  CA         3.1050  154.1650   35.4800 C.3    69  PHE69       0.1736
     41  C          3.5160  154.4020   34.0340 C.2    69  PHE69       0.2596
     42  O          4.6690  154.1480   33.6670 O.2    69  PHE69      -0.2718
     43  CB         3.3190  155.4330   36.3230 C.3    69  PHE69       0.0547
     44  CG         4.6770  156.0660   36.1810 C.ar   69  PHE69      -0.0202
     45  CD1        5.7650  155.5820   36.8970 C.ar   69  PHE69      -0.0042
     46  CD2        4.8460  157.2170   35.4100 C.ar   69  PHE69      -0.0042
     47  CE1        7.0140  156.2000   36.8060 C.ar   69  PHE69      -0.0003
     48  CE2        6.0900  157.8410   35.3260 C.ar   69  PHE69      -0.0003
     49  CZ         7.1710  157.3230   36.0160 C.ar   69  PHE69      -0.0000
     50  N          2.6050  154.9430   33.2300 N.am   70  SER70      -0.1938
     51  CA         2.9180  155.2710   31.8380 C.3    70  SER70       0.2055
     52  C          2.6800  156.7720   31.6310 C.2    70  SER70       0.2643
     53  O          2.8920  157.2900   30.5410 O.2    70  SER70      -0.2714
     54  CB         2.0590  154.4510   30.8820 C.3    70  SER70       0.2130
     55  OG         0.6840  154.6720   31.1490 O.3    70  SER70      -0.2179
     56  N          2.2210  157.4560   32.6770 N.am   71  ASP71      -0.1957
     57  CA         1.9290  158.8930   32.6300 C.3    71  ASP71       0.1840
     58  C          3.1740  159.7260   32.5380 C.2    71  ASP71       0.2622
     59  O          4.3090  159.2360   32.6640 O.2    71  ASP71      -0.2715
     60  CB         1.1320  159.3130   33.8980 C.3    71  ASP71       0.1450
     61  CG        -0.1980  158.6040   34.1020 C.2    71  ASP71       0.3671
     62  OD1       -0.7240  158.0210   33.1200 O.co2  71  ASP71      -0.2456
     63  OD2       -0.7480  158.6930   35.2150 O.co2  71  ASP71      -0.2456
     64  N          2.9500  161.0140   32.3720 N.am   72  LEU72      -0.1963
     65  CA         3.9930  162.0110   32.4860 C.3    72  LEU72       0.1728
     66  C          4.4060  161.8930   33.9390 C.2    72  LEU72       0.2616
     67  O          3.5590  161.8110   34.8370 O.2    72  LEU72      -0.2715
     68  CB         3.3750  163.3880   32.2470 C.3    72  LEU72       0.0311
     69  CG         4.3360  164.5760   32.3040 C.3    72  LEU72       0.0022
     70  CD1        5.2050  164.6480   31.0410 C.3    72  LEU72       0.0001
     71  CD2        3.5680  165.8500   32.4440 C.3    72  LEU72       0.0001
     72  N          5.6910  161.8800   34.1570 N.am   73  MET73      -0.1977
     73  CA         6.2770  161.7650   35.4730 C.3    73  MET73       0.1605
     74  C          5.7420  162.7660   36.5160 C.2    73  MET73       0.2287
     75  O          5.3950  162.3680   37.6300 O.2    73  MET73      -0.2864
     76  CB         7.7750  161.8830   35.2970 C.3    73  MET73       0.0413
     77  CG         8.4560  160.6650   35.6850 C.3    73  MET73       0.0598
     78  SD         8.5370  160.7320   37.4510 S.3    73  MET73      -0.1393
     79  CE         9.2770  162.4110   37.6680 C.3    73  MET73       0.0692
     80  N         11.0360  164.3600   44.7030 N.3    85  LEU85      -0.1245
     81  CA        11.3750  163.4710   43.6060 C.3    85  LEU85       0.1561
     82  C         12.8420  163.0540   43.7790 C.2    85  LEU85       0.2260
     83  O         13.7420  163.8860   43.7250 O.2    85  LEU85      -0.2867
     84  CB        11.0960  164.2350   42.3070 C.3    85  LEU85       0.0270
     85  CG        11.7250  163.7860   41.0210 C.3    85  LEU85       0.0019
     86  CD1       11.4040  162.4060   40.7450 C.3    85  LEU85       0.0001
     87  CD2       11.2150  164.6490   39.8960 C.3    85  LEU85       0.0001
     88  N         16.3370  161.0440   42.8320 N.3    87  ARG87      -0.1245
     89  CA        17.1100  160.4580   41.7480 C.3    87  ARG87       0.1563
     90  C         18.5120  160.2010   42.2860 C.2    87  ARG87       0.2260
     91  O         18.9860  160.9200   43.1540 O.2    87  ARG87      -0.2867
     92  CB        17.1650  161.3780   40.5120 C.3    87  ARG87       0.0307
     93  CG        15.8150  161.5220   39.7350 C.3    87  ARG87       0.0489
     94  CD        15.4350  160.2720   38.9640 C.3    87  ARG87       0.2205
     95  NE        16.1540  160.1930   37.6940 N.pl3  87  ARG87      -0.0865
     96  CZ        15.9080  159.3040   36.7390 C.cat  87  ARG87       0.5346
     97  NH1       14.9620  158.3880   36.9020 N.pl3  87  ARG87       0.1354
     98  NH2       16.6110  159.3190   35.6150 N.pl3  87  ARG87       0.1354
     99  N         15.9280  166.9870   33.2770 N.3   101  LEU101     -0.1245
    100  CA        14.6930  166.3700   33.7220 C.3   101  LEU101      0.1561
    101  C         14.1730  167.1080   34.9250 C.2   101  LEU101      0.2260
    102  O         12.9860  167.3950   34.9650 O.2   101  LEU101     -0.2867
    103  CB        14.9050  164.8790   34.0550 C.3   101  LEU101      0.0270
    104  CG        15.2090  163.9510   32.8810 C.3   101  LEU101      0.0019
    105  CD1       15.5390  162.5430   33.3960 C.3   101  LEU101      0.0001
    106  CD2       14.0190  163.8500   31.9390 C.3   101  LEU101      0.0001
    107  N         12.6870  170.3960   33.9670 N.3   104  MET104     -0.1230
    108  CA        11.4290  170.1790   33.2640 C.3   104  MET104      0.1702
    109  C         10.3290  169.7900   34.2670 C.2   104  MET104      0.2592
    110  O          9.2250  170.3210   34.2050 O.2   104  MET104     -0.2718
    111  CB        11.5870  169.1380   32.1370 C.3   104  MET104      0.0401
    112  CG        10.2850  168.8970   31.3920 C.3   104  MET104      0.0596
    113  SD         9.6900  170.3510   30.5030 S.3   104  MET104     -0.1393
    114  CE        10.8480  170.3890   29.1190 C.3   104  MET104      0.0692
    115  N         10.6370  168.8890   35.2040 N.am  105  ASN105     -0.1974
    116  CA         9.6880  168.5000   36.2420 C.3   105  ASN105      0.1688
    117  C          9.2830  169.6920   37.1140 C.2   105  ASN105      0.2292
    118  O          8.1270  169.7830   37.5220 O.2   105  ASN105     -0.2864
    119  CB        10.2560  167.3660   37.0910 C.3   105  ASN105      0.1181
    120  CG        10.2130  166.0510   36.3480 C.2   105  ASN105      0.2629
    121  OD1        9.3110  165.8000   35.5710 O.2   105  ASN105     -0.2716
    122  ND2       11.1970  165.1870   36.5370 N.am  105  ASN105     -0.0877
    123  N          6.7750  171.7120   35.2300 N.3   108  LEU108     -0.1245
    124  CA         5.4760  171.0240   35.1810 C.3   108  LEU108      0.1561
    125  C          4.8180  170.9240   36.5710 C.2   108  LEU108      0.2260
    126  O          3.6020  170.8220   36.6620 O.2   108  LEU108     -0.2867
    127  CB         5.6570  169.6170   34.5930 C.3   108  LEU108      0.0270
    128  CG         6.1080  169.5070   33.1090 C.3   108  LEU108      0.0019
    129  CD1        6.8580  168.2070   32.8610 C.3   108  LEU108      0.0001
    130  CD2        4.9630  169.5940   32.2010 C.3   108  LEU108      0.0001
@<TRIPOS>BOND
     1    30    31    1
     2    32    33    2
     3    32    31    1
     4    31    34    1
     5    34    35    1
     6    27    26    2
     7    35    36    1
     8    26    25    1
     9    36    37    1
    10    25    28    1
    11    25    24    1
    12   114   113    1
    13    37    38    1
    14    28    29    1
    15   113   112    1
    16    53    52    2
    17    54    55    1
    18    54    51    1
    19    70    69    1
    20   112   111    1
    21    52    51    1
    22    52    56   am
    23    51    50    1
    24   106   104    1
    25    18    16    1
    26   111   108    1
    27   130   128    1
    28    68    69    1
    29    68    65    1
    30    17    16    1
    31    69    71    1
    32    64    65    1
    33    64    58   am
    34    65    66    1
    35    58    57    1
    36    58    59    2
    37    57    56    1
    38    57    60    1
    39   129   128    1
    40   104   105    1
    41   104   103    1
    42    16    13    1
    43    22    21    2
    44   128   127    1
    45    62    61   ar
    46    21    20    1
    47    50    41   am
    48   108   107    1
    49   108   109    1
    50    99   100    1
    51    23    20    1
    52    42    41    2
    53   100   103    1
    54   100   101    1
    55    60    61    1
    56    66    72   am
    57    66    67    2
    58    41    40    1
    59    61    63   ar
    60    72    73    1
    61    20    19    1
    62   110   109    2
    63   109   115   am
    64    13    14    1
    65    13    12    1
    66   127   124    1
    67    15    14    2
    68   101   102    2
    69    12    10   am
    70   124   123    1
    71   124   125    1
    72   115   116    1
    73    76    73    1
    74    76    77    1
    75    48    46   ar
    76    48    49   ar
    77    46    44   ar
    78    73    74    1
    79    40    39    1
    80    40    43    1
    81   121   120    2
    82    98    96    1
    83    77    78    1
    84    49    47   ar
    85    10    11    2
    86    10     9    1
    87    44    43    1
    88    44    45   ar
    89   116   119    1
    90   116   117    1
    91   120   122   am
    92   120   119    1
    93    74    75    2
    94   125   126    2
    95    96    97    1
    96    96    95    2
    97    47    45   ar
    98     9     8    1
    99   117   118    2
   100    78    79    1
   101    95    94    1
   102     8     3   am
   103     3     4    2
   104     3     2    1
   105     5     6    1
   106     5     2    1
   107    94    93    1
   108     6     7    1
   109     2     1    1
   110    93    92    1
   111    87    85    1
   112    92    89    1
   113     7     1    1
   114    86    85    1
   115    85    84    1
   116    89    90    1
   117    89    88    1
   118    90    91    2
   119    84    81    1
   120    81    82    1
   121    81    80    1
   122    83    82    2
