@<TRIPOS>MOLECULE
tmp/6chzA00.pdb
 211 197 0 0 0
SMALL
GASTEIGER

@<TRIPOS>ATOM
      1  N        -35.4590   -7.0640  -30.9050 N.3    38  MET38      -0.1245
      2  CA       -35.5260   -6.5840  -29.5430 C.3    38  MET38       0.1570
      3  C        -34.9480   -7.5830  -28.5490 C.2    38  MET38       0.2261
      4  O        -34.3920   -7.1750  -27.5460 O.2    38  MET38      -0.2867
      5  CB       -36.9250   -6.1620  -29.1490 C.3    38  MET38       0.0387
      6  CG       -37.0540   -5.6050  -27.7360 C.3    38  MET38       0.0595
      7  SD       -36.1060   -4.0760  -27.3550 S.3    38  MET38      -0.1393
      8  CE       -36.4740   -3.1860  -28.8220 C.3    38  MET38       0.0692
      9  N        -31.1800   -7.2490  -28.8000 N.3    41  LEU41      -0.1231
     10  CA       -30.6730   -5.9930  -28.1900 C.3    41  LEU41       0.1693
     11  C        -30.8160   -6.0720  -26.6790 C.2    41  LEU41       0.2592
     12  O        -29.9440   -5.6270  -25.9360 O.2    41  LEU41      -0.2718
     13  CB       -31.4350   -4.7910  -28.7620 C.3    41  LEU41       0.0284
     14  CG       -31.1770   -4.5370  -30.2230 C.3    41  LEU41       0.0019
     15  CD1      -32.1420   -3.4980  -30.7820 C.3    41  LEU41       0.0001
     16  CD2      -29.7110   -4.2720  -30.5740 C.3    41  LEU41       0.0001
     17  N        -31.9240   -6.5880  -26.2040 N.am   42  THR42      -0.1953
     18  CA       -32.1360   -6.7210  -24.7790 C.3    42  THR42       0.1897
     19  C        -31.0600   -7.6040  -24.1400 C.2    42  THR42       0.2313
     20  O        -30.5120   -7.2300  -23.1150 O.2    42  THR42      -0.2863
     21  CB       -33.5450   -7.2360  -24.4750 C.3    42  THR42       0.1794
     22  OG1      -34.5220   -6.3220  -24.9760 O.3    42  THR42      -0.2208
     23  CG2      -33.7820   -7.4780  -22.9730 C.3    42  THR42       0.0378
     24  N        -28.0420   -8.3330  -25.2190 N.3    44  LEU44      -0.1231
     25  CA       -26.7920   -7.6510  -25.3820 C.3    44  LEU44       0.1693
     26  C        -26.7000   -6.5700  -24.2310 C.2    44  LEU44       0.2592
     27  O        -25.6960   -6.5090  -23.5280 O.2    44  LEU44      -0.2718
     28  CB       -26.7150   -7.0450  -26.7390 C.3    44  LEU44       0.0284
     29  CG       -25.3820   -6.3050  -27.0280 C.3    44  LEU44       0.0019
     30  CD1      -24.1270   -7.1660  -26.9620 C.3    44  LEU44       0.0001
     31  CD2      -25.3780   -5.5810  -28.3970 C.3    44  LEU44       0.0001
     32  N        -27.7130   -5.7440  -24.1470 N.am   45  ALA45      -0.1966
     33  CA       -27.7420   -4.6800  -23.0740 C.3    45  ALA45       0.1728
     34  C        -27.5560   -5.2510  -21.6780 C.2    45  ALA45       0.2616
     35  O        -26.7340   -4.7530  -20.9000 O.2    45  ALA45      -0.2715
     36  CB       -29.0140   -3.8840  -23.1650 C.3    45  ALA45       0.0334
     37  N        -28.2790   -6.2980  -21.3290 N.am   46  ASP46      -0.1971
     38  CA       -28.1140   -6.9870  -20.0420 C.3    46  ASP46       0.1709
     39  C        -26.6730   -7.4750  -19.7650 C.2    46  ASP46       0.2293
     40  O        -26.1480   -7.2470  -18.6950 O.2    46  ASP46      -0.2864
     41  CB       -29.0370   -8.2040  -19.9080 C.3    46  ASP46       0.1436
     42  CG       -30.5310   -7.8690  -19.8620 C.2    46  ASP46       0.3671
     43  OD1      -30.9480   -6.7230  -19.6280 O.co2  46  ASP46      -0.2456
     44  OD2      -31.3050   -8.8370  -20.0750 O.co2  46  ASP46      -0.2456
     45  N        -23.9620   -6.2530  -21.2120 N.3    48  GLU48      -0.1231
     46  CA       -23.1130   -5.1210  -21.2560 C.3    48  GLU48       0.1699
     47  C        -23.1870   -4.3780  -19.9180 C.2    48  GLU48       0.2592
     48  O        -22.2010   -3.7860  -19.5070 O.2    48  GLU48      -0.2718
     49  CB       -23.4420   -4.1610  -22.4340 C.3    48  GLU48       0.0402
     50  CG       -22.8060   -4.5880  -23.7690 C.3    48  GLU48       0.1161
     51  CD       -22.9920   -3.5440  -24.8570 C.2    48  GLU48       0.3649
     52  OE1      -22.0750   -2.6560  -24.9790 O.co2  48  GLU48      -0.2457
     53  OE2      -24.0600   -3.5630  -25.4510 O.co2  48  GLU48      -0.2457
     54  N        -24.3680   -4.3340  -19.3450 N.am   49  LEU49      -0.1980
     55  CA       -24.5830   -3.6510  -18.0150 C.3    49  LEU49       0.1596
     56  C        -23.6270   -4.1800  -16.9380 C.2    49  LEU49       0.2287
     57  O        -22.9620   -3.4180  -16.2350 O.2    49  LEU49      -0.2864
     58  CB       -26.0410   -3.7900  -17.5750 C.3    49  LEU49       0.0297
     59  CG       -26.3840   -2.9600  -16.3120 C.3    49  LEU49       0.0022
     60  CD1      -26.1400   -1.4900  -16.6480 C.3    49  LEU49       0.0001
     61  CD2      -27.8070   -3.2660  -15.9110 C.3    49  LEU49       0.0001
     62  N        -27.3700    4.8510  -17.6960 N.3    78  TRP78      -0.1227
     63  CA       -26.9570    3.6000  -18.3900 C.3    78  TRP78       0.1737
     64  C        -27.2500    3.5690  -19.8780 C.2    78  TRP78       0.2595
     65  O        -26.4340    3.1090  -20.6410 O.2    78  TRP78      -0.2718
     66  CB       -27.5810    2.3640  -17.6930 C.3    78  TRP78       0.0564
     67  CG       -29.0640    2.2270  -17.8070 C.ar   78  TRP78       0.0003
     68  CD1      -29.9700    2.7320  -16.9810 C.ar   78  TRP78       0.0946
     69  CD2      -29.7890    1.5300  -18.8210 C.ar   78  TRP78       0.0152
     70  NE1      -31.2140    2.4250  -17.3550 N.ar   78  TRP78      -0.2442
     71  CE2      -31.1330    1.6840  -18.5280 C.ar   78  TRP78       0.0810
     72  CE3      -29.4210    0.7990  -19.9530 C.ar   78  TRP78       0.0012
     73  CZ2      -32.1480    1.1370  -19.3300 C.ar   78  TRP78       0.0191
     74  CZ3      -30.3860    0.3050  -20.7370 C.ar   78  TRP78       0.0001
     75  CH2      -31.7450    0.4290  -20.4140 C.ar   78  TRP78       0.0015
     76  N        -28.4650    4.0070  -20.3170 N.am   79  LEU79      -0.1980
     77  CA       -28.7810    3.9620  -21.7340 C.3    79  LEU79       0.1596
     78  C        -27.9620    4.9840  -22.5330 C.2    79  LEU79       0.2287
     79  O        -27.4790    4.6680  -23.6330 O.2    79  LEU79      -0.2864
     80  CB       -30.3100    4.0340  -22.0350 C.3    79  LEU79       0.0297
     81  CG       -30.7000    3.8880  -23.4720 C.3    79  LEU79       0.0022
     82  CD1      -30.2110    2.4780  -23.9550 C.3    79  LEU79       0.0001
     83  CD2      -32.1940    3.9090  -23.5780 C.3    79  LEU79       0.0001
     84  N        -24.5430    3.2630  -22.9780 N.3    82  LEU82      -0.1231
     85  CA       -24.6730    2.3130  -24.0700 C.3    82  LEU82       0.1693
     86  C        -24.6700    3.0400  -25.4040 C.2    82  LEU82       0.2591
     87  O        -23.8930    2.7310  -26.3240 O.2    82  LEU82      -0.2718
     88  CB       -25.8910    1.4110  -23.9380 C.3    82  LEU82       0.0284
     89  CG       -25.9110    0.3880  -22.8220 C.3    82  LEU82       0.0019
     90  CD1      -27.1460   -0.4110  -22.8230 C.3    82  LEU82       0.0001
     91  CD2      -24.6500   -0.4960  -22.9060 C.3    82  LEU82       0.0001
     92  N        -25.4720    4.0790  -25.5420 N.am   83  MET83      -0.1979
     93  CA       -25.5710    4.7810  -26.7740 C.3    83  MET83       0.1605
     94  C        -24.3440    5.4820  -27.2430 C.2    83  MET83       0.2287
     95  O        -24.0400    5.3890  -28.4180 O.2    83  MET83      -0.2864
     96  CB       -26.7130    5.7780  -26.7330 C.3    83  MET83       0.0413
     97  CG       -28.0200    5.1010  -26.8380 C.3    83  MET83       0.0598
     98  SD       -29.4480    6.2450  -26.6710 S.3    83  MET83      -0.1393
     99  CE       -30.8360    5.2870  -27.1020 C.3    83  MET83       0.0692
    100  N        -22.1660    2.8610  -28.7000 N.3    86  LEU86      -0.1245
    101  CA       -22.6980    2.4520  -29.9780 C.3    86  LEU86       0.1561
    102  C        -22.2700    3.4210  -31.0660 C.2    86  LEU86       0.2260
    103  O        -21.7330    3.0010  -32.0860 O.2    86  LEU86      -0.2867
    104  CB       -24.1650    2.3070  -29.9250 C.3    86  LEU86       0.0270
    105  CG       -24.8630    1.9730  -31.2420 C.3    86  LEU86       0.0019
    106  CD1      -24.4120    0.6070  -31.7920 C.3    86  LEU86       0.0001
    107  CD2      -26.3440    1.9460  -31.0650 C.3    86  LEU86       0.0001
    108  N        -18.5180    3.1650  -31.7360 N.3    89  ARG89      -0.1245
    109  CA       -18.2220    1.9740  -32.5410 C.3    89  ARG89       0.1563
    110  C        -18.5770    2.1210  -34.0060 C.2    89  ARG89       0.2260
    111  O        -17.8950    1.5320  -34.8880 O.2    89  ARG89      -0.2867
    112  CB       -18.9020    0.6960  -31.9590 C.3    89  ARG89       0.0307
    113  CG       -18.3570    0.2790  -30.6380 C.3    89  ARG89       0.0489
    114  CD       -18.9410   -1.0770  -30.2800 C.3    89  ARG89       0.2205
    115  NE       -20.4040   -1.3100  -30.1980 N.pl3  89  ARG89      -0.0865
    116  CZ       -21.1460   -1.0160  -29.0940 C.cat  89  ARG89       0.5346
    117  NH1      -20.5850   -0.4440  -28.0390 N.pl3  89  ARG89       0.1354
    118  NH2      -22.4240   -1.3510  -29.0330 N.pl3  89  ARG89       0.1354
    119  N        -23.9280   -2.6480  -33.4030 N.3    99  PHE99      -0.1241
    120  CA       -24.3650   -3.0990  -32.0660 C.3    99  PHE99       0.1605
    121  C        -23.3440   -4.0180  -31.4790 C.2    99  PHE99       0.2264
    122  O        -22.9900   -3.9460  -30.3190 O.2    99  PHE99      -0.2867
    123  CB       -25.7510   -3.7140  -32.1300 C.3    99  PHE99       0.0534
    124  CG       -26.8090   -2.7020  -32.4030 C.ar   99  PHE99      -0.0203
    125  CD1      -27.2050   -1.8560  -31.3510 C.ar   99  PHE99      -0.0042
    126  CD2      -27.3560   -2.5390  -33.6290 C.ar   99  PHE99      -0.0042
    127  CE1      -28.1470   -0.8900  -31.5710 C.ar   99  PHE99      -0.0003
    128  CE2      -28.3060   -1.5200  -33.8820 C.ar   99  PHE99      -0.0003
    129  CZ       -28.6910   -0.7110  -32.8420 C.ar   99  PHE99      -0.0000
    130  N        -37.9100    1.9840  -32.9800 N.3   116  MET116     -0.1245
    131  CA       -36.4820    2.1780  -33.3020 C.3   116  MET116      0.1570
    132  C        -36.2010    3.1200  -34.4830 C.2   116  MET116      0.2261
    133  O        -35.6020    4.1230  -34.3310 O.2   116  MET116     -0.2867
    134  CB       -35.7840    0.8290  -33.5640 C.3   116  MET116      0.0387
    135  CG       -34.8580    0.3630  -32.4550 C.3   116  MET116      0.0595
    136  SD       -35.1050   -1.4070  -32.2050 S.3   116  MET116     -0.1393
    137  CE       -34.8510   -2.1500  -33.8090 C.3   116  MET116      0.0692
    138  N        -35.2670    6.3950  -33.5270 N.3   119  ILE119     -0.1245
    139  CA       -34.0260    6.3670  -32.7280 C.3   119  ILE119      0.1561
    140  C        -32.8140    5.9960  -33.5820 C.2   119  ILE119      0.2260
    141  O        -31.7090    6.5450  -33.4540 O.2   119  ILE119     -0.2867
    142  CB       -34.2380    5.3240  -31.5370 C.3   119  ILE119      0.0252
    143  CG1      -35.2250    5.9150  -30.5690 C.3   119  ILE119      0.0019
    144  CG2      -32.9800    4.9510  -30.7820 C.3   119  ILE119      0.0019
    145  CD1      -34.7010    7.2550  -30.0480 C.3   119  ILE119      0.0001
    146  N        -29.2260    8.0560  -33.9120 N.3   123  LEU123     -0.1245
    147  CA       -27.9630    7.4390  -33.6030 C.3   123  LEU123      0.1561
    148  C        -26.9610    7.5310  -34.8000 C.2   123  LEU123      0.2260
    149  O        -25.7910    7.8530  -34.6120 O.2   123  LEU123     -0.2867
    150  CB       -28.1740    6.0010  -33.1450 C.3   123  LEU123      0.0270
    151  CG       -28.8480    5.8480  -31.7840 C.3   123  LEU123      0.0019
    152  CD1      -29.5110    4.4710  -31.5710 C.3   123  LEU123      0.0001
    153  CD2      -27.8970    6.2130  -30.6490 C.3   123  LEU123      0.0001
    154  N        -35.7080    6.3730  -26.1080 N.3   216  GLY216     -0.1225
    155  CA       -35.6410    4.9160  -25.9330 C.3   216  GLY216      0.1811
    156  C        -36.2810    4.4120  -24.6730 C.2   216  GLY216      0.2280
    157  O        -36.9770    3.3360  -24.6920 O.2   216  GLY216     -0.2866
    158  N        -40.0370    4.0970  -24.9590 N.3   219  HIS219     -0.1226
    159  CA       -40.3970    2.7910  -25.5040 C.3   219  HIS219      0.1752
    160  C        -40.2590    1.6200  -24.5300 C.2   219  HIS219      0.2595
    161  O        -41.1510    0.7620  -24.4240 O.2   219  HIS219     -0.2718
    162  CB       -39.6160    2.4960  -26.7620 C.3   219  HIS219      0.0759
    163  CG       -40.0140    1.2050  -27.3800 C.ar  219  HIS219      0.0818
    164  ND1      -41.2290    1.0350  -28.0120 N.ar  219  HIS219     -0.2268
    165  CD2      -39.4040   -0.0000  -27.3970 C.ar  219  HIS219      0.1154
    166  CE1      -41.3280   -0.2110  -28.4320 C.ar  219  HIS219      0.1986
    167  NE2      -40.2330   -0.8590  -28.0760 N.ar  219  HIS219     -0.2212
    168  N        -39.1420    1.5400  -23.8320 N.am  220  LEU220     -0.1980
    169  CA       -38.9450    0.4820  -22.8440 C.3   220  LEU220      0.1596
    170  C        -40.0310    0.4630  -21.7290 C.2   220  LEU220      0.2287
    171  O        -40.5580   -0.6060  -21.3900 O.2   220  LEU220     -0.2864
    172  CB       -37.5490    0.4830  -22.2820 C.3   220  LEU220      0.0297
    173  CG       -36.4260    0.2720  -23.2880 C.3   220  LEU220      0.0022
    174  CD1      -35.1150    0.3860  -22.5700 C.3   220  LEU220      0.0001
    175  CD2      -36.4290   -1.0890  -23.9580 C.3   220  LEU220      0.0001
    176  N        -43.0850   -4.3910  -18.5210 N.3   225  CYS225     -0.1235
    177  CA       -42.5210   -5.6810  -18.0320 C.3   225  CYS225      0.1677
    178  C        -42.9280   -6.0660  -16.5860 C.2   225  CYS225      0.2270
    179  O        -42.0900   -6.1020  -15.6780 O.2   225  CYS225     -0.2867
    180  CB       -40.9860   -5.7050  -18.1850 C.3   225  CYS225      0.0956
    181  SG       -40.3870   -5.4250  -19.8720 S.3   225  CYS225     -0.0801
    182  N        -40.8360   -7.1700  -11.8110 N.3   228  VAL228     -0.1231
    183  CA       -39.5030   -7.8090  -11.7420 C.3   228  VAL228      0.1692
    184  C        -38.6890   -6.9770  -10.7340 C.2   228  VAL228      0.2591
    185  O        -39.0970   -5.8510  -10.4490 O.2   228  VAL228     -0.2718
    186  CB       -38.8480   -7.9020  -13.1610 C.3   228  VAL228      0.0266
    187  CG1      -39.0000   -6.6020  -13.9480 C.3   228  VAL228      0.0020
    188  CG2      -37.3820   -8.3410  -13.0980 C.3   228  VAL228      0.0020
    189  N        -37.6030   -7.5150  -10.1540 N.am  229  VAL229     -0.1980
    190  CA       -36.6840   -6.6960   -9.3060 C.3   229  VAL229      0.1595
    191  C        -36.3960   -5.3340  -10.0040 C.2   229  VAL229      0.2287
    192  O        -35.9350   -5.3400  -11.1570 O.2   229  VAL229     -0.2864
    193  CB       -35.3340   -7.4130   -8.9180 C.3   229  VAL229      0.0276
    194  CG1      -35.4640   -8.1810   -7.6000 C.3   229  VAL229      0.0022
    195  CG2      -34.7840   -8.3120  -10.0390 C.3   229  VAL229      0.0022
    196  N        -34.6950   -1.7820  -11.2340 N.3   231  LEU231     -0.1245
    197  CA       -33.3610   -1.6240  -11.7870 C.3   231  LEU231      0.1561
    198  C        -32.3900   -1.2230  -10.6690 C.2   231  LEU231      0.2260
    199  O        -31.2560   -1.7020  -10.6460 O.2   231  LEU231     -0.2867
    200  CB       -33.3170   -0.5800  -12.9440 C.3   231  LEU231      0.0270
    201  CG       -32.2920   -0.8220  -14.0610 C.3   231  LEU231      0.0019
    202  CD1      -31.7250    0.4920  -14.5980 C.3   231  LEU231      0.0001
    203  CD2      -31.1620   -1.8500  -13.8410 C.3   231  LEU231      0.0001
    204  N        -31.1180   -4.3420   -8.7460 N.3   234  LEU234     -0.1245
    205  CA       -30.1560   -5.0630   -9.5500 C.3   234  LEU234      0.1561
    206  C        -28.8270   -4.2880   -9.5620 C.2   234  LEU234      0.2260
    207  O        -27.7580   -4.8550   -9.3670 O.2   234  LEU234     -0.2867
    208  CB       -30.7070   -5.3250  -10.9740 C.3   234  LEU234      0.0270
    209  CG       -29.6740   -6.0480  -11.8450 C.3   234  LEU234      0.0019
    210  CD1      -29.5110   -7.5200  -11.4160 C.3   234  LEU234      0.0001
    211  CD2      -30.0470   -5.9260  -13.3360 C.3   234  LEU234      0.0001
@<TRIPOS>BOND
     1   111   110    2
     2   148   149    2
     3   148   147    1
     4   132   133    2
     5   132   131    1
     6   110   109    1
     7   146   147    1
     8   128   126   ar
     9   128   129   ar
    10   137   136    1
    11   126   124   ar
    12   147   150    1
    13   140   141    2
    14   140   139    1
    15   134   131    1
    16   134   135    1
    17   138   139    1
    18   119   120    1
    19   131   130    1
    20   150   151    1
    21   129   127   ar
    22   139   142    1
    23   109   112    1
    24   109   108    1
    25   135   136    1
    26   124   123    1
    27   124   125   ar
    28   123   120    1
    29   103   102    2
    30   120   121    1
    31   112   113    1
    32   106   105    1
    33   151   152    1
    34   151   153    1
    35   127   125   ar
    36   142   144    1
    37   142   143    1
    38   121   122    2
    39   105   107    1
    40   105   104    1
    41   102   101    1
    42     1     2    1
    43    15    14    1
    44   113   114    1
    45    16    14    1
    46   143   145    1
    47   114   115    1
    48    14    13    1
    49   115   116    2
    50   101   104    1
    51   101   100    1
    52     2     5    1
    53     2     3    1
    54     5     6    1
    55   116   118    1
    56   116   117    1
    57     8     7    1
    58     9    10    1
    59    13    10    1
    60     3     4    2
    61   166   167   ar
    62   166   164   ar
    63    95    94    2
    64    31    29    1
    65    10    11    1
    66   167   165   ar
    67   164   163   ar
    68     6     7    1
    69   165   163   ar
    70   163   162    1
    71    94    93    1
    72    99    98    1
    73    29    30    1
    74    29    28    1
    75    97    96    1
    76    97    98    1
    77    93    96    1
    78    93    92    1
    79   162   159    1
    80    28    25    1
    81    11    17   am
    82    11    12    2
    83    87    86    2
    84    17    18    1
    85   154   155    1
    86   155   156    1
    87    92    86   am
    88   159   158    1
    89   159   160    1
    90    53    51   ar
    91    86    85    1
    92    25    24    1
    93    25    26    1
    94    52    51   ar
    95    22    21    1
    96    51    50    1
    97    18    21    1
    98    18    19    1
    99   157   156    2
   100   160   161    2
   101   160   168   am
   102    21    23    1
   103    26    32   am
   104    26    27    2
   105    32    33    1
   106    19    20    2
   107    85    88    1
   108    85    84    1
   109   175   173    1
   110    82    81    1
   111    88    89    1
   112   168   169    1
   113    50    49    1
   114    79    78    2
   115    83    81    1
   116    81    80    1
   117   173   174    1
   118   173   172    1
   119    36    33    1
   120    33    34    1
   121    91    89    1
   122   169   172    1
   123   169   170    1
   124    90    89    1
   125    78    77    1
   126    49    46    1
   127    80    77    1
   128    77    76    1
   129   170   171    2
   130    34    37   am
   131    34    35    2
   132    37    38    1
   133    46    45    1
   134    46    47    1
   135    74    75   ar
   136    74    72   ar
   137    65    64    2
   138    75    73   ar
   139    76    64   am
   140    44    42   ar
   141    38    41    1
   142    38    39    1
   143    72    69   ar
   144    47    48    2
   145    47    54   am
   146    41    42    1
   147    64    63    1
   148   181   180    1
   149    42    43   ar
   150    39    40    2
   151    54    55    1
   152    73    71   ar
   153    69    71   ar
   154    69    67   ar
   155    71    70   ar
   156   176   177    1
   157    63    62    1
   158    63    66    1
   159   180   177    1
   160   177   178    1
   161    55    58    1
   162    55    56    1
   163    67    66    1
   164    67    68   ar
   165    58    59    1
   166    70    68   ar
   167    56    57    2
   168    60    59    1
   169   178   179    2
   170    59    61    1
   171   202   201    1
   172   201   203    1
   173   201   200    1
   174   187   186    1
   175   211   209    1
   176   186   188    1
   177   186   183    1
   178   200   197    1
   179   209   210    1
   180   209   208    1
   181   182   183    1
   182   197   196    1
   183   197   198    1
   184   183   184    1
   185   192   191    2
   186   208   205    1
   187   184   185    2
   188   184   189   am
   189   198   199    2
   190   189   190    1
   191   195   193    1
   192   191   190    1
   193   206   205    1
   194   206   207    2
   195   205   204    1
   196   190   193    1
   197   193   194    1
