@<TRIPOS>MOLECULE
tmp/6ci0B03.pdb
 112 107 0 0 0
SMALL
GASTEIGER

@<TRIPOS>ATOM
      1  N        -15.4380  197.7200   14.0920 N.3     1  LEU1       -0.1245
      2  CA       -14.7730  196.8870   15.0890 C.3     1  LEU1        0.1561
      3  C        -13.3620  196.5190   14.6470 C.2     1  LEU1        0.2260
      4  O        -13.1110  196.2470   13.4720 O.2     1  LEU1       -0.2867
      5  CB       -15.5800  195.6160   15.3580 C.3     1  LEU1        0.0270
      6  CG       -16.7940  195.7530   16.2800 C.3     1  LEU1        0.0019
      7  CD1      -17.5220  194.4230   16.4010 C.3     1  LEU1        0.0001
      8  CD2      -16.3850  196.2760   17.6490 C.3     1  LEU1        0.0001
      9  N        -29.2710  180.6640   14.9770 N.3   127  PHE127     -0.1241
     10  CA       -28.8340  180.8560   13.5990 C.3   127  PHE127      0.1605
     11  C        -27.6510  179.9340   13.3270 C.2   127  PHE127      0.2264
     12  O        -27.0630  179.3530   14.2430 O.2   127  PHE127     -0.2867
     13  CB       -28.4630  182.3160   13.3210 C.3   127  PHE127      0.0534
     14  CG       -27.4130  182.8640   14.2510 C.ar  127  PHE127     -0.0203
     15  CD1      -27.7740  183.4560   15.4520 C.ar  127  PHE127     -0.0042
     16  CD2      -26.0650  182.7820   13.9270 C.ar  127  PHE127     -0.0042
     17  CE1      -26.8160  183.9620   16.3110 C.ar  127  PHE127     -0.0003
     18  CE2      -25.1000  183.2810   14.7860 C.ar  127  PHE127     -0.0003
     19  CZ       -25.4770  183.8720   15.9790 C.ar  127  PHE127     -0.0000
     20  N        -15.2920  192.7540    6.3070 N.3   156  TYR156     -0.1241
     21  CA       -13.9440  192.2020    6.3560 C.3   156  TYR156      0.1605
     22  C        -13.2040  192.5570    5.0670 C.2   156  TYR156      0.2264
     23  O        -13.6230  193.4250    4.3010 O.2   156  TYR156     -0.2867
     24  CB       -13.9940  190.6880    6.5890 C.3   156  TYR156      0.0534
     25  CG       -14.9080  190.2860    7.7280 C.ar  156  TYR156     -0.0201
     26  CD1      -14.5510  190.5330    9.0470 C.ar  156  TYR156     -0.0009
     27  CD2      -16.1320  189.6740    7.4830 C.ar  156  TYR156     -0.0009
     28  CE1      -15.3820  190.1760   10.0900 C.ar  156  TYR156      0.0417
     29  CE2      -16.9690  189.3130    8.5200 C.ar  156  TYR156      0.0417
     30  CZ       -16.5890  189.5700    9.8230 C.ar  156  TYR156      0.1957
     31  OH       -17.4150  189.2150   10.8660 O.3   156  TYR156     -0.2866
     32  N        -20.5090  184.1280    7.6340 N.3   166  ASP166     -0.1225
     33  CA       -21.5960  185.0040    7.1970 C.3   166  ASP166      0.1805
     34  C        -22.2910  185.6540    8.3870 C.2   166  ASP166      0.2598
     35  O        -22.6620  186.8320    8.3280 O.2   166  ASP166     -0.2718
     36  CB       -22.5970  184.2410    6.3130 C.3   166  ASP166      0.1424
     37  CG       -23.2630  183.0550    7.0220 C.2   166  ASP166      0.3668
     38  OD1      -22.8150  182.6390    8.1120 O.co2 166  ASP166     -0.2456
     39  OD2      -24.2560  182.5280    6.4710 O.co2 166  ASP166     -0.2456
     40  N        -22.4630  184.9100    9.4730 N.am  167  THR167     -0.1939
     41  CA       -22.9980  185.4180   10.7250 C.3   167  THR167      0.2028
     42  C        -21.9510  185.2580   11.8210 C.2   167  THR167      0.2642
     43  O        -21.0270  184.4500   11.7080 O.2   167  THR167     -0.2714
     44  CB       -24.2830  184.6800   11.1230 C.3   167  THR167      0.1808
     45  OG1      -23.9910  183.2890   11.3150 O.3   167  THR167     -0.2208
     46  CG2      -25.3390  184.8240   10.0370 C.3   167  THR167      0.0379
     47  N        -22.0970  186.0410   12.8860 N.am  168  ALA168     -0.1977
     48  CA       -21.1520  186.0210   13.9890 C.3   168  ALA168      0.1597
     49  C        -21.8840  185.7770   15.2980 C.2   168  ALA168      0.2287
     50  O        -23.0780  186.0460   15.4300 O.2   168  ALA168     -0.2864
     51  CB       -20.3560  187.3310   14.0820 C.3   168  ALA168      0.0319
     52  N        -22.3530  187.1700   18.7230 N.3   170  VAL170     -0.1245
     53  CA       -22.1980  188.4980   19.3100 C.3   170  VAL170      0.1561
     54  C        -22.3730  188.4010   20.8190 C.2   170  VAL170      0.2260
     55  O        -23.3330  187.7890   21.3030 O.2   170  VAL170     -0.2867
     56  CB       -23.1960  189.4920   18.6950 C.3   170  VAL170      0.0252
     57  CG1      -22.9350  190.8950   19.2150 C.3   170  VAL170      0.0019
     58  CG2      -23.1040  189.4530   17.1700 C.3   170  VAL170      0.0019
     59  N        -17.9050  188.4190   17.7630 N.3   239  LYS239     -0.1245
     60  CA       -17.8640  189.8720   17.8480 C.3   239  LYS239      0.1561
     61  C        -18.1590  190.2740   19.2850 C.2   239  LYS239      0.2260
     62  O        -19.2180  189.9360   19.8220 O.2   239  LYS239     -0.2867
     63  CB       -18.8710  190.5110   16.8930 C.3   239  LYS239      0.0271
     64  CG       -18.4460  190.5110   15.4400 C.3   239  LYS239      0.0035
     65  CD       -19.4430  191.2910   14.5870 C.3   239  LYS239      0.0206
     66  CE       -19.1840  191.0870   13.1020 C.3   239  LYS239      0.1093
     67  NZ       -20.1400  191.8550   12.2600 N.3   239  LYS239     -0.1314
     68  N        -18.9140  193.3830   21.5820 N.3   241  VAL241     -0.1245
     69  CA       -19.4200  194.7380   21.4100 C.3   241  VAL241      0.1561
     70  C        -19.8430  195.2890   22.7690 C.2   241  VAL241      0.2260
     71  O        -19.8100  194.5960   23.7850 O.2   241  VAL241     -0.2867
     72  CB       -20.5910  194.8040   20.4090 C.3   241  VAL241      0.0252
     73  CG1      -20.1510  194.3140   19.0370 C.3   241  VAL241      0.0019
     74  CG2      -21.7880  194.0040   20.9320 C.3   241  VAL241      0.0019
     75  N        -24.7770  197.9710   22.1820 N.3   245  ALA245     -0.1245
     76  CA       -24.7980  197.3880   20.8450 C.3   245  ALA245      0.1562
     77  C        -25.2270  195.9290   20.8880 C.2   245  ALA245      0.2260
     78  O        -25.8730  195.4440   19.9520 O.2   245  ALA245     -0.2867
     79  CB       -23.4240  197.5290   20.1860 C.3   245  ALA245      0.0290
     80  N        -28.2990  194.3390   18.8690 N.3   249  TRP249     -0.1241
     81  CA       -28.2520  193.1010   18.1000 C.3   249  TRP249      0.1605
     82  C        -29.3630  192.1460   18.5300 C.2   249  TRP249      0.2264
     83  O        -30.0230  191.5290   17.6840 O.2   249  TRP249     -0.2867
     84  CB       -26.8700  192.4660   18.2670 C.3   249  TRP249      0.0550
     85  CG       -26.6710  191.1680   17.5650 C.ar  249  TRP249      0.0003
     86  CD1      -26.3750  190.9850   16.2470 C.ar  249  TRP249      0.0946
     87  CD2      -26.7390  189.8630   18.1480 C.ar  249  TRP249      0.0152
     88  NE1      -26.2560  189.6450   15.9730 N.ar  249  TRP249     -0.2442
     89  CE2      -26.4750  188.9340   17.1240 C.ar  249  TRP249      0.0810
     90  CE3      -26.9950  189.3900   19.4390 C.ar  249  TRP249      0.0012
     91  CZ2      -26.4590  187.5580   17.3490 C.ar  249  TRP249      0.0191
     92  CZ3      -26.9760  188.0220   19.6620 C.ar  249  TRP249      0.0001
     93  CH2      -26.7120  187.1230   18.6220 C.ar  249  TRP249      0.0015
     94  N        -32.7460  193.3920   17.1180 N.3   252  GLN252     -0.1231
     95  CA       -32.8880  193.1300   15.6920 C.3   252  GLN252      0.1698
     96  C        -33.3500  191.7050   15.4090 C.2   252  GLN252      0.2592
     97  O        -33.8910  191.4460   14.3290 O.2   252  GLN252     -0.2718
     98  CB       -31.5710  193.4120   14.9710 C.3   252  GLN252      0.0381
     99  CG       -31.2500  194.8930   14.8410 C.3   252  GLN252      0.0905
    100  CD       -29.7720  195.1550   14.6100 C.2   252  GLN252      0.2608
    101  OE1      -28.9860  194.2270   14.4130 O.2   252  GLN252     -0.2717
    102  NE2      -29.3850  196.4270   14.6430 N.am  252  GLN252     -0.0878
    103  N        -33.1750  190.7830   16.3570 N.am  253  HIS253     -0.1976
    104  CA       -33.5910  189.3990   16.1720 C.3   253  HIS253      0.1656
    105  C        -34.9760  189.0990   16.7310 C.2   253  HIS253      0.2291
    106  O        -35.5240  188.0350   16.4310 O.2   253  HIS253     -0.2864
    107  CB       -32.5790  188.4440   16.8190 C.3   253  HIS253      0.0771
    108  CG       -31.2820  188.3390   16.0790 C.ar  253  HIS253      0.0820
    109  ND1      -30.3430  189.3490   16.0760 N.ar  253  HIS253     -0.2267
    110  CD2      -30.7600  187.3390   15.3300 C.ar  253  HIS253      0.1154
    111  CE1      -29.3030  188.9790   15.3500 C.ar  253  HIS253      0.1986
    112  NE2      -29.5290  187.7630   14.8890 N.ar  253  HIS253     -0.2212
@<TRIPOS>BOND
     1    23    22    2
     2    22    21    1
     3    20    21    1
     4    36    37    1
     5    36    33    1
     6    21    24    1
     7    39    37   ar
     8    24    25    1
     9    37    38   ar
    10    33    32    1
    11    33    34    1
    12    27    25   ar
    13    27    29   ar
    14    25    26   ar
    15    35    34    2
    16    34    40   am
    17    29    30   ar
    18    26    28   ar
    19    40    41    1
    20    30    28   ar
    21    30    31    1
    22    46    44    1
    23    41    44    1
    24    41    42    1
    25    44    45    1
    26    43    42    2
    27    42    47   am
    28    67    66    1
    29    47    48    1
    30    66    65    1
    31    13    10    1
    32    13    14    1
    33    11    10    1
    34    11    12    2
    35     4     3    2
    36    10     9    1
    37    16    14   ar
    38    16    18   ar
    39    48    51    1
    40    48    49    1
    41     1     2    1
    42    14    15   ar
    43    97    96    2
    44   101   100    2
    45    65    64    1
    46   100   102   am
    47   100    99    1
    48     3     2    1
    49    18    19   ar
    50    99    98    1
    51   112   110   ar
    52   112   111   ar
    53    98    95    1
    54     2     5    1
    55    49    50    2
    56   110   108   ar
    57   111   109   ar
    58     5     6    1
    59    96    95    1
    60    96   103   am
    61    64    63    1
    62    15    17   ar
    63    95    94    1
    64    88    86   ar
    65    88    89   ar
    66    19    17   ar
    67   109   108   ar
    68   108   107    1
    69   104   103    1
    70   104   105    1
    71   104   107    1
    72    86    85   ar
    73     6     7    1
    74     6     8    1
    75   106   105    2
    76    63    60    1
    77    89    91   ar
    78    89    87   ar
    79    58    56    1
    80    91    93   ar
    81    85    87   ar
    82    85    84    1
    83    83    82    2
    84    59    60    1
    85    60    61    1
    86    81    84    1
    87    81    82    1
    88    81    80    1
    89    87    90   ar
    90    93    92   ar
    91    56    57    1
    92    56    53    1
    93    52    53    1
    94    73    72    1
    95    61    62    2
    96    53    54    1
    97    90    92   ar
    98    78    77    2
    99    79    76    1
   100    72    74    1
   101    72    69    1
   102    54    55    2
   103    76    77    1
   104    76    75    1
   105    69    68    1
   106    69    70    1
   107    70    71    2
