@<TRIPOS>MOLECULE
tmp/6ci0A01.pdb
 97 91 0 0 0
SMALL
GASTEIGER

@<TRIPOS>ATOM
      1  N          7.9920  155.7520    0.7340 N.3    27  ILE27      -0.1245
      2  CA         6.6460  156.0690    0.2660 C.3    27  ILE27       0.1561
      3  C          6.0080  157.1240    1.1650 C.2    27  ILE27       0.2260
      4  O          5.4780  158.1340    0.6880 O.2    27  ILE27      -0.2867
      5  CB         5.7890  154.7940    0.1840 C.3    27  ILE27       0.0252
      6  CG1        6.3190  153.8810   -0.9270 C.3    27  ILE27       0.0019
      7  CG2        4.3150  155.1600   -0.0470 C.3    27  ILE27       0.0019
      8  CD1        5.8300  152.4430   -0.8440 C.3    27  ILE27       0.0001
      9  N          7.5560  160.4840    0.6910 N.3    30  ALA30      -0.1231
     10  CA         7.0710  161.0780   -0.5520 C.3    30  ALA30       0.1694
     11  C          5.6920  161.7040   -0.3630 C.2    30  ALA30       0.2592
     12  O          5.3910  162.7420   -0.9630 O.2    30  ALA30      -0.2718
     13  CB         7.0500  160.0340   -1.6700 C.3    30  ALA30       0.0304
     14  N          4.8390  161.0910    0.4720 N.am   31  PHE31      -0.1976
     15  CA         3.5540  161.7100    0.8060 C.3    31  PHE31       0.1639
     16  C          3.7550  163.0830    1.4370 C.2    31  PHE31       0.2290
     17  O          3.0110  164.0260    1.1410 O.2    31  PHE31      -0.2864
     18  CB         2.7470  160.8230    1.7650 C.3    31  PHE31       0.0560
     19  CG         2.1600  159.5850    1.1320 C.ar   31  PHE31      -0.0200
     20  CD1        2.4040  159.2700   -0.1920 C.ar   31  PHE31      -0.0042
     21  CD2        1.3590  158.7340    1.8780 C.ar   31  PHE31      -0.0042
     22  CE1        1.8600  158.1320   -0.7620 C.ar   31  PHE31      -0.0003
     23  CE2        0.8150  157.5960    1.3170 C.ar   31  PHE31      -0.0003
     24  CZ         1.0670  157.2950   -0.0040 C.ar   31  PHE31      -0.0000
     25  N          4.5050  165.8280   -1.1070 N.3    34  TYR34      -0.1241
     26  CA         3.2740  166.3170   -1.7160 C.3    34  TYR34       0.1605
     27  C          2.4830  167.1760   -0.7370 C.2    34  TYR34       0.2264
     28  O          1.9800  168.2460   -1.1040 O.2    34  TYR34      -0.2867
     29  CB         2.4350  165.1380   -2.2080 C.3    34  TYR34       0.0534
     30  CG         1.3380  165.5540   -3.1490 C.ar   34  TYR34      -0.0201
     31  CD1        1.6020  166.3990   -4.2170 C.ar   34  TYR34      -0.0009
     32  CD2        0.0330  165.1230   -2.9580 C.ar   34  TYR34      -0.0009
     33  CE1        0.6030  166.7920   -5.0760 C.ar   34  TYR34       0.0417
     34  CE2       -0.9740  165.5090   -3.8130 C.ar   34  TYR34       0.0417
     35  CZ        -0.6850  166.3460   -4.8690 C.ar   34  TYR34       0.1957
     36  OH        -1.6870  166.7380   -5.7240 O.3    34  TYR34      -0.2866
     37  N          4.1450  170.4260   -0.5850 N.3    37  MET37      -0.1245
     38  CA         3.9100  171.2030   -1.7970 C.3    37  MET37       0.1570
     39  C          2.6250  172.0130   -1.6720 C.2    37  MET37       0.2261
     40  O          2.6000  173.2060   -1.9970 O.2    37  MET37      -0.2867
     41  CB         3.8470  170.2780   -3.0160 C.3    37  MET37       0.0387
     42  CG         5.2100  169.7170   -3.4620 C.3    37  MET37       0.0595
     43  SD         5.0750  168.6790   -4.9330 S.3    37  MET37      -0.1393
     44  CE         5.6170  167.1100   -4.3140 C.3    37  MET37       0.0692
     45  N         -6.8220  157.5470  -13.4440 N.3    56  LEU56      -0.1245
     46  CA        -6.1690  157.2950  -12.1630 C.3    56  LEU56       0.1561
     47  C         -4.6770  157.5940  -12.2460 C.2    56  LEU56       0.2260
     48  O         -4.1080  158.2130  -11.3400 O.2    56  LEU56      -0.2867
     49  CB        -6.4040  155.8520  -11.7200 C.3    56  LEU56       0.0270
     50  CG        -5.7550  155.4660  -10.3880 C.3    56  LEU56       0.0019
     51  CD1       -6.7820  154.8610   -9.4430 C.3    56  LEU56       0.0001
     52  CD2       -4.5900  154.5110  -10.6080 C.3    56  LEU56       0.0001
     53  N         -4.5380  161.5430  -13.7600 N.3    59  GLY59      -0.1210
     54  CA        -4.7730  162.5240  -12.7150 C.3    59  GLY59       0.1956
     55  C         -3.6730  162.5940  -11.6770 C.2    59  GLY59       0.2611
     56  O         -3.5070  163.6390  -11.0380 O.2    59  GLY59      -0.2717
     57  N         -2.9120  161.5100  -11.5010 N.am   60  PHE60      -0.1976
     58  CA        -1.7810  161.5410  -10.5810 C.3    60  PHE60       0.1639
     59  C         -0.7320  162.5420  -11.0490 C.2    60  PHE60       0.2290
     60  O         -0.3010  163.4120  -10.2840 O.2    60  PHE60      -0.2864
     61  CB        -1.1740  160.1430  -10.4420 C.3    60  PHE60       0.0560
     62  CG         0.2260  160.1350   -9.8790 C.ar   60  PHE60      -0.0200
     63  CD1        0.4400  160.2480   -8.5150 C.ar   60  PHE60      -0.0042
     64  CD2        1.3270  160.0080  -10.7150 C.ar   60  PHE60      -0.0042
     65  CE1        1.7250  160.2400   -7.9940 C.ar   60  PHE60      -0.0003
     66  CE2        2.6130  160.0020  -10.2010 C.ar   60  PHE60      -0.0003
     67  CZ         2.8120  160.1170   -8.8400 C.ar   60  PHE60      -0.0000
     68  N         -1.7700  166.0070  -10.7000 N.3    63  SER63      -0.1202
     69  CA        -1.7800  166.4470   -9.3110 C.3    63  SER63       0.2020
     70  C         -0.4550  167.0590   -8.8760 C.2    63  SER63       0.2618
     71  O         -0.4310  167.7930   -7.8820 O.2    63  SER63      -0.2717
     72  CB        -2.1260  165.2690   -8.3970 C.3    63  SER63       0.2103
     73  OG        -3.4450  164.8020   -8.6330 O.3    63  SER63      -0.2182
     74  N          0.6390  166.7780   -9.5870 N.am   64  LEU64      -0.1979
     75  CA         1.9620  167.2460   -9.1900 C.3    64  LEU64       0.1596
     76  C          2.3370  168.5810   -9.8110 C.2    64  LEU64       0.2287
     77  O          3.4240  169.0920   -9.5300 O.2    64  LEU64      -0.2864
     78  CB         3.0290  166.2080   -9.5550 C.3    64  LEU64       0.0297
     79  CG         2.8620  164.8170   -8.9390 C.3    64  LEU64       0.0022
     80  CD1        3.8500  163.8430   -9.5530 C.3    64  LEU64       0.0001
     81  CD2        3.0400  164.8810   -7.4320 C.3    64  LEU64       0.0001
     82  N         -8.7740  164.4090   -0.3690 N.3    78  LEU78      -0.1245
     83  CA        -7.4550  163.9070   -0.7480 C.3    78  LEU78       0.1561
     84  C         -6.3960  164.3180    0.2690 C.2    78  LEU78       0.2260
     85  O         -5.5240  163.5170    0.6280 O.2    78  LEU78      -0.2867
     86  CB        -7.0730  164.4070   -2.1410 C.3    78  LEU78       0.0270
     87  CG        -5.6660  164.0100   -2.5900 C.3    78  LEU78       0.0019
     88  CD1       -5.4970  162.4920   -2.5450 C.3    78  LEU78       0.0001
     89  CD2       -5.3700  164.5490   -3.9810 C.3    78  LEU78       0.0001
     90  N         -4.1340  161.7270    2.3890 N.3    82  MET82      -0.1245
     91  CA        -2.6710  161.7600    2.3660 C.3    82  MET82       0.1570
     92  C         -2.0920  161.7740    3.7750 C.2    82  MET82       0.2261
     93  O         -1.1710  161.0090    4.0880 O.2    82  MET82      -0.2867
     94  CB        -2.1700  162.9780    1.5890 C.3    82  MET82       0.0387
     95  CG        -2.5420  163.0030    0.1200 C.3    82  MET82       0.0595
     96  SD        -1.7400  161.7140   -0.8300 S.3    82  MET82      -0.1393
     97  CE        -0.0260  162.2110   -0.6510 C.3    82  MET82       0.0692
@<TRIPOS>BOND
     1    53    54    1
     2    45    46    1
     3    54    55    1
     4    47    46    1
     5    47    48    2
     6    46    49    1
     7    49    50    1
     8    55    57   am
     9    55    56    2
    10    57    58    1
    11    59    58    1
    12    59    60    2
    13    64    66   ar
    14    64    62   ar
    15    68    69    1
    16    52    50    1
    17    58    61    1
    18    61    62    1
    19    50    51    1
    20    66    67   ar
    21    62    63   ar
    22    76    77    2
    23    76    75    1
    24    74    75    1
    25    74    70   am
    26    78    75    1
    27    78    79    1
    28    80    79    1
    29    69    70    1
    30    69    72    1
    31    79    81    1
    32    70    71    2
    33    67    65   ar
    34    73    72    1
    35    63    65   ar
    36    36    35    1
    37    33    35   ar
    38    33    31   ar
    39    43    44    1
    40    43    42    1
    41    35    34   ar
    42    31    30   ar
    43    89    87    1
    44    34    32   ar
    45    42    41    1
    46    30    32   ar
    47    30    29    1
    48    41    38    1
    49    87    88    1
    50    87    86    1
    51    29    26    1
    52    86    83    1
    53    40    39    2
    54    38    39    1
    55    38    37    1
    56    26    25    1
    57    26    27    1
    58    13    10    1
    59    28    27    2
    60    12    11    2
    61     6     8    1
    62     6     5    1
    63    96    97    1
    64    96    95    1
    65    22    20   ar
    66    22    24   ar
    67    83    82    1
    68    83    84    1
    69    10    11    1
    70    10     9    1
    71    11    14   am
    72    20    19   ar
    73     7     5    1
    74    24    23   ar
    75    95    94    1
    76     5     2    1
    77     2     1    1
    78     2     3    1
    79    84    85    2
    80    14    15    1
    81     4     3    2
    82    15    16    1
    83    15    18    1
    84    19    18    1
    85    19    21   ar
    86    17    16    2
    87    23    21   ar
    88    94    91    1
    89    91    90    1
    90    91    92    1
    91    92    93    2
