@<TRIPOS>MOLECULE
tmp/6ci5A01.pdb
 134 129 0 0 0
SMALL
GASTEIGER

@<TRIPOS>ATOM
      1  N         32.5590   12.5210    5.0310 N.3    46  SER46      -0.1217
      2  CA        31.8340   13.7630    4.8100 C.3    46  SER46       0.1889
      3  C         32.8280   14.8890    4.5710 C.2    46  SER46       0.2288
      4  O         33.7310   15.1110    5.3860 O.2    46  SER46      -0.2866
      5  CB        30.9380   14.0940    6.0040 C.3    46  SER46       0.2089
      6  OG        30.2270   15.2970    5.7770 O.3    46  SER46      -0.2183
      7  N         29.6330   18.2950    2.9070 N.3    49  TYR49      -0.1241
      8  CA        28.2360   17.8910    2.9590 C.3    49  TYR49       0.1605
      9  C         27.4240   18.9450    3.6980 C.2    49  TYR49       0.2264
     10  O         27.8040   19.3860    4.7870 O.2    49  TYR49      -0.2867
     11  CB        28.1090   16.5320    3.6410 C.3    49  TYR49       0.0534
     12  CG        26.7290   15.9220    3.5420 C.ar   49  TYR49      -0.0201
     13  CD1       26.1110   15.7540    2.3110 C.ar   49  TYR49      -0.0009
     14  CD2       26.0530   15.5010    4.6780 C.ar   49  TYR49      -0.0009
     15  CE1       24.8520   15.1930    2.2140 C.ar   49  TYR49       0.0417
     16  CE2       24.7970   14.9390    4.5930 C.ar   49  TYR49       0.0417
     17  CZ        24.2000   14.7860    3.3590 C.ar   49  TYR49       0.1957
     18  OH        22.9470   14.2270    3.2720 O.3    49  TYR49      -0.2866
     19  N         24.2540   18.9350    4.9560 N.3    51  TYR51      -0.1227
     20  CA        23.0890   18.4770    5.6970 C.3    51  TYR51       0.1736
     21  C         23.5380   17.7340    6.9440 C.2    51  TYR51       0.2595
     22  O         24.6240   17.1510    6.9850 O.2    51  TYR51      -0.2718
     23  CB        22.1920   17.5650    4.8460 C.3    51  TYR51       0.0548
     24  CG        21.7460   18.1860    3.5430 C.ar   51  TYR51      -0.0200
     25  CD1       20.6850   19.0810    3.5050 C.ar   51  TYR51      -0.0009
     26  CD2       22.3840   17.8770    2.3490 C.ar   51  TYR51      -0.0009
     27  CE1       20.2720   19.6510    2.3160 C.ar   51  TYR51       0.0417
     28  CE2       21.9800   18.4420    1.1560 C.ar   51  TYR51       0.0417
     29  CZ        20.9240   19.3280    1.1440 C.ar   51  TYR51       0.1957
     30  OH        20.5200   19.8920   -0.0440 O.3    51  TYR51      -0.2866
     31  N         22.6870   17.7640    7.9630 N.am   52  ILE52      -0.1966
     32  CA        22.9480   17.0430    9.2010 C.3    52  ILE52       0.1727
     33  C         22.6320   15.5700    8.9900 C.2    52  ILE52       0.2616
     34  O         21.6030   15.2140    8.4020 O.2    52  ILE52      -0.2715
     35  CB        22.1210   17.6340   10.3570 C.3    52  ILE52       0.0290
     36  CG1       22.4560   19.1190   10.5450 C.3    52  ILE52       0.0022
     37  CG2       22.3830   16.8670   11.6520 C.3    52  ILE52       0.0023
     38  CD1       21.4800   19.8600   11.4310 C.3    52  ILE52       0.0001
     39  N         23.5170   14.7080    9.4720 N.am   53  ILE53      -0.1977
     40  CA        23.3590   13.2660    9.3380 C.3    53  ILE53       0.1596
     41  C         22.5180   12.7660   10.5050 C.2    53  ILE53       0.2287
     42  O         22.7890   13.0980   11.6660 O.2    53  ILE53      -0.2864
     43  CB        24.7290   12.5690    9.2860 C.3    53  ILE53       0.0276
     44  CG1       25.5120   13.0660    8.0630 C.3    53  ILE53       0.0022
     45  CG2       24.5660   11.0530    9.2370 C.3    53  ILE53       0.0022
     46  CD1       26.9580   12.6350    8.0240 C.3    53  ILE53       0.0001
     47  N         24.2890    8.0120   12.3510 N.3    58  VAL58      -0.1245
     48  CA        25.4660    8.2290   13.1920 C.3    58  VAL58       0.1561
     49  C         25.7800    6.9750   13.9980 C.2    58  VAL58       0.2260
     50  O         26.8970    6.4470   13.9590 O.2    58  VAL58      -0.2867
     51  CB        25.2450    9.4410   14.1120 C.3    58  VAL58       0.0252
     52  CG1       26.3200    9.5130   15.1890 C.3    58  VAL58       0.0019
     53  CG2       25.2260   10.7250   13.2900 C.3    58  VAL58       0.0019
     54  N         34.3060   13.2430    9.3280 N.3    67  ASN67      -0.1240
     55  CA        34.0100   14.4920    8.6450 C.3    67  ASN67       0.1653
     56  C         35.2870   15.3100    8.5500 C.2    67  ASN67       0.2266
     57  O         36.0390   15.4110    9.5270 O.2    67  ASN67      -0.2867
     58  CB        32.9230   15.2840    9.3770 C.3    67  ASN67       0.1155
     59  CG        32.6210   16.6100    8.7100 C.2    67  ASN67       0.2627
     60  OD1       32.1230   16.6540    7.5850 O.2    67  ASN67      -0.2716
     61  ND2       32.9130   17.7020    9.4070 N.am   67  ASN67      -0.0877
     62  N         36.5780   18.8030    8.4820 N.3    69  HIS69      -0.1241
     63  CA        36.0900   20.1120    8.8950 C.3    69  HIS69       0.1621
     64  C         37.2560   21.0860    8.8890 C.2    69  HIS69       0.2264
     65  O         38.2660   20.8530    9.5630 O.2    69  HIS69      -0.2867
     66  CB        35.4480   20.0390   10.2830 C.3    69  HIS69       0.0745
     67  CG        34.7380   21.2920   10.6880 C.ar   69  HIS69       0.0817
     68  ND1       33.6320   21.7720   10.0200 N.ar   69  HIS69      -0.2268
     69  CD2       34.9750   22.1610   11.6980 C.ar   69  HIS69       0.1154
     70  CE1       33.2200   22.8860   10.6000 C.ar   69  HIS69       0.1986
     71  NE2       34.0180   23.1440   11.6210 N.ar   69  HIS69      -0.2212
     72  N         30.4460   24.0860   13.0310 N.3    78  GLY78      -0.1225
     73  CA        29.3190   24.4870   12.2030 C.3    78  GLY78       0.1811
     74  C         29.7530   25.2500   10.9650 C.2    78  GLY78       0.2280
     75  O         30.6910   24.8450   10.2760 O.2    78  GLY78      -0.2866
     76  N         37.5070   14.3890   12.2530 N.3    97  HIS97      -0.1241
     77  CA        36.8720   13.9140   13.4700 C.3    97  HIS97       0.1621
     78  C         35.7860   12.9120   13.1210 C.2    97  HIS97       0.2264
     79  O         35.1410   13.0070   12.0730 O.2    97  HIS97      -0.2867
     80  CB        36.2730   15.0730   14.2780 C.3    97  HIS97       0.0745
     81  CG        35.1010   15.7270   13.6150 C.ar   97  HIS97       0.0817
     82  ND1       33.8050   15.3040   13.8130 N.ar   97  HIS97      -0.2268
     83  CD2       35.0300   16.7740   12.7600 C.ar   97  HIS97       0.1154
     84  CE1       32.9850   16.0630   13.1090 C.ar   97  HIS97       0.1986
     85  NE2       33.7030   16.9640   12.4620 N.ar   97  HIS97      -0.2212
     86  N         32.1770   11.3390   13.2250 N.3    99  ILE99      -0.1231
     87  CA        30.8630   11.9670   13.1970 C.3    99  ILE99       0.1692
     88  C         30.0360   11.4080   14.3440 C.2    99  ILE99       0.2592
     89  O         29.9690   10.1890   14.5410 O.2    99  ILE99      -0.2718
     90  CB        30.1690   11.7310   11.8440 C.3    99  ILE99       0.0266
     91  CG1       30.9270   12.4660   10.7360 C.3    99  ILE99       0.0019
     92  CG2       28.7060   12.1940   11.8910 C.3    99  ILE99       0.0020
     93  CD1       30.4250   12.1870    9.3330 C.3    99  ILE99       0.0001
     94  N         29.4140   12.3010   15.1070 N.am  100  ASP100     -0.1960
     95  CA        28.5070   11.9250   16.1790 C.3   100  ASP100      0.1840
     96  C         27.2500   12.7790   16.0690 C.2   100  ASP100      0.2623
     97  O         27.1550   13.6770   15.2260 O.2   100  ASP100     -0.2715
     98  CB        29.1640   12.0900   17.5560 C.3   100  ASP100      0.1450
     99  CG        29.4070   13.5420   17.9220 C.2   100  ASP100      0.3671
    100  OD1       29.2760   14.4190   17.0420 O.co2 100  ASP100     -0.2456
    101  OD2       29.7290   13.8080   19.0970 O.co2 100  ASP100     -0.2456
    102  N         26.2730   12.4960   16.9270 N.am  101  SER101     -0.1936
    103  CA        25.1120   13.3660   17.0270 C.3   101  SER101      0.2055
    104  C         25.5660   14.7660   17.4180 C.2   101  SER101      0.2644
    105  O         26.4590   14.9360   18.2520 O.2   101  SER101     -0.2714
    106  CB        24.1190   12.8170   18.0510 C.3   101  SER101      0.2130
    107  OG        24.7300   12.6680   19.3210 O.3   101  SER101     -0.2179
    108  N         24.9590   15.7680   16.8050 N.am  102  GLY102     -0.1939
    109  CA        25.4310   17.1290   17.0010 C.3   102  GLY102      0.2014
    110  C         26.4590   17.5260   15.9640 C.2   102  GLY102      0.2639
    111  O         27.1820   16.6990   15.4070 O.2   102  GLY102     -0.2714
    112  N         26.5290   18.8270   15.7050 N.am  103  LEU103     -0.1963
    113  CA        27.2890   19.3520   14.5770 C.3   103  LEU103      0.1728
    114  C         28.7430   19.5570   14.9910 C.2   103  LEU103      0.2616
    115  O         29.0580   20.4770   15.7520 O.2   103  LEU103     -0.2715
    116  CB        26.6600   20.6530   14.0810 C.3   103  LEU103      0.0311
    117  CG        27.1320   21.2190   12.7380 C.3   103  LEU103      0.0022
    118  CD1       27.1240   20.1680   11.6520 C.3   103  LEU103      0.0001
    119  CD2       26.2480   22.3860   12.3150 C.3   103  LEU103      0.0001
    120  N         29.6280   18.6920   14.4890 N.am  104  ASP104     -0.1957
    121  CA        31.0760   18.8640   14.6280 C.3   104  ASP104      0.1840
    122  C         31.5280   18.7290   16.0820 C.2   104  ASP104      0.2622
    123  O         32.4210   19.4480   16.5340 O.2   104  ASP104     -0.2715
    124  CB        31.5280   20.2080   14.0510 C.3   104  ASP104      0.1450
    125  CG        31.1110   20.3890   12.6060 C.2   104  ASP104      0.3671
    126  OD1       31.0800   19.3840   11.8650 O.co2 104  ASP104     -0.2456
    127  OD2       30.8130   21.5360   12.2100 O.co2 104  ASP104     -0.2456
    128  N         30.9250   17.7900   16.8120 N.am  105  THR105     -0.1951
    129  CA        31.2580   17.5620   18.2120 C.3   105  THR105      0.1897
    130  C         31.8750   16.1950   18.4750 C.2   105  THR105      0.2313
    131  O         32.1060   15.8550   19.6390 O.2   105  THR105     -0.2863
    132  CB        30.0090   17.7150   19.0910 C.3   105  THR105      0.1794
    133  OG1       28.9560   16.8850   18.5860 O.3   105  THR105     -0.2208
    134  CG2       29.5440   19.1640   19.1280 C.3   105  THR105      0.0378
@<TRIPOS>BOND
     1    30    29    1
     2    29    28   ar
     3    29    27   ar
     4    28    26   ar
     5    15    13   ar
     6    15    17   ar
     7    13    12   ar
     8    27    25   ar
     9    26    24   ar
    10     7     8    1
    11     8    11    1
    12     8     9    1
    13    18    17    1
    14    17    16   ar
    15    25    24   ar
    16    12    11    1
    17    12    14   ar
    18    24    23    1
    19     9    10    2
    20     3     2    1
    21     3     4    2
    22    16    14   ar
    23     2     1    1
    24     2     5    1
    25    23    20    1
    26    19    20    1
    27    20    21    1
    28     6     5    1
    29    21    22    2
    30    21    31   am
    31    60    59    2
    32    31    32    1
    33    46    44    1
    34    44    43    1
    35    34    33    2
    36    62    63    1
    37    56    55    1
    38    56    57    2
    39    55    54    1
    40    55    58    1
    41    59    58    1
    42    59    61   am
    43    64    63    1
    44    64    65    2
    45    63    66    1
    46    33    32    1
    47    33    39   am
    48    32    35    1
    49    45    43    1
    50    43    40    1
    51    93    91    1
    52    40    39    1
    53    40    41    1
    54    68    70   ar
    55    68    67   ar
    56    75    74    2
    57    66    67    1
    58    35    36    1
    59    35    37    1
    60    41    42    2
    61    36    38    1
    62    70    71   ar
    63    67    69   ar
    64    91    90    1
    65    74    73    1
    66    71    69   ar
    67   118   117    1
    68    90    92    1
    69    90    87    1
    70   126   125   ar
    71    79    78    2
    72    73    72    1
    73   127   125   ar
    74    76    77    1
    75   119   117    1
    76    47    48    1
    77    85    83   ar
    78    85    84   ar
    79   125   124    1
    80   117   116    1
    81    83    81   ar
    82    84    82   ar
    83    78    77    1
    84    48    49    1
    85    48    51    1
    86    87    86    1
    87    87    88    1
    88    53    51    1
    89    77    80    1
    90    81    82   ar
    91    81    80    1
    92    50    49    2
    93   124   121    1
    94   116   113    1
    95    51    52    1
    96    88    89    2
    97    88    94   am
    98   120   121    1
    99   120   114   am
   100   113   114    1
   101   113   112    1
   102   121   122    1
   103   114   115    2
   104    94    95    1
   105    97    96    2
   106   111   110    2
   107   112   110   am
   108   110   109    1
   109    96    95    1
   110    96   102   am
   111   122   123    2
   112   122   128   am
   113    95    98    1
   114   108   109    1
   115   108   104   am
   116   128   129    1
   117   102   103    1
   118   103   104    1
   119   103   106    1
   120   100    99   ar
   121   104   105    2
   122    98    99    1
   123    99   101   ar
   124   106   107    1
   125   129   130    1
   126   129   132    1
   127   130   131    2
   128   133   132    1
   129   132   134    1
