@<TRIPOS>MOLECULE
tmp/6ci5A00.pdb
 209 207 0 0 0
SMALL
GASTEIGER

@<TRIPOS>ATOM
      1  N         30.0600   17.4250   -2.5080 N.3     8  PRO8       -0.2116
      2  CA        30.2010   17.5520   -3.9620 C.3     8  PRO8        0.1372
      3  C         31.2020   16.5500   -4.5170 C.2     8  PRO8        0.2244
      4  O         32.0500   16.0090   -3.8040 O.2     8  PRO8       -0.2868
      5  CB        30.6870   18.9940   -4.1500 C.3     8  PRO8        0.0268
      6  CG        31.3000   19.3660   -2.8420 C.3     8  PRO8        0.0207
      7  CD        30.5200   18.6300   -1.7970 C.3     8  PRO8        0.0892
      8  N         34.3780   15.0960   -6.3430 N.3    10  ARG10      -0.1245
      9  CA        35.7860   15.4870   -6.4310 C.3    10  ARG10       0.1563
     10  C         36.5340   14.3340   -7.0930 C.2    10  ARG10       0.2260
     11  O         36.7980   13.3110   -6.4540 O.2    10  ARG10      -0.2867
     12  CB        36.3630   15.8060   -5.0580 C.3    10  ARG10       0.0307
     13  CG        35.5690   16.8260   -4.2560 C.3    10  ARG10       0.0489
     14  CD        36.1660   17.0030   -2.8650 C.3    10  ARG10       0.2205
     15  NE        35.2340   17.6340   -1.9330 N.pl3  10  ARG10      -0.0865
     16  CZ        35.2100   18.9300   -1.6370 C.cat  10  ARG10       0.5346
     17  NH1       36.0720   19.7710   -2.1940 N.pl3  10  ARG10       0.1354
     18  NH2       34.3160   19.3910   -0.7740 N.pl3  10  ARG10       0.1354
     19  N         32.6620   15.5930    3.4540 N.3    47  TYR47      -0.1227
     20  CA        33.5540   16.6970    3.1060 C.3    47  TYR47       0.1736
     21  C         32.7450   17.6860    2.2720 C.2    47  TYR47       0.2596
     22  O         32.5010   17.4470    1.0850 O.2    47  TYR47      -0.2718
     23  CB        34.7790   16.1940    2.3520 C.3    47  TYR47       0.0548
     24  CG        35.7940   17.2660    2.0150 C.ar   47  TYR47      -0.0200
     25  CD1       35.8950   18.4260    2.7750 C.ar   47  TYR47      -0.0009
     26  CD2       36.6500   17.1190    0.9310 C.ar   47  TYR47      -0.0009
     27  CE1       36.8210   19.4040    2.4660 C.ar   47  TYR47       0.0417
     28  CE2       37.5770   18.0930    0.6140 C.ar   47  TYR47       0.0417
     29  CZ        37.6570   19.2320    1.3850 C.ar   47  TYR47       0.1957
     30  OH        38.5780   20.2030    1.0710 O.3    47  TYR47      -0.2866
     31  N         32.3350   18.7860    2.8970 N.am   48  GLY48      -0.1942
     32  CA        31.4770   19.7420    2.2330 C.3    48  GLY48       0.2014
     33  C         30.0170   19.3590    2.2080 C.2    48  GLY48       0.2639
     34  O         29.2280   20.0350    1.5370 O.2    48  GLY48      -0.2714
     35  N         29.6330   18.2950    2.9070 N.am   49  TYR49      -0.1959
     36  CA        28.2360   17.8910    2.9590 C.3    49  TYR49       0.1771
     37  C         27.4240   18.9450    3.6980 C.2    49  TYR49       0.2619
     38  O         27.8040   19.3860    4.7870 O.2    49  TYR49      -0.2715
     39  CB        28.1090   16.5320    3.6410 C.3    49  TYR49       0.0574
     40  CG        26.7290   15.9220    3.5420 C.ar   49  TYR49      -0.0198
     41  CD1       26.1110   15.7540    2.3110 C.ar   49  TYR49      -0.0009
     42  CD2       26.0530   15.5010    4.6780 C.ar   49  TYR49      -0.0009
     43  CE1       24.8520   15.1930    2.2140 C.ar   49  TYR49       0.0417
     44  CE2       24.7970   14.9390    4.5930 C.ar   49  TYR49       0.0417
     45  CZ        24.2000   14.7860    3.3590 C.ar   49  TYR49       0.1957
     46  OH        22.9470   14.2270    3.2720 O.3    49  TYR49      -0.2866
     47  N         26.2990   19.3470    3.1060 N.am   50  ARG50      -0.1977
     48  CA        25.5350   20.4950    3.5760 C.3    50  ARG50       0.1597
     49  C         24.2520   20.0910    4.2970 C.2    50  ARG50       0.2287
     50  O         23.2610   20.8240    4.2640 O.2    50  ARG50      -0.2864
     51  CB        25.2110   21.4240    2.4080 C.3    50  ARG50       0.0334
     52  CG        26.4170   21.7780    1.5520 C.3    50  ARG50       0.0492
     53  CD        26.1410   22.9720    0.6560 C.3    50  ARG50       0.2205
     54  NE        25.8670   24.1800    1.4300 N.pl3  50  ARG50      -0.0865
     55  CZ        26.7990   24.9300    2.0100 C.cat  50  ARG50       0.5346
     56  NH1       26.4480   26.0110    2.6940 N.pl3  50  ARG50       0.1354
     57  NH2       28.0810   24.6030    1.9160 N.pl3  50  ARG50       0.1354
     58  N         34.3060   13.2430    9.3280 N.3    67  ASN67      -0.1225
     59  CA        34.0100   14.4920    8.6450 C.3    67  ASN67       0.1785
     60  C         35.2870   15.3100    8.5500 C.2    67  ASN67       0.2597
     61  O         36.0390   15.4110    9.5270 O.2    67  ASN67      -0.2718
     62  CB        32.9230   15.2840    9.3770 C.3    67  ASN67       0.1169
     63  CG        32.6210   16.6100    8.7100 C.2    67  ASN67       0.2627
     64  OD1       32.1230   16.6540    7.5850 O.2    67  ASN67      -0.2716
     65  ND2       32.9130   17.7020    9.4070 N.am   67  ASN67      -0.0877
     66  N         35.5330   15.8780    7.3740 N.am   68  LEU68      -0.1966
     67  CA        36.6650   16.7710    7.1570 C.3    68  LEU68       0.1728
     68  C         36.1750   18.1980    7.3670 C.2    68  LEU68       0.2616
     69  O         35.4320   18.7350    6.5380 O.2    68  LEU68      -0.2715
     70  CB        37.2530   16.5880    5.7590 C.3    68  LEU68       0.0311
     71  CG        37.4310   15.1590    5.2320 C.3    68  LEU68       0.0022
     72  CD1       38.3430   15.1650    4.0060 C.3    68  LEU68       0.0001
     73  CD2       37.9730   14.2120    6.2880 C.3    68  LEU68       0.0001
     74  N         36.5780   18.8030    8.4820 N.am   69  HIS69      -0.1959
     75  CA        36.0900   20.1120    8.8950 C.3    69  HIS69       0.1787
     76  C         37.2560   21.0860    8.8890 C.2    69  HIS69       0.2620
     77  O         38.2660   20.8530    9.5630 O.2    69  HIS69      -0.2715
     78  CB        35.4480   20.0390   10.2830 C.3    69  HIS69       0.0785
     79  CG        34.7380   21.2920   10.6880 C.ar   69  HIS69       0.0821
     80  ND1       33.6320   21.7720   10.0200 N.ar   69  HIS69      -0.2267
     81  CD2       34.9750   22.1610   11.6980 C.ar   69  HIS69       0.1154
     82  CE1       33.2200   22.8860   10.6000 C.ar   69  HIS69       0.1986
     83  NE2       34.0180   23.1440   11.6210 N.ar   69  HIS69      -0.2212
     84  N         37.1140   22.1770    8.1440 N.am   70  ILE70      -0.1977
     85  CA        38.2070   23.1300    7.9870 C.3    70  ILE70       0.1596
     86  C         38.2080   24.1160    9.1490 C.2    70  ILE70       0.2287
     87  O         38.1940   25.3340    8.9440 O.2    70  ILE70      -0.2864
     88  CB        38.1270   23.8660    6.6350 C.3    70  ILE70       0.0276
     89  CG1       36.7330   24.4590    6.4140 C.3    70  ILE70       0.0022
     90  CG2       38.4880   22.9210    5.5030 C.3    70  ILE70       0.0022
     91  CD1       36.6610   25.4600    5.2790 C.3    70  ILE70       0.0001
     92  N         30.4460   24.0860   13.0310 N.3    78  GLY78      -0.1210
     93  CA        29.3190   24.4870   12.2030 C.3    78  GLY78       0.1956
     94  C         29.7530   25.2500   10.9650 C.2    78  GLY78       0.2612
     95  O         30.6910   24.8450   10.2760 O.2    78  GLY78      -0.2717
     96  N         29.0750   26.3630   10.6950 N.am   79  ALA79      -0.1965
     97  CA        29.1310   27.0180    9.3960 C.3    79  ALA79       0.1728
     98  C         30.1870   28.1160    9.3520 C.2    79  ALA79       0.2616
     99  O         30.4750   28.7760   10.3540 O.2    79  ALA79      -0.2715
    100  CB        27.7660   27.6130    9.0490 C.3    79  ALA79       0.0334
    101  N         30.7540   28.3080    8.1610 N.am   80  ASP80      -0.1958
    102  CA        31.6850   29.3920    7.8770 C.3    80  ASP80       0.1825
    103  C         32.8530   29.4430    8.8680 C.2    80  ASP80       0.2464
    104  O         33.1900   30.5180    9.3810 O.2    80  ASP80      -0.2730
    105  CB        30.9490   30.7230    7.8570 C.3    80  ASP80       0.1450
    106  CG        29.7920   30.7310    6.8750 C.2    80  ASP80       0.3671
    107  OD1       29.9950   30.3190    5.7140 O.co2  80  ASP80      -0.2456
    108  OD2       28.6790   31.1370    7.2670 O.co2  80  ASP80      -0.2456
    109  N         33.5040   28.3120    9.1420 N.am   81  PRO81      -0.2715
    110  CA        34.5780   28.3240   10.1530 C.3    81  PRO81       0.1536
    111  C         35.7330   29.2450    9.7990 C.2    81  PRO81       0.2599
    112  O         36.2650   29.9280   10.6830 O.2    81  PRO81      -0.2715
    113  CB        35.0140   26.8540   10.2170 C.3    81  PRO81       0.0310
    114  CG        34.5830   26.2680    8.9090 C.3    81  PRO81       0.0237
    115  CD        33.3300   26.9830    8.5310 C.3    81  PRO81       0.0939
    116  N         36.1400   29.2860    8.5290 N.am   82  ASN82      -0.1959
    117  CA        37.2520   30.1490    8.1400 C.3    82  ASN82       0.1819
    118  C         36.9650   31.6000    8.5020 C.2    82  ASN82       0.2621
    119  O         37.7800   32.2670    9.1500 O.2    82  ASN82      -0.2715
    120  CB        37.5230   30.0170    6.6420 C.3    82  ASN82       0.1195
    121  CG        38.7590   30.7800    6.2060 C.2    82  ASN82       0.2630
    122  OD1       39.7970   30.7330    6.8690 O.2    82  ASN82      -0.2716
    123  ND2       38.6510   31.4970    5.0930 N.am   82  ASN82      -0.0877
    124  N         35.8020   32.1040    8.0890 N.am   83  LEU83      -0.1977
    125  CA        35.4190   33.4730    8.4190 C.3    83  LEU83       0.1596
    126  C         35.4130   33.6950    9.9270 C.2    83  LEU83       0.2287
    127  O         35.9800   34.6750   10.4250 O.2    83  LEU83      -0.2864
    128  CB        34.0440   33.7810    7.8240 C.3    83  LEU83       0.0297
    129  CG        33.4300   35.1350    8.1850 C.3    83  LEU83       0.0022
    130  CD1       34.3080   36.2730    7.6880 C.3    83  LEU83       0.0001
    131  CD2       32.0220   35.2510    7.6190 C.3    83  LEU83       0.0001
    132  N         26.5290   18.8270   15.7050 N.3   103  LEU103     -0.1231
    133  CA        27.2890   19.3520   14.5770 C.3   103  LEU103      0.1693
    134  C         28.7430   19.5570   14.9910 C.2   103  LEU103      0.2592
    135  O         29.0580   20.4770   15.7520 O.2   103  LEU103     -0.2718
    136  CB        26.6600   20.6530   14.0810 C.3   103  LEU103      0.0284
    137  CG        27.1320   21.2190   12.7380 C.3   103  LEU103      0.0019
    138  CD1       27.1240   20.1680   11.6520 C.3   103  LEU103      0.0001
    139  CD2       26.2480   22.3860   12.3150 C.3   103  LEU103      0.0001
    140  N         29.6280   18.6920   14.4890 N.am  104  ASP104     -0.1974
    141  CA        31.0760   18.8640   14.6280 C.3   104  ASP104      0.1709
    142  C         31.5280   18.7290   16.0820 C.2   104  ASP104      0.2293
    143  O         32.4210   19.4480   16.5340 O.2   104  ASP104     -0.2864
    144  CB        31.5280   20.2080   14.0510 C.3   104  ASP104      0.1436
    145  CG        31.1110   20.3890   12.6060 C.2   104  ASP104      0.3671
    146  OD1       31.0800   19.3840   11.8650 O.co2 104  ASP104     -0.2456
    147  OD2       30.8130   21.5360   12.2100 O.co2 104  ASP104     -0.2456
    148  N         40.1780   35.8410    2.5730 N.3   122  LEU122     -0.1231
    149  CA        39.3520   34.6790    2.8780 C.3   122  LEU122      0.1693
    150  C         39.4990   33.6070    1.8090 C.2   122  LEU122      0.2591
    151  O         39.3920   32.4130    2.1080 O.2   122  LEU122     -0.2718
    152  CB        37.8850   35.0910    3.0240 C.3   122  LEU122      0.0284
    153  CG        37.5300   35.9390    4.2500 C.3   122  LEU122      0.0019
    154  CD1       36.0690   36.3550    4.1980 C.3   122  LEU122      0.0001
    155  CD2       37.8220   35.1960    5.5520 C.3   122  LEU122      0.0001
    156  N         39.7610   34.0100    0.5650 N.am  123  ARG123     -0.1980
    157  CA        39.9460   33.0360   -0.5050 C.3   123  ARG123      0.1597
    158  C         41.2510   32.2710   -0.3280 C.2   123  ARG123      0.2287
    159  O         41.2660   31.0360   -0.3580 O.2   123  ARG123     -0.2864
    160  CB        39.9170   33.7320   -1.8660 C.3   123  ARG123      0.0334
    161  CG        40.0430   32.7730   -3.0420 C.3   123  ARG123      0.0492
    162  CD        40.0960   33.5030   -4.3720 C.3   123  ARG123      0.2205
    163  NE        38.9180   34.3350   -4.5950 N.pl3 123  ARG123     -0.0865
    164  CZ        37.7220   33.8670   -4.9360 C.cat 123  ARG123      0.5346
    165  NH1       36.7110   34.7050   -5.1210 N.pl3 123  ARG123      0.1354
    166  NH2       37.5300   32.5630   -5.0850 N.pl3 123  ARG123      0.1354
    167  N         41.0520   30.0920    2.7900 N.3   126  TYR126     -0.1227
    168  CA        40.1980   28.9430    2.5120 C.3   126  TYR126      0.1736
    169  C         40.9340   27.9210    1.6540 C.2   126  TYR126      0.2595
    170  O         40.9140   26.7190    1.9430 O.2   126  TYR126     -0.2718
    171  CB        38.9100   29.4020    1.8250 C.3   126  TYR126      0.0548
    172  CG        37.9170   28.2900    1.5680 C.ar  126  TYR126     -0.0200
    173  CD1       36.8540   28.0700    2.4330 C.ar  126  TYR126     -0.0009
    174  CD2       38.0400   27.4630    0.4600 C.ar  126  TYR126     -0.0009
    175  CE1       35.9440   27.0590    2.2040 C.ar  126  TYR126      0.0417
    176  CE2       37.1330   26.4470    0.2220 C.ar  126  TYR126      0.0417
    177  CZ        36.0870   26.2500    1.1000 C.ar  126  TYR126      0.1957
    178  OH        35.1790   25.2420    0.8690 O.3   126  TYR126     -0.2866
    179  N         41.5960   28.3850    0.5920 N.am  127  GLU127     -0.1979
    180  CA        42.3320   27.4700   -0.2740 C.3   127  GLU127      0.1602
    181  C         43.4490   26.7700    0.4890 C.2   127  GLU127      0.2287
    182  O         43.7010   25.5780    0.2790 O.2   127  GLU127     -0.2864
    183  CB        42.8980   28.2230   -1.4780 C.3   127  GLU127      0.0415
    184  CG        41.8470   28.7600   -2.4420 C.3   127  GLU127      0.1163
    185  CD        40.9860   27.6660   -3.0460 C.2   127  GLU127      0.3649
    186  OE1       39.7440   27.7820   -2.9750 O.co2 127  GLU127     -0.2457
    187  OE2       41.5480   26.6900   -3.5860 O.co2 127  GLU127     -0.2457
    188  N         24.6860   29.3960    9.9470 N.3   163  LEU163     -0.1245
    189  CA        24.8640   30.1460    8.7070 C.3   163  LEU163      0.1561
    190  C         24.3950   31.5880    8.8560 C.2   163  LEU163      0.2260
    191  O         25.0380   32.5130    8.3460 O.2   163  LEU163     -0.2867
    192  CB        24.1160   29.4600    7.5630 C.3   163  LEU163      0.0270
    193  CG        24.9140   28.4790    6.7030 C.3   163  LEU163      0.0019
    194  CD1       23.9860   27.7860    5.7180 C.3   163  LEU163      0.0001
    195  CD2       26.0450   29.1850    5.9590 C.3   163  LEU163      0.0001
    196  N         34.9290   36.8130   -1.1550 N.3   177  TRP177     -0.1241
    197  CA        35.9940   35.9540   -0.6550 C.3   177  TRP177      0.1605
    198  C         37.3760   36.5530   -0.8730 C.2   177  TRP177      0.2264
    199  O         38.3420   36.0710   -0.2720 O.2   177  TRP177     -0.2867
    200  CB        35.9180   34.5760   -1.3170 C.3   177  TRP177      0.0550
    201  CG        34.6050   33.8870   -1.1100 C.ar  177  TRP177      0.0003
    202  CD1       33.8110   33.3290   -2.0700 C.ar  177  TRP177      0.0946
    203  CD2       33.9250   33.6930    0.1370 C.ar  177  TRP177      0.0152
    204  NE1       32.6830   32.7930   -1.4970 N.ar  177  TRP177     -0.2442
    205  CE2       32.7280   33.0050   -0.1440 C.ar  177  TRP177      0.0810
    206  CE3       34.2120   34.0340    1.4630 C.ar  177  TRP177      0.0012
    207  CZ2       31.8200   32.6500    0.8520 C.ar  177  TRP177      0.0191
    208  CZ3       33.3100   33.6820    2.4500 C.ar  177  TRP177      0.0001
    209  CH2       32.1280   32.9970    2.1390 C.ar  177  TRP177      0.0015
@<TRIPOS>BOND
     1    10    11    2
     2    10     9    1
     3     9     8    1
     4     9    12    1
     5   165   164    1
     6   166   164    1
     7    12    13    1
     8   164   163    2
     9   163   162    1
    10     3     2    1
    11     3     4    2
    12   162   161    1
    13    13    14    1
    14     5     2    1
    15     5     6    1
    16     2     1    1
    17   187   185   ar
    18   185   186   ar
    19   185   184    1
    20   161   160    1
    21    14    15    1
    22     6     7    1
    23     1     7    1
    24   184   183    1
    25    17    16    1
    26   202   204   ar
    27   202   201   ar
    28    15    16    2
    29   160   157    1
    30    16    18    1
    31   204   205   ar
    32   183   180    1
    33   200   201    1
    34   200   197    1
    35   196   197    1
    36   201   203   ar
    37   198   197    1
    38   198   199    2
    39   157   158    1
    40   157   156    1
    41   159   158    2
    42   180   181    1
    43   180   179    1
    44   205   203   ar
    45   205   207   ar
    46   203   206   ar
    47   176   174   ar
    48   176   177   ar
    49   182   181    2
    50   174   172   ar
    51   156   150   am
    52   179   169   am
    53    28    26   ar
    54    28    29   ar
    55    53    54    1
    56    53    52    1
    57   207   209   ar
    58   178   177    1
    59    26    24   ar
    60    30    29    1
    61    22    21    2
    62   177   175   ar
    63    29    27   ar
    64    54    55    2
    65   206   208   ar
    66    34    33    2
    67    52    51    1
    68   172   171    1
    69   172   173   ar
    70   169   170    2
    71   169   168    1
    72   150   151    2
    73   150   149    1
    74   171   168    1
    75    57    55    1
    76    55    56    1
    77    24    23    1
    78    24    25   ar
    79   209   208   ar
    80   175   173   ar
    81    33    32    1
    82    33    35   am
    83    43    41   ar
    84    43    45   ar
    85    32    31    1
    86    21    31   am
    87    21    20    1
    88    41    40   ar
    89    23    20    1
    90    51    48    1
    91    27    25   ar
    92   168   167    1
    93   148   149    1
    94   149   152    1
    95    35    36    1
    96    36    39    1
    97    36    37    1
    98   152   153    1
    99    47    48    1
   100    47    37   am
   101    20    19    1
   102    46    45    1
   103    45    44   ar
   104    40    39    1
   105    40    42   ar
   106    48    49    1
   107    37    38    2
   108    72    71    1
   109   154   153    1
   110   153   155    1
   111    50    49    2
   112    44    42   ar
   113   123   121   am
   114    71    70    1
   115    71    73    1
   116    91    89    1
   117    90    88    1
   118   107   106   ar
   119   194   193    1
   120    70    67    1
   121   195   193    1
   122   121   120    1
   123   121   122    2
   124    89    88    1
   125    69    68    2
   126    88    85    1
   127   120   117    1
   128   193   192    1
   129   106   108   ar
   130   106   105    1
   131    67    68    1
   132    67    66    1
   133    68    74   am
   134    66    60   am
   135   192   189    1
   136    64    63    2
   137   131   129    1
   138   130   129    1
   139   128   129    1
   140   128   125    1
   141   105   102    1
   142   102   101    1
   143   102   103    1
   144    85    84    1
   145    85    86    1
   146   124   125    1
   147   124   118   am
   148   117   118    1
   149   117   116    1
   150    84    76   am
   151   101    98   am
   152   191   190    2
   153   125   126    1
   154    74    75    1
   155   118   119    2
   156   116   111   am
   157   115   114    1
   158   115   109    1
   159    60    59    1
   160    60    61    2
   161    59    58    1
   162    59    62    1
   163   189   190    1
   164   189   188    1
   165    63    62    1
   166    63    65   am
   167   103   109   am
   168   103   104    2
   169    76    75    1
   170    76    77    2
   171    75    78    1
   172   114   113    1
   173    87    86    2
   174   100    97    1
   175   109   110    1
   176    98    97    1
   177    98    99    2
   178    97    96    1
   179   111   110    1
   180   111   112    2
   181   126   127    2
   182    80    82   ar
   183    80    79   ar
   184   110   113    1
   185    95    94    2
   186    78    79    1
   187    82    83   ar
   188    79    81   ar
   189    96    94   am
   190    94    93    1
   191    83    81   ar
   192   138   137    1
   193   146   145   ar
   194    93    92    1
   195   147   145   ar
   196   139   137    1
   197   145   144    1
   198   137   136    1
   199   144   141    1
   200   136   133    1
   201   140   141    1
   202   140   134   am
   203   133   134    1
   204   133   132    1
   205   141   142    1
   206   134   135    2
   207   142   143    2
