@<TRIPOS>MOLECULE
tmp/6ci6A03.pdb
 118 109 0 0 0
SMALL
GASTEIGER

@<TRIPOS>ATOM
      1  N         28.3380   19.8480   78.7890 N.3   203  PHE203     -0.1241
      2  CA        28.1050   19.1660   80.0820 C.3   203  PHE203      0.1605
      3  C         28.4460   19.9450   81.3540 C.2   203  PHE203      0.2264
      4  O         28.1330   19.4880   82.4550 O.2   203  PHE203     -0.2867
      5  CB        28.8740   17.8480   80.0980 C.3   203  PHE203      0.0534
      6  CG        28.6220   16.9950   78.8900 C.ar  203  PHE203     -0.0203
      7  CD1       27.4620   16.2260   78.7940 C.ar  203  PHE203     -0.0042
      8  CD2       29.5300   16.9700   77.8380 C.ar  203  PHE203     -0.0042
      9  CE1       27.2230   15.4380   77.6780 C.ar  203  PHE203     -0.0003
     10  CE2       29.2950   16.1860   76.7180 C.ar  203  PHE203     -0.0003
     11  CZ        28.1410   15.4180   76.6390 C.ar  203  PHE203     -0.0000
     12  N         31.5490   20.6380   86.1840 N.3   206  ARG206     -0.1231
     13  CA        31.6690   19.3870   86.9510 C.3   206  ARG206      0.1694
     14  C         32.1180   18.1910   86.1150 C.2   206  ARG206      0.2591
     15  O         32.8090   17.3100   86.6270 O.2   206  ARG206     -0.2718
     16  CB        30.3520   19.0520   87.6530 C.3   206  ARG206      0.0321
     17  CG        30.0610   19.9360   88.8610 C.3   206  ARG206      0.0489
     18  CD        28.6810   19.6860   89.4600 C.3   206  ARG206      0.2205
     19  NE        28.3170   18.2670   89.4750 N.pl3 206  ARG206     -0.0865
     20  CZ        28.8090   17.3460   90.3080 C.cat 206  ARG206      0.5346
     21  NH1       29.7140   17.6610   91.2370 N.pl3 206  ARG206      0.1354
     22  NH2       28.3890   16.0840   90.2090 N.pl3 206  ARG206      0.1354
     23  N         31.7230   18.1590   84.8440 N.am  207  ALA207     -0.1980
     24  CA        32.1460   17.1000   83.9250 C.3   207  ALA207      0.1597
     25  C         33.6420   17.1780   83.6000 C.2   207  ALA207      0.2287
     26  O         34.3070   16.1450   83.4790 O.2   207  ALA207     -0.2864
     27  CB        31.3230   17.1470   82.6480 C.3   207  ALA207      0.0319
     28  N         35.5590   16.1470   86.8780 N.3   210  ALA210     -0.1245
     29  CA        35.5210   14.6840   86.9960 C.3   210  ALA210      0.1562
     30  C         36.4930   13.9780   86.0490 C.2   210  ALA210      0.2260
     31  O         37.1760   13.0410   86.4560 O.2   210  ALA210     -0.2867
     32  CB        34.1120   14.1740   86.7700 C.3   210  ALA210      0.0290
     33  N         29.0050   14.7870   96.3450 N.3   321  ASP321     -0.1239
     34  CA        30.0740   15.1190   95.3890 C.3   321  ASP321      0.1674
     35  C         31.4750   14.9040   95.9630 C.2   321  ASP321      0.2266
     36  O         32.4080   14.5930   95.2220 O.2   321  ASP321     -0.2867
     37  CB        29.9410   16.5700   94.9120 C.3   321  ASP321      0.1410
     38  CG        28.6090   16.8480   94.2340 C.2   321  ASP321      0.3668
     39  OD1       28.2080   16.0580   93.3480 O.co2 321  ASP321     -0.2456
     40  OD2       27.9650   17.8600   94.5920 O.co2 321  ASP321     -0.2456
     41  N         31.9460   10.8240   96.2200 N.3   324  LEU324     -0.1231
     42  CA        32.1800   10.2980   94.8690 C.3   324  LEU324      0.1693
     43  C         33.5110   10.7380   94.2730 C.2   324  LEU324      0.2592
     44  O         34.1610    9.9620   93.5630 O.2   324  LEU324     -0.2718
     45  CB        31.0570   10.7320   93.9300 C.3   324  LEU324      0.0284
     46  CG        29.7340    9.9960   94.1060 C.3   324  LEU324      0.0019
     47  CD1       28.6150   10.7620   93.4150 C.3   324  LEU324      0.0001
     48  CD2       29.8290    8.5730   93.5720 C.3   324  LEU324      0.0001
     49  N         33.8820   11.9920   94.5330 N.am  325  GLY325     -0.1957
     50  CA        35.1820   12.5360   94.1340 C.3   325  GLY325      0.1869
     51  C         36.3240   11.7160   94.7000 C.2   325  GLY325      0.2309
     52  O         37.2810   11.4000   93.9880 O.2   325  GLY325     -0.2863
     53  N         36.3480    8.2300   93.0590 N.3   328  LEU328     -0.1245
     54  CA        36.9110    8.4200   91.7180 C.3   328  LEU328      0.1561
     55  C         38.4220    8.6210   91.7520 C.2   328  LEU328      0.2260
     56  O         39.1420    8.0110   90.9690 O.2   328  LEU328     -0.2867
     57  CB        36.2520    9.6090   91.0160 C.3   328  LEU328      0.0270
     58  CG        36.7480    9.9370   89.6020 C.3   328  LEU328      0.0019
     59  CD1       36.5180    8.7830   88.6380 C.3   328  LEU328      0.0001
     60  CD2       36.0510   11.1850   89.1060 C.3   328  LEU328      0.0001
     61  N         34.7660    7.0390   84.7990 N.3   344  LEU344     -0.1245
     62  CA        33.5730    7.8540   85.0500 C.3   344  LEU344      0.1561
     63  C         32.2780    7.0500   84.9670 C.2   344  LEU344      0.2260
     64  O         31.3340    7.3210   85.7040 O.2   344  LEU344     -0.2867
     65  CB        33.4930    9.0170   84.0570 C.3   344  LEU344      0.0270
     66  CG        34.6160   10.0530   84.0720 C.3   344  LEU344      0.0019
     67  CD1       34.4150   11.0320   82.9250 C.3   344  LEU344      0.0001
     68  CD2       34.6790   10.7920   85.4010 C.3   344  LEU344      0.0001
     69  N         32.2450    5.2620   88.1620 N.3   347  ALA347     -0.1231
     70  CA        31.8480    6.2240   89.1980 C.3   347  ALA347      0.1694
     71  C         30.3520    6.5050   89.1800 C.2   347  ALA347      0.2591
     72  O         29.7320    6.5770   90.2350 O.2   347  ALA347     -0.2718
     73  CB        32.6290    7.5200   89.0510 C.3   347  ALA347      0.0304
     74  N         29.7820    6.6680   87.9890 N.am  348  LYS348     -0.1980
     75  CA        28.3230    6.8020   87.8280 C.3   348  LYS348      0.1596
     76  C         27.5570    5.5570   88.2860 C.2   348  LYS348      0.2287
     77  O         26.4480    5.6600   88.8220 O.2   348  LYS348     -0.2864
     78  CB        27.9580    7.1070   86.3780 C.3   348  LYS348      0.0298
     79  CG        28.1410    8.5630   85.9830 C.3   348  LYS348      0.0038
     80  CD        27.7250    8.8060   84.5330 C.3   348  LYS348      0.0206
     81  CE        26.2120    8.9530   84.3820 C.3   348  LYS348      0.1093
     82  NZ        25.7730    8.8890   82.9570 N.3   348  LYS348     -0.1314
     83  N         27.7130    5.6430   92.2150 N.3   351  GLU351     -0.1245
     84  CA        26.6800    6.5940   92.6430 C.3   351  GLU351      0.1567
     85  C         25.2880    5.9580   92.5690 C.2   351  GLU351      0.2260
     86  O         24.5450    5.9620   93.5480 O.2   351  GLU351     -0.2867
     87  CB        26.7260    7.8590   91.7650 C.3   351  GLU351      0.0388
     88  CG        25.6910    8.9400   92.1090 C.3   351  GLU351      0.1160
     89  CD        25.6440   10.0930   91.1060 C.2   351  GLU351      0.3649
     90  OE1       26.0320    9.9080   89.9320 O.co2 351  GLU351     -0.2457
     91  OE2       25.1920   11.1940   91.4850 O.co2 351  GLU351     -0.2457
     92  N         23.4780   13.5880   75.6050 N.3   476  ASP476     -0.1225
     93  CA        22.8870   12.9760   76.8090 C.3   476  ASP476      0.1805
     94  C         23.8800   12.7700   77.9490 C.2   476  ASP476      0.2598
     95  O         23.5440   13.0190   79.1060 O.2   476  ASP476     -0.2718
     96  CB        22.2140   11.6340   76.4840 C.3   476  ASP476      0.1424
     97  CG        20.8460   11.7990   75.8330 C.2   476  ASP476      0.3668
     98  OD1       20.0980   12.7310   76.2070 O.co2 476  ASP476     -0.2456
     99  OD2       20.5110   10.9810   74.9510 O.co2 476  ASP476     -0.2456
    100  N         25.0820   12.3000   77.6250 N.am  477  SER477     -0.1938
    101  CA        26.0690   11.9400   78.6390 C.3   477  SER477      0.2055
    102  C         27.4630   11.8540   78.0430 C.2   477  SER477      0.2643
    103  O         27.6570   11.2350   76.9930 O.2   477  SER477     -0.2714
    104  CB        25.7050   10.5990   79.2710 C.3   477  SER477      0.2130
    105  OG        26.7350   10.1360   80.1290 O.3   477  SER477     -0.2179
    106  N         28.4260   12.4610   78.7320 N.am  478  LEU478     -0.1963
    107  CA        29.8170   12.4820   78.2890 C.3   478  LEU478      0.1728
    108  C         30.4890   11.1260   78.4870 C.2   478  LEU478      0.2616
    109  O         31.2450   10.6760   77.6240 O.2   478  LEU478     -0.2715
    110  CB        30.5990   13.5740   79.0280 C.3   478  LEU478      0.0311
    111  CG        32.1010   13.6920   78.7430 C.3   478  LEU478      0.0022
    112  CD1       32.3600   14.0960   77.3010 C.3   478  LEU478      0.0001
    113  CD2       32.7350   14.6860   79.6990 C.3   478  LEU478      0.0001
    114  N         30.2220   10.4910   79.6240 N.am  479  ALA479     -0.1977
    115  CA        30.8240    9.1920   79.9470 C.3   479  ALA479      0.1597
    116  C         30.2530    8.0550   79.0990 C.2   479  ALA479      0.2287
    117  O         30.9740    7.1140   78.7720 O.2   479  ALA479     -0.2864
    118  CB        30.6570    8.8790   81.4260 C.3   479  ALA479      0.0319
@<TRIPOS>BOND
     1    99    97   ar
     2    92    93    1
     3    97    98   ar
     4    97    96    1
     5    96    93    1
     6    11    10   ar
     7    11     9   ar
     8    10     8   ar
     9    93    94    1
    10   103   102    2
    11   112   111    1
    12   109   108    2
    13   100    94   am
    14   100   101    1
    15     9     7   ar
    16     8     6   ar
    17    94    95    2
    18   102   101    1
    19   102   106   am
    20   107   108    1
    21   107   106    1
    22   107   110    1
    23   108   114   am
    24   101   104    1
    25   111   110    1
    26   111   113    1
    27   117   116    2
    28     1     2    1
    29     7     6   ar
    30     6     5    1
    31   116   115    1
    32   104   105    1
    33   114   115    1
    34   115   118    1
    35     2     5    1
    36     2     3    1
    37     3     4    2
    38    27    24    1
    39    67    66    1
    40    82    81    1
    41    26    25    2
    42    25    24    1
    43    24    23    1
    44    65    66    1
    45    65    62    1
    46    66    68    1
    47    81    80    1
    48    80    79    1
    49    61    62    1
    50    23    14   am
    51    63    62    1
    52    63    64    2
    53    79    78    1
    54    30    31    2
    55    30    29    1
    56    14    15    2
    57    14    13    1
    58    12    13    1
    59    78    75    1
    60    32    29    1
    61    28    29    1
    62    13    16    1
    63    16    17    1
    64    75    74    1
    65    75    76    1
    66    74    71   am
    67    69    70    1
    68    76    77    2
    69    59    58    1
    70    17    18    1
    71    73    70    1
    72    60    58    1
    73    71    70    1
    74    71    72    2
    75    18    19    1
    76    19    20    2
    77    58    57    1
    78    90    89   ar
    79    22    20    1
    80    20    21    1
    81    56    55    2
    82    57    54    1
    83    89    91   ar
    84    89    88    1
    85    54    55    1
    86    54    53    1
    87    87    88    1
    88    87    84    1
    89    83    84    1
    90    85    84    1
    91    85    86    2
    92    39    38   ar
    93    47    46    1
    94    44    43    2
    95    48    46    1
    96    45    46    1
    97    45    42    1
    98    52    51    2
    99    50    49    1
   100    50    51    1
   101    38    40   ar
   102    38    37    1
   103    43    49   am
   104    43    42    1
   105    42    41    1
   106    37    34    1
   107    36    35    2
   108    34    35    1
   109    34    33    1
