@<TRIPOS>MOLECULE
tmp/6ci6A01.pdb
 130 122 0 0 0
SMALL
GASTEIGER

@<TRIPOS>ATOM
      1  N         41.2800   -7.1780   64.0880 N.3   391  LEU391     -0.1245
      2  CA        40.9440   -6.8040   62.7160 C.3   391  LEU391      0.1561
      3  C         41.9910   -5.8760   62.1100 C.2   391  LEU391      0.2260
      4  O         42.3660   -6.0480   60.9540 O.2   391  LEU391     -0.2867
      5  CB        39.5660   -6.1410   62.6440 C.3   391  LEU391      0.0270
      6  CG        39.1640   -5.5670   61.2760 C.3   391  LEU391      0.0019
      7  CD1       39.0800   -6.6570   60.2150 C.3   391  LEU391      0.0001
      8  CD2       37.8520   -4.8100   61.3770 C.3   391  LEU391      0.0001
      9  N         45.2780   -7.6730   61.1410 N.3   394  GLU394     -0.1231
     10  CA        45.0170   -8.5220   59.9860 C.3   394  GLU394      0.1699
     11  C         45.0740   -7.7170   58.6810 C.2   394  GLU394      0.2592
     12  O         45.8980   -8.0160   57.8130 O.2   394  GLU394     -0.2718
     13  CB        43.6480   -9.1930   60.1450 C.3   394  GLU394      0.0402
     14  CG        43.3080  -10.2700   59.1170 C.3   394  GLU394      0.1161
     15  CD        41.8690  -10.7680   59.2350 C.2   394  GLU394      0.3649
     16  OE1       41.2520  -10.6050   60.3140 O.co2 394  GLU394     -0.2457
     17  OE2       41.3480  -11.3300   58.2450 O.co2 394  GLU394     -0.2457
     18  N         44.2310   -6.6840   58.5690 N.am  395  VAL395     -0.1980
     19  CA        43.9750   -5.9940   57.2780 C.3   395  VAL395      0.1595
     20  C         44.7280   -4.6850   57.0100 C.2   395  VAL395      0.2287
     21  O         44.7280   -4.2080   55.8750 O.2   395  VAL395     -0.2864
     22  CB        42.4580   -5.7370   57.0350 C.3   395  VAL395      0.0276
     23  CG1       41.6450   -7.0060   57.2600 C.3   395  VAL395      0.0022
     24  CG2       41.9200   -4.5950   57.8910 C.3   395  VAL395      0.0022
     25  N         44.2100    1.0130   55.9570 N.3   398  TYR398     -0.1227
     26  CA        43.2610    1.3890   54.8950 C.3   398  TYR398      0.1736
     27  C         41.9510    0.5970   54.9690 C.2   398  TYR398      0.2595
     28  O         40.8710    1.1810   54.9560 O.2   398  TYR398     -0.2718
     29  CB        43.9160    1.2460   53.5090 C.3   398  TYR398      0.0548
     30  CG        42.9650    1.3650   52.3180 C.ar  398  TYR398     -0.0200
     31  CD1       42.3010    2.5670   52.0290 C.ar  398  TYR398     -0.0009
     32  CD2       42.7390    0.2720   51.4710 C.ar  398  TYR398     -0.0009
     33  CE1       41.4380    2.6690   50.9420 C.ar  398  TYR398      0.0417
     34  CE2       41.8800    0.3670   50.3840 C.ar  398  TYR398      0.0417
     35  CZ        41.2340    1.5640   50.1180 C.ar  398  TYR398      0.1957
     36  OH        40.3850    1.6440   49.0330 O.3   398  TYR398     -0.2866
     37  N         42.0530   -0.7240   55.0500 N.am  399  ASP399     -0.1974
     38  CA        40.8590   -1.5820   55.1370 C.3   399  ASP399      0.1709
     39  C         40.1600   -1.4920   56.4990 C.2   399  ASP399      0.2293
     40  O         38.9410   -1.6400   56.5740 O.2   399  ASP399     -0.2864
     41  CB        41.1950   -3.0440   54.8010 C.3   399  ASP399      0.1436
     42  CG        41.2560   -3.3130   53.2980 C.2   399  ASP399      0.3671
     43  OD1       41.3170   -2.3550   52.4930 O.co2 399  ASP399     -0.2456
     44  OD2       41.2370   -4.5040   52.9210 O.co2 399  ASP399     -0.2456
     45  N         38.1590    1.4900   56.1790 N.3   402  ASN402     -0.1225
     46  CA        36.9930    1.1510   55.3510 C.3   402  ASN402      0.1785
     47  C         35.9140    0.4180   56.1440 C.2   402  ASN402      0.2597
     48  O         34.7220    0.6840   55.9710 O.2   402  ASN402     -0.2718
     49  CB        37.4020    0.3000   54.1420 C.3   402  ASN402      0.1169
     50  CG        38.3340    1.0290   53.1930 C.2   402  ASN402      0.2627
     51  OD1       38.3790    2.2560   53.1570 O.2   402  ASN402     -0.2716
     52  ND2       39.1020    0.2680   52.4330 N.am  402  ASN402     -0.0877
     53  N         36.3400   -0.5030   57.0070 N.am  403  ALA403     -0.1979
     54  CA        35.4310   -1.2170   57.9130 C.3   403  ALA403      0.1597
     55  C         34.6580   -0.2740   58.8430 C.2   403  ALA403      0.2287
     56  O         33.4890   -0.5130   59.1380 O.2   403  ALA403     -0.2864
     57  CB        36.2060   -2.2330   58.7320 C.3   403  ALA403      0.0319
     58  N         32.1080    1.9930   56.6890 N.3   406  VAL406     -0.1231
     59  CA        30.9060    1.1720   56.4990 C.3   406  VAL406      0.1692
     60  C         30.0980    1.1180   57.7920 C.2   406  VAL406      0.2591
     61  O         28.8910    1.3570   57.7870 O.2   406  VAL406     -0.2718
     62  CB        31.2540   -0.2570   56.0260 C.3   406  VAL406      0.0266
     63  CG1       30.0300   -1.1630   56.0100 C.3   406  VAL406      0.0020
     64  CG2       31.8430   -0.2130   54.6270 C.3   406  VAL406      0.0020
     65  N         30.7810    0.8140   58.8920 N.am  407  ARG407     -0.1980
     66  CA        30.1500    0.7020   60.2070 C.3   407  ARG407      0.1597
     67  C         29.3590    1.9680   60.5510 C.2   407  ARG407      0.2287
     68  O         28.1950    1.8780   60.9290 O.2   407  ARG407     -0.2864
     69  CB        31.2030    0.4100   61.2800 C.3   407  ARG407      0.0334
     70  CG        30.6470   -0.1510   62.5790 C.3   407  ARG407      0.0492
     71  CD        31.7540   -0.3400   63.6110 C.3   407  ARG407      0.2205
     72  NE        32.6950   -1.4070   63.2540 N.pl3 407  ARG407     -0.0865
     73  CZ        33.8330   -1.6780   63.8990 C.cat 407  ARG407      0.5346
     74  NH1       34.6070   -2.6750   63.4740 N.pl3 407  ARG407      0.1354
     75  NH2       34.2140   -0.9650   64.9610 N.pl3 407  ARG407      0.1354
     76  N         32.9980    4.4910   48.6940 N.3   526  LEU526     -0.1245
     77  CA        32.5860    3.4670   49.6700 C.3   526  LEU526      0.1561
     78  C         31.3740    3.8990   50.4960 C.2   526  LEU526      0.2260
     79  O         30.4090    3.1490   50.6240 O.2   526  LEU526     -0.2867
     80  CB        33.7420    3.1190   50.6160 C.3   526  LEU526      0.0270
     81  CG        33.4570    2.0820   51.7120 C.3   526  LEU526      0.0019
     82  CD1       32.9960    0.7510   51.1270 C.3   526  LEU526      0.0001
     83  CD2       34.6850    1.8880   52.5920 C.3   526  LEU526      0.0001
     84  N         28.9360   -5.9040   55.0600 N.3   538  LYS538     -0.1231
     85  CA        30.3040   -5.3650   54.9960 C.3   538  LYS538      0.1693
     86  C         31.2130   -6.1640   54.0520 C.2   538  LYS538      0.2591
     87  O         32.0780   -5.5930   53.3870 O.2   538  LYS538     -0.2718
     88  CB        30.9320   -5.2580   56.3950 C.3   538  LYS538      0.0285
     89  CG        30.9380   -6.5330   57.2290 C.3   538  LYS538      0.0035
     90  CD        31.6520   -6.3190   58.5610 C.3   538  LYS538      0.0206
     91  CE        30.9640   -7.0120   59.7310 C.3   538  LYS538      0.1093
     92  NZ        30.9300   -8.4970   59.6000 N.3   538  LYS538     -0.1314
     93  N         30.9820   -7.4730   53.9820 N.am  539  GLU539     -0.1979
     94  CA        31.7490   -8.3730   53.1190 C.3   539  GLU539      0.1602
     95  C         31.4270   -8.1790   51.6240 C.2   539  GLU539      0.2287
     96  O         32.3140   -8.3110   50.7760 O.2   539  GLU539     -0.2864
     97  CB        31.5260   -9.8300   53.5460 C.3   539  GLU539      0.0415
     98  CG        31.9810  -10.1520   54.9780 C.3   539  GLU539      0.1163
     99  CD        30.8910  -10.0540   56.0500 C.2   539  GLU539      0.3649
    100  OE1       29.7010   -9.8650   55.7230 O.co2 539  GLU539     -0.2457
    101  OE2       31.2320  -10.1770   57.2460 O.co2 539  GLU539     -0.2457
    102  N         30.4570   -5.1680   50.4360 N.3   541  LEU541     -0.1231
    103  CA        31.0820   -3.8720   50.1660 C.3   541  LEU541      0.1693
    104  C         32.5920   -3.9700   49.9390 C.2   541  LEU541      0.2591
    105  O         33.1250   -3.2980   49.0510 O.2   541  LEU541     -0.2718
    106  CB        30.7770   -2.8900   51.2950 C.3   541  LEU541      0.0284
    107  CG        29.3030   -2.4870   51.3540 C.3   541  LEU541      0.0019
    108  CD1       28.9140   -2.0520   52.7560 C.3   541  LEU541      0.0001
    109  CD2       28.9950   -1.3950   50.3410 C.3   541  LEU541      0.0001
    110  N         33.2680   -4.8040   50.7290 N.am  542  LYS542     -0.1980
    111  CA        34.7120   -5.0400   50.5710 C.3   542  LYS542      0.1596
    112  C         35.0570   -5.6070   49.1880 C.2   542  LYS542      0.2287
    113  O         36.0410   -5.1920   48.5700 O.2   542  LYS542     -0.2864
    114  CB        35.2310   -5.9760   51.6670 C.3   542  LYS542      0.0298
    115  CG        36.7040   -6.3430   51.5290 C.3   542  LYS542      0.0038
    116  CD        37.1740   -7.2200   52.6720 C.3   542  LYS542      0.0206
    117  CE        38.6790   -7.4150   52.6360 C.3   542  LYS542      0.1093
    118  NZ        39.1680   -8.0300   53.9010 N.3   542  LYS542     -0.1314
    119  N         34.4430   -2.6510   46.6130 N.3   545  LEU545     -0.1231
    120  CA        35.4840   -1.6130   46.6440 C.3   545  LEU545      0.1693
    121  C         36.8300   -2.1170   46.1180 C.2   545  LEU545      0.2592
    122  O         37.6250   -1.3420   45.5770 O.2   545  LEU545     -0.2718
    123  CB        35.6590   -1.0340   48.0500 C.3   545  LEU545      0.0284
    124  CG        36.2510    0.3850   48.0260 C.3   545  LEU545      0.0019
    125  CD1       35.1770    1.4060   47.6720 C.3   545  LEU545      0.0001
    126  CD2       36.9150    0.7390   49.3430 C.3   545  LEU545      0.0001
    127  N         37.0800   -3.4130   46.2960 N.am  546  GLY546     -0.1957
    128  CA        38.2170   -4.0850   45.6690 C.3   546  GLY546      0.1869
    129  C         38.1630   -3.9700   44.1570 C.2   546  GLY546      0.2309
    130  O         39.1690   -3.6520   43.5210 O.2   546  GLY546     -0.2863
@<TRIPOS>BOND
     1   130   129    2
     2   129   128    1
     3   122   121    2
     4   128   127    1
     5   121   127   am
     6   121   120    1
     7   119   120    1
     8   120   123    1
     9   125   124    1
    10   124   123    1
    11   124   126    1
    12   113   112    2
    13    76    77    1
    14    36    35    1
    15   105   104    2
    16   112   111    1
    17    77    78    1
    18    77    80    1
    19   104   103    1
    20   104   110   am
    21    35    34   ar
    22    35    33   ar
    23   103   102    1
    24   103   106    1
    25   109   107    1
    26    34    32   ar
    27    78    79    2
    28   111   110    1
    29   111   114    1
    30    80    81    1
    31    96    95    2
    32    33    31   ar
    33    82    81    1
    34   106   107    1
    35   107   108    1
    36    32    30   ar
    37   115   114    1
    38   115   116    1
    39    95    94    1
    40    81    83    1
    41    31    30   ar
    42    30    29    1
    43    52    50   am
    44    43    42   ar
    45   117   116    1
    46   117   118    1
    47    44    42   ar
    48    94    97    1
    49    94    93    1
    50    51    50    2
    51    50    49    1
    52    42    41    1
    53    87    86    2
    54    29    26    1
    55    97    98    1
    56    93    86   am
    57    86    85    1
    58    49    46    1
    59    64    62    1
    60    41    38    1
    61    26    27    1
    62    26    25    1
    63    28    27    2
    64    27    37   am
    65    98    99    1
    66    85    84    1
    67    85    88    1
    68    37    38    1
    69    38    39    1
    70    46    47    1
    71    46    45    1
    72   100    99   ar
    73    21    20    2
    74    48    47    2
    75    63    62    1
    76    62    59    1
    77    99   101   ar
    78    47    53   am
    79    88    89    1
    80    39    40    2
    81    59    58    1
    82    59    60    1
    83    53    54    1
    84    20    19    1
    85    22    23    1
    86    22    19    1
    87    22    24    1
    88    89    90    1
    89    19    18    1
    90    61    60    2
    91    60    65   am
    92    12    11    2
    93    54    57    1
    94    54    55    1
    95    17    15   ar
    96    90    91    1
    97    18    11   am
    98    11    10    1
    99    55    56    2
   100    65    66    1
   101    14    15    1
   102    14    13    1
   103    15    16   ar
   104    92    91    1
   105    10    13    1
   106    10     9    1
   107    66    67    1
   108    66    69    1
   109     7     6    1
   110    67    68    2
   111     4     3    2
   112     6     8    1
   113     6     5    1
   114    69    70    1
   115     3     2    1
   116    70    71    1
   117     5     2    1
   118     2     1    1
   119    72    71    1
   120    72    73    2
   121    74    73    1
   122    73    75    1
