@<TRIPOS>MOLECULE
tmp/6ci6A00.pdb
 168 157 0 0 0
SMALL
GASTEIGER

@<TRIPOS>ATOM
      1  N         35.9110   -5.2200   72.8500 N.3   384  LEU384     -0.1231
      2  CA        35.7810   -4.3140   71.6870 C.3   384  LEU384      0.1693
      3  C         37.1440   -3.8370   71.1660 C.2   384  LEU384      0.2591
      4  O         37.3440   -3.7310   69.9580 O.2   384  LEU384     -0.2718
      5  CB        34.8960   -3.1030   72.0120 C.3   384  LEU384      0.0284
      6  CG        33.4190   -3.2650   71.6350 C.3   384  LEU384      0.0019
      7  CD1       32.5180   -2.3800   72.4840 C.3   384  LEU384      0.0001
      8  CD2       33.2130   -2.9760   70.1530 C.3   384  LEU384      0.0001
      9  N         38.0640   -3.5410   72.0820 N.am  385  VAL385     -0.1980
     10  CA        39.4440   -3.1910   71.7260 C.3   385  VAL385      0.1595
     11  C         40.1800   -4.3860   71.1110 C.2   385  VAL385      0.2287
     12  O         40.8610   -4.2330   70.0960 O.2   385  VAL385     -0.2864
     13  CB        40.2080   -2.6180   72.9460 C.3   385  VAL385      0.0276
     14  CG1       41.7230   -2.6990   72.7800 C.3   385  VAL385      0.0022
     15  CG2       39.8060   -1.1690   73.1760 C.3   385  VAL385      0.0022
     16  N         38.8040   -7.1050   69.6400 N.3   387  LYS387     -0.1231
     17  CA        38.1280   -7.3260   68.3460 C.3   387  LYS387      0.1693
     18  C         38.5850   -6.3620   67.2340 C.2   387  LYS387      0.2592
     19  O         38.8340   -6.7880   66.1040 O.2   387  LYS387     -0.2718
     20  CB        36.6010   -7.2380   68.5420 C.3   387  LYS387      0.0285
     21  CG        35.7890   -7.2710   67.2630 C.3   387  LYS387      0.0035
     22  CD        34.2990   -7.2040   67.5760 C.3   387  LYS387      0.0206
     23  CE        33.7720   -5.7920   67.4930 C.3   387  LYS387      0.1093
     24  NZ        34.1130   -5.0950   66.2290 N.3   387  LYS387     -0.1314
     25  N         38.6830   -5.0720   67.5560 N.am  388  ASN388     -0.1960
     26  CA        39.1080   -4.0620   66.5790 C.3   388  ASN388      0.1819
     27  C         40.6150   -4.1230   66.2890 C.2   388  ASN388      0.2621
     28  O         41.0260   -3.9120   65.1470 O.2   388  ASN388     -0.2715
     29  CB        38.6770   -2.6580   67.0220 C.3   388  ASN388      0.1195
     30  CG        37.2060   -2.3770   66.7290 C.2   388  ASN388      0.2630
     31  OD1       36.8080   -2.2210   65.5770 O.2   388  ASN388     -0.2716
     32  ND2       36.3970   -2.3080   67.7740 N.am  388  ASN388     -0.0877
     33  N         41.4290   -4.4070   67.3060 N.am  389  CYS389     -0.1968
     34  CA        42.8780   -4.5840   67.1090 C.3   389  CYS389      0.1712
     35  C         43.2240   -5.8800   66.3620 C.2   389  CYS389      0.2296
     36  O         44.1810   -5.9070   65.5830 O.2   389  CYS389     -0.2864
     37  CB        43.6460   -4.5300   68.4370 C.3   389  CYS389      0.0983
     38  SG        44.0070   -2.8760   69.0780 S.3   389  CYS389     -0.0798
     39  N         40.9220   -1.2500   57.5640 N.3   400  PHE400     -0.1241
     40  CA        40.3430   -1.0030   58.8910 C.3   400  PHE400      0.1605
     41  C         39.5330    0.2970   58.8950 C.2   400  PHE400      0.2264
     42  O         38.4490    0.3590   59.4870 O.2   400  PHE400     -0.2867
     43  CB        41.4420   -0.9470   59.9600 C.3   400  PHE400      0.0534
     44  CG        40.9250   -0.7800   61.3650 C.ar  400  PHE400     -0.0203
     45  CD1       40.0290   -1.6990   61.9060 C.ar  400  PHE400     -0.0042
     46  CD2       41.3460    0.2840   62.1560 C.ar  400  PHE400     -0.0042
     47  CE1       39.5540   -1.5560   63.2030 C.ar  400  PHE400     -0.0003
     48  CE2       40.8750    0.4340   63.4560 C.ar  400  PHE400     -0.0003
     49  CZ        39.9760   -0.4870   63.9800 C.ar  400  PHE400     -0.0000
     50  N         35.3190    0.7910   59.2940 N.3   404  LEU404     -0.1245
     51  CA        34.7040    1.7960   60.1630 C.3   404  LEU404      0.1561
     52  C         33.8110    2.7820   59.3980 C.2   404  LEU404      0.2260
     53  O         32.7990    3.2480   59.9330 O.2   404  LEU404     -0.2867
     54  CB        35.7880    2.5460   60.9420 C.3   404  LEU404      0.0270
     55  CG        36.4460    1.6990   62.0390 C.3   404  LEU404      0.0019
     56  CD1       37.8670    2.1660   62.3400 C.3   404  LEU404      0.0001
     57  CD2       35.5930    1.6860   63.3020 C.3   404  LEU404      0.0001
     58  N         30.7810    0.8140   58.8920 N.3   407  ARG407     -0.1231
     59  CA        30.1500    0.7020   60.2070 C.3   407  ARG407      0.1694
     60  C         29.3590    1.9680   60.5510 C.2   407  ARG407      0.2592
     61  O         28.1950    1.8780   60.9290 O.2   407  ARG407     -0.2718
     62  CB        31.2030    0.4100   61.2800 C.3   407  ARG407      0.0321
     63  CG        30.6470   -0.1510   62.5790 C.3   407  ARG407      0.0489
     64  CD        31.7540   -0.3400   63.6110 C.3   407  ARG407      0.2205
     65  NE        32.6950   -1.4070   63.2540 N.pl3 407  ARG407     -0.0865
     66  CZ        33.8330   -1.6780   63.8990 C.cat 407  ARG407      0.5346
     67  NH1       34.6070   -2.6750   63.4740 N.pl3 407  ARG407      0.1354
     68  NH2       34.2140   -0.9650   64.9610 N.pl3 407  ARG407      0.1354
     69  N         29.9800    3.1340   60.3580 N.am  408  TYR408     -0.1976
     70  CA        29.3760    4.4280   60.7330 C.3   408  TYR408      0.1639
     71  C         28.4150    5.0410   59.7140 C.2   408  TYR408      0.2290
     72  O         27.4800    5.7390   60.1150 O.2   408  TYR408     -0.2864
     73  CB        30.4490    5.4390   61.1600 C.3   408  TYR408      0.0560
     74  CG        30.7630    5.2800   62.6180 C.ar  408  TYR408     -0.0198
     75  CD1       31.5430    4.2140   63.0640 C.ar  408  TYR408     -0.0009
     76  CD2       30.2240    6.1490   63.5680 C.ar  408  TYR408     -0.0009
     77  CE1       31.8060    4.0390   64.4110 C.ar  408  TYR408      0.0417
     78  CE2       30.4820    5.9800   64.9170 C.ar  408  TYR408      0.0417
     79  CZ        31.2710    4.9240   65.3320 C.ar  408  TYR408      0.1957
     80  OH        31.5330    4.7540   66.6660 O.3   408  TYR408     -0.2866
     81  N         25.2650    3.4460   60.6140 N.3   411  LYS411     -0.1245
     82  CA        24.7440    4.0750   61.8310 C.3   411  LYS411      0.1561
     83  C         24.1190    5.4480   61.5850 C.2   411  LYS411      0.2260
     84  O         23.1550    5.8240   62.2530 O.2   411  LYS411     -0.2867
     85  CB        25.8680    4.2000   62.8690 C.3   411  LYS411      0.0271
     86  CG        26.3420    2.8540   63.4010 C.3   411  LYS411      0.0035
     87  CD        27.8070    2.8370   63.8170 C.3   411  LYS411      0.0206
     88  CE        27.9770    2.9680   65.3060 C.3   411  LYS411      0.1093
     89  NZ        27.5750    1.7250   66.0250 N.3   411  LYS411     -0.1314
     90  N         39.2330    7.3370   63.1400 N.3   427  LEU427     -0.1245
     91  CA        39.0400    6.1300   63.9460 C.3   427  LEU427      0.1561
     92  C         40.0700    5.0470   63.5860 C.2   427  LEU427      0.2260
     93  O         40.5390    4.3320   64.4550 O.2   427  LEU427     -0.2867
     94  CB        37.6130    5.5870   63.7880 C.3   427  LEU427      0.0270
     95  CG        36.4330    6.3940   64.3470 C.3   427  LEU427      0.0019
     96  CD1       35.1120    5.8600   63.8100 C.3   427  LEU427      0.0001
     97  CD2       36.4150    6.3730   65.8620 C.3   427  LEU427      0.0001
     98  N         43.3930    5.4760   65.3080 N.3   430  VAL430     -0.1231
     99  CA        43.3550    4.9200   66.6700 C.3   430  VAL430      0.1692
    100  C         43.9150    3.4950   66.6460 C.2   430  VAL430      0.2592
    101  O         44.6300    3.0950   67.5590 O.2   430  VAL430     -0.2718
    102  CB        41.9310    4.9290   67.2900 C.3   430  VAL430      0.0266
    103  CG1       41.9430    4.3850   68.7120 C.3   430  VAL430      0.0020
    104  CG2       41.3440    6.3360   67.3060 C.3   430  VAL430      0.0020
    105  N         43.5880    2.7430   65.5990 N.am  431  GLY431     -0.1957
    106  CA        44.1920    1.4350   65.3650 C.3   431  GLY431      0.1869
    107  C         45.7080    1.4950   65.2860 C.2   431  GLY431      0.2309
    108  O         46.4030    0.7370   65.9630 O.2   431  GLY431     -0.2863
    109  N         47.3860    2.7600   68.8520 N.3   434  CYS434     -0.1221
    110  CA        47.0970    2.0160   70.0900 C.3   434  CYS434      0.1808
    111  C         47.3580    0.5140   70.0350 C.2   434  CYS434      0.2601
    112  O         47.7740   -0.0600   71.0430 O.2   434  CYS434     -0.2717
    113  CB        45.6570    2.2720   70.5430 C.3   434  CYS434      0.0970
    114  SG        45.2580    4.0250   70.7530 S.3   434  CYS434     -0.0800
    115  N         47.1220   -0.1280   68.8920 N.am  435  CYS435     -0.1970
    116  CA        47.2650   -1.5940   68.8060 C.3   435  CYS435      0.1712
    117  C         48.7020   -2.1080   68.9120 C.2   435  CYS435      0.2296
    118  O         48.9220   -3.2110   69.4170 O.2   435  CYS435     -0.2864
    119  CB        46.5940   -2.1530   67.5540 C.3   435  CYS435      0.0983
    120  SG        44.8140   -1.8410   67.5050 S.3   435  CYS435     -0.0798
    121  N         42.9190    3.5480   73.3260 N.3   446  SER446     -0.1202
    122  CA        41.8030    3.4480   72.3900 C.3   446  SER446      0.2020
    123  C         40.6650    4.4030   72.7410 C.2   446  SER446      0.2618
    124  O         40.3390    5.2930   71.9540 O.2   446  SER446     -0.2717
    125  CB        41.2780    2.0100   72.3340 C.3   446  SER446      0.2103
    126  OG        42.2250    1.1550   71.7200 O.3   446  SER446     -0.2182
    127  N         40.0910    4.2230   73.9290 N.am  447  GLU447     -0.1979
    128  CA        38.8970    4.9770   74.3460 C.3   447  GLU447      0.1602
    129  C         39.1430    6.4720   74.5240 C.2   447  GLU447      0.2287
    130  O         38.2640    7.2820   74.2160 O.2   447  GLU447     -0.2864
    131  CB        38.2740    4.3940   75.6200 C.3   447  GLU447      0.0415
    132  CG        37.3160    3.2370   75.3740 C.3   447  GLU447      0.1163
    133  CD        36.1310    3.2350   76.3250 C.2   447  GLU447      0.3649
    134  OE1       36.3310    3.2060   77.5540 O.co2 447  GLU447     -0.2457
    135  OE2       34.9790    3.2670   75.8480 O.co2 447  GLU447     -0.2457
    136  N         39.3270    7.6370   71.0050 N.3   450  LEU450     -0.1245
    137  CA        37.9470    7.5900   70.4990 C.3   450  LEU450      0.1561
    138  C         37.1290    8.7840   70.9720 C.2   450  LEU450      0.2260
    139  O         36.3210    9.3080   70.2160 O.2   450  LEU450     -0.2867
    140  CB        37.2400    6.3000   70.9160 C.3   450  LEU450      0.0270
    141  CG        37.6710    5.0210   70.1980 C.3   450  LEU450      0.0019
    142  CD1       37.1330    3.7920   70.9180 C.3   450  LEU450      0.0001
    143  CD2       37.2230    5.0300   68.7480 C.3   450  LEU450      0.0001
    144  N         35.1990   10.9870   68.3780 N.3   454  LEU454     -0.1245
    145  CA        33.7440   11.1310   68.5120 C.3   454  LEU454      0.1561
    146  C         33.3020   12.5500   68.8530 C.2   454  LEU454      0.2260
    147  O         32.2630   12.9950   68.3690 O.2   454  LEU454     -0.2867
    148  CB        33.1860   10.1350   69.5260 C.3   454  LEU454      0.0270
    149  CG        33.3520    8.6610   69.1440 C.3   454  LEU454      0.0019
    150  CD1       32.8640    7.7930   70.2920 C.3   454  LEU454      0.0001
    151  CD2       32.6370    8.2860   67.8500 C.3   454  LEU454      0.0001
    152  N         30.7570    6.8850   74.0000 N.3   482  ARG482     -0.1245
    153  CA        31.3580    5.8420   73.1860 C.3   482  ARG482      0.1563
    154  C         30.4640    4.5900   73.1920 C.2   482  ARG482      0.2260
    155  O         30.1560    4.0730   72.1230 O.2   482  ARG482     -0.2867
    156  CB        32.8030    5.5750   73.6350 C.3   482  ARG482      0.0307
    157  CG        33.7050    4.9390   72.5900 C.3   482  ARG482      0.0489
    158  CD        33.4590    3.4460   72.4420 C.3   482  ARG482      0.2205
    159  NE        33.4420    2.7610   73.7390 N.pl3 482  ARG482     -0.0865
    160  CZ        32.7040    1.6950   74.0570 C.cat 482  ARG482      0.5346
    161  NH1       31.8680    1.1340   73.1800 N.pl3 482  ARG482      0.1354
    162  NH2       32.7960    1.1820   75.2820 N.pl3 482  ARG482      0.1354
    163  N         28.5140    3.0340   69.9590 N.3   486  SER486     -0.1217
    164  CA        28.6260    1.5950   69.7110 C.3   486  SER486      0.1889
    165  C         27.2580    0.9020   69.6080 C.2   486  SER486      0.2288
    166  O         27.0610    0.0200   68.7670 O.2   486  SER486     -0.2866
    167  CB        29.4720    0.9140   70.7930 C.3   486  SER486      0.2089
    168  OG        30.8540    1.0800   70.5460 O.3   486  SER486     -0.2183
@<TRIPOS>BOND
     1    39    40    1
     2    40    41    1
     3    40    43    1
     4    58    59    1
     5    41    42    2
     6    50    51    1
     7    52    53    2
     8    52    51    1
     9    71    72    2
    10    71    70    1
    11    43    44    1
    12    51    54    1
    13    59    60    1
    14    59    62    1
    15    69    60   am
    16    69    70    1
    17    60    61    2
    18    81    82    1
    19    70    73    1
    20    54    55    1
    21    73    74    1
    22    62    63    1
    23    44    45   ar
    24    44    46   ar
    25    83    82    1
    26    83    84    2
    27    82    85    1
    28    45    47   ar
    29    55    56    1
    30    55    57    1
    31    46    48   ar
    32    63    64    1
    33    74    75   ar
    34    74    76   ar
    35    85    86    1
    36    75    77   ar
    37    90    91    1
    38    47    49   ar
    39    65    64    1
    40    65    66    2
    41    86    87    1
    42    48    49   ar
    43    67    66    1
    44    76    78   ar
    45    92    91    1
    46    92    93    2
    47    94    91    1
    48    94    95    1
    49    96    95    1
    50    87    88    1
    51    66    68    1
    52    95    97    1
    53    77    79   ar
    54    78    79   ar
    55    28    27    2
    56   107   106    1
    57   107   108    2
    58    88    89    1
    59    98    99    1
    60    79    80    1
    61   106   105    1
    62    31    30    2
    63    36    35    2
    64   105   100   am
    65    19    18    2
    66    24    23    1
    67    27    26    1
    68    27    33   am
    69    35    34    1
    70    26    29    1
    71    26    25    1
    72   100    99    1
    73   100   101    2
    74    99   102    1
    75    30    29    1
    76    30    32   am
    77    34    33    1
    78    34    37    1
    79    18    25   am
    80    18    17    1
    81    21    22    1
    82    21    20    1
    83   102   104    1
    84   102   103    1
    85    23    22    1
    86   120   119    1
    87   120    38    1
    88   119   116    1
    89   151   149    1
    90    17    20    1
    91    17    16    1
    92   147   146    2
    93   144   145    1
    94    37    38    1
    95   145   146    1
    96   145   148    1
    97   143   141    1
    98   166   165    2
    99   116   115    1
   100   116   117    1
   101   109   110    1
   102   115   111   am
   103   117   118    2
   104   149   148    1
   105   149   150    1
   106   165   164    1
   107   164   163    1
   108   164   167    1
   109     4     3    2
   110   111   110    1
   111   111   112    2
   112   110   113    1
   113    12    11    2
   114     8     6    1
   115   141   140    1
   116   141   142    1
   117   139   138    2
   118   137   140    1
   119   137   138    1
   120   137   136    1
   121   113   114    1
   122   168   167    1
   123    11    10    1
   124     3     2    1
   125     3     9   am
   126     6     5    1
   127     6     7    1
   128     2     5    1
   129     2     1    1
   130   126   125    1
   131    10     9    1
   132    10    13    1
   133   124   123    2
   134   155   154    2
   135   125   122    1
   136   122   123    1
   137   122   121    1
   138   158   157    1
   139   158   159    1
   140   157   156    1
   141   123   127   am
   142    14    13    1
   143    13    15    1
   144   161   160    1
   145   153   154    1
   146   153   156    1
   147   153   152    1
   148   159   160    2
   149   127   128    1
   150   160   162    1
   151   130   129    2
   152   128   129    1
   153   128   131    1
   154   132   131    1
   155   132   133    1
   156   135   133   ar
   157   133   134   ar
