@<TRIPOS>MOLECULE
tmp/6cibC00.pdb
 214 198 0 0 0
SMALL
GASTEIGER

@<TRIPOS>ATOM
      1  N         -2.6600   76.0600    7.9330 N.3     5  TYR5       -0.1241
      2  CA        -2.2070   74.6740    7.9660 C.3     5  TYR5        0.1605
      3  C         -3.3450   73.7980    8.4900 C.2     5  TYR5        0.2264
      4  O         -3.9300   74.0950    9.5400 O.2     5  TYR5       -0.2867
      5  CB        -0.9730   74.5630    8.8720 C.3     5  TYR5        0.0534
      6  CG        -0.3040   73.2030    8.9200 C.ar    5  TYR5       -0.0201
      7  CD1        0.6720   72.8460    7.9780 C.ar    5  TYR5       -0.0009
      8  CD2       -0.6140   72.2870    9.9340 C.ar    5  TYR5       -0.0009
      9  CE1        1.3080   71.6080    8.0300 C.ar    5  TYR5        0.0417
     10  CE2        0.0080   71.0490    9.9960 C.ar    5  TYR5        0.0417
     11  CZ         0.9650   70.7130    9.0420 C.ar    5  TYR5        0.1957
     12  OH         1.5840   69.4890    9.1050 O.3     5  TYR5       -0.2866
     13  N         -2.5810   67.8050   10.2570 N.3     8  GLU8       -0.1245
     14  CA        -2.9090   67.0280   11.4530 C.3     8  GLU8        0.1567
     15  C         -3.9570   67.7460   12.2980 C.2     8  GLU8        0.2260
     16  O         -4.5860   67.1370   13.1610 O.2     8  GLU8       -0.2867
     17  CB        -1.6580   66.7640   12.3030 C.3     8  GLU8        0.0388
     18  CG        -0.5820   65.9190   11.6250 C.3     8  GLU8        0.1160
     19  CD         0.3950   66.7330   10.7830 C.2     8  GLU8        0.3649
     20  OE1        0.2550   67.9830   10.7060 O.co2   8  GLU8       -0.2457
     21  OE2        1.3230   66.1150   10.2230 O.co2   8  GLU8       -0.2457
     22  N         -4.4610   74.9750   12.1740 N.3    11  ARG11      -0.1245
     23  CA        -3.4620   75.8560   12.8070 C.3    11  ARG11       0.1563
     24  C         -3.2900   77.2090   12.1240 C.2    11  ARG11       0.2260
     25  O         -3.3480   77.3130   10.8940 O.2    11  ARG11      -0.2867
     26  CB        -2.0920   75.1600   12.9060 C.3    11  ARG11       0.0307
     27  CG        -2.0980   73.8020   13.6010 C.3    11  ARG11       0.0489
     28  CD        -2.4990   73.8970   15.0680 C.3    11  ARG11       0.2205
     29  NE        -2.7390   72.5730   15.6460 N.pl3  11  ARG11      -0.0865
     30  CZ        -2.9700   72.3270   16.9340 C.cat  11  ARG11       0.5346
     31  NH1       -2.9760   73.3090   17.8330 N.pl3  11  ARG11       0.1354
     32  NH2       -3.1720   71.0750   17.3250 N.pl3  11  ARG11       0.1354
     33  N         -0.5140   78.9140   12.3880 N.3    13  PHE13      -0.1241
     34  CA         0.9050   78.9920   12.0500 C.3    13  PHE13       0.1605
     35  C          1.3730   77.6720   11.4620 C.2    13  PHE13       0.2264
     36  O          0.8470   76.6020   11.7980 O.2    13  PHE13      -0.2867
     37  CB         1.7420   79.3330   13.2870 C.3    13  PHE13       0.0534
     38  CG         1.3960   80.6540   13.9150 C.ar   13  PHE13      -0.0203
     39  CD1        2.0090   81.8320   13.4750 C.ar   13  PHE13      -0.0042
     40  CD2        0.4680   80.7230   14.9590 C.ar   13  PHE13      -0.0042
     41  CE1        1.6890   83.0570   14.0560 C.ar   13  PHE13      -0.0003
     42  CE2        0.1450   81.9450   15.5440 C.ar   13  PHE13      -0.0003
     43  CZ         0.7580   83.1140   15.0900 C.ar   13  PHE13      -0.0000
     44  N          3.9470   74.6010   11.1930 N.3    15  PRO15      -0.2116
     45  CA         4.7070   73.8990   12.2390 C.3    15  PRO15       0.1372
     46  C          6.1590   74.3640   12.4000 C.2    15  PRO15       0.2244
     47  O          6.6520   74.4170   13.5340 O.2    15  PRO15      -0.2868
     48  CB         4.6500   72.4390   11.7910 C.3    15  PRO15       0.0268
     49  CG         3.3580   72.3430   11.0600 C.3    15  PRO15       0.0207
     50  CD         3.2260   73.6480   10.3270 C.3    15  PRO15       0.0892
     51  N          6.0910   77.4080   14.5120 N.3    18  THR18      -0.1218
     52  CA         5.7710   77.0100   15.8850 C.3    18  THR18       0.1862
     53  C          6.9720   76.3730   16.5940 C.2    18  THR18       0.2287
     54  O          7.2240   76.6760   17.7630 O.2    18  THR18      -0.2866
     55  CB         4.5200   76.0970   15.9320 C.3    18  THR18       0.1770
     56  OG1        3.4160   76.8020   15.3600 O.3    18  THR18      -0.2211
     57  CG2        4.1500   75.7000   17.3720 C.3    18  THR18       0.0375
     58  N          4.1160   61.4580   24.2940 N.3    61  ALA61      -0.1231
     59  CA         4.4570   61.2170   22.8980 C.3    61  ALA61       0.1694
     60  C          3.9050   62.3030   21.9830 C.2    61  ALA61       0.2593
     61  O          2.9060   62.9620   22.2980 O.2    61  ALA61      -0.2718
     62  CB         3.9900   59.8350   22.4540 C.3    61  ALA61       0.0304
     63  N          4.6040   62.4980   20.8690 N.am   62  GLY62      -0.1942
     64  CA         4.1570   63.3280   19.7590 C.3    62  GLY62       0.2014
     65  C          4.3140   62.5530   18.4680 C.2    62  GLY62       0.2638
     66  O          5.0170   61.5350   18.4270 O.2    62  GLY62      -0.2714
     67  N          3.6410   63.0190   17.4200 N.am   63  LYS63      -0.1977
     68  CA         3.7140   62.4090   16.0980 C.3    63  LYS63       0.1596
     69  C          3.2370   63.3890   15.0270 C.2    63  LYS63       0.2287
     70  O          2.6550   64.4300   15.3430 O.2    63  LYS63      -0.2864
     71  CB         2.9310   61.0770   16.0480 C.3    63  LYS63       0.0298
     72  CG         1.4160   61.1860   15.9310 C.3    63  LYS63       0.0038
     73  CD         0.7480   61.5720   17.2350 C.3    63  LYS63       0.0206
     74  CE        -0.7620   61.5520   17.0800 C.3    63  LYS63       0.1093
     75  NZ        -1.3920   62.1850   18.2670 N.3    63  LYS63      -0.1314
     76  N          6.5870   68.4910   12.7790 N.3    69  GLN69      -0.1245
     77  CA         5.2640   68.4020   13.4040 C.3    69  GLN69       0.1566
     78  C          5.2880   67.4280   14.5700 C.2    69  GLN69       0.2260
     79  O          4.7170   67.7190   15.6270 O.2    69  GLN69      -0.2867
     80  CB         4.1580   68.0650   12.3850 C.3    69  GLN69       0.0367
     81  CG         2.7400   67.9050   12.9710 C.3    69  GLN69       0.0905
     82  CD         2.2520   69.0790   13.8250 C.2    69  GLN69       0.2608
     83  OE1        2.6560   70.2330   13.6380 O.2    69  GLN69      -0.2717
     84  NE2        1.3610   68.7820   14.7670 N.am   69  GLN69      -0.0878
     85  N          6.8350   69.4410   17.3690 N.3    72  VAL72      -0.1231
     86  CA         5.9090   70.4130   18.0000 C.3    72  VAL72       0.1692
     87  C          4.8080   69.7130   18.8040 C.2    72  VAL72       0.2592
     88  O          4.4950   70.1360   19.9150 O.2    72  VAL72      -0.2718
     89  CB         5.3940   71.6080   17.1070 C.3    72  VAL72       0.0266
     90  CG1        6.0550   71.7220   15.7430 C.3    72  VAL72       0.0020
     91  CG2        3.8740   71.6900   17.0240 C.3    72  VAL72       0.0020
     92  N          4.2760   68.6300   18.2360 N.am   73  SER73      -0.1952
     93  CA         3.2940   67.7510   18.8740 C.3    73  SER73       0.1924
     94  C          3.7560   67.2580   20.2510 C.2    73  SER73       0.2314
     95  O          3.0170   67.3700   21.2370 O.2    73  SER73      -0.2863
     96  CB         3.0020   66.5600   17.9510 C.3    73  SER73       0.2116
     97  OG         2.2460   65.5590   18.6020 O.3    73  SER73      -0.2180
     98  N          2.3330   68.6620   23.8440 N.3    76  GLU76      -0.1245
     99  CA         1.8020   67.6050   24.7200 C.3    76  GLU76       0.1567
    100  C          2.3630   67.7310   26.1400 C.2    76  GLU76       0.2260
    101  O          1.6300   67.5620   27.1280 O.2    76  GLU76      -0.2867
    102  CB         2.1070   66.2240   24.1260 C.3    76  GLU76       0.0388
    103  CG         1.7940   65.0110   25.0020 C.3    76  GLU76       0.1160
    104  CD         0.3420   64.5740   24.9640 C.2    76  GLU76       0.3649
    105  OE1       -0.2380   64.4830   23.8630 O.co2  76  GLU76      -0.2457
    106  OE2       -0.2150   64.2980   26.0490 O.co2  76  GLU76      -0.2457
    107  N          0.6580   71.0140   27.7150 N.3    79  GLU79      -0.1245
    108  CA        -0.7230   70.7970   28.1600 C.3    79  GLU79       0.1567
    109  C         -0.7740   70.0030   29.4720 C.2    79  GLU79       0.2260
    110  O         -1.5590   70.3220   30.3650 O.2    79  GLU79      -0.2867
    111  CB        -1.5780   70.1290   27.0670 C.3    79  GLU79       0.0388
    112  CG        -1.4010   68.6200   26.9250 C.3    79  GLU79       0.1160
    113  CD        -2.4910   67.9460   26.1140 C.2    79  GLU79       0.3649
    114  OE1       -2.7330   68.3520   24.9480 O.co2  79  GLU79      -0.2457
    115  OE2       -3.0910   66.9700   26.6300 O.co2  79  GLU79      -0.2457
    116  N         -8.4100   67.9870   26.9250 N.3   146  LEU146     -0.1231
    117  CA        -7.2890   68.8260   27.3060 C.3   146  LEU146      0.1693
    118  C         -6.4580   69.0980   26.0690 C.2   146  LEU146      0.2593
    119  O         -6.0450   68.1590   25.3790 O.2   146  LEU146     -0.2718
    120  CB        -6.4340   68.1410   28.3810 C.3   146  LEU146      0.0284
    121  CG        -5.1570   68.8390   28.8680 C.3   146  LEU146      0.0019
    122  CD1       -5.4310   70.1230   29.6480 C.3   146  LEU146      0.0001
    123  CD2       -4.3440   67.8540   29.7000 C.3   146  LEU146      0.0001
    124  N         -6.2150   70.3760   25.7900 N.am  147  SER147     -0.1938
    125  CA        -5.5080   70.7410   24.5670 C.3   147  SER147      0.2055
    126  C         -4.7510   72.0630   24.6270 C.2   147  SER147      0.2643
    127  O         -5.1840   73.0290   25.2580 O.2   147  SER147     -0.2714
    128  CB        -6.4660   70.7020   23.3640 C.3   147  SER147      0.2130
    129  OG        -5.8090   71.1670   22.2070 O.3   147  SER147     -0.2179
    130  N         -3.6060   72.0770   23.9520 N.am  148  ALA148     -0.1963
    131  CA        -2.7530   73.2430   23.8660 C.3   148  ALA148      0.1728
    132  C         -2.7250   73.7630   22.4370 C.2   148  ALA148      0.2617
    133  O         -2.8750   73.0030   21.4780 O.2   148  ALA148     -0.2715
    134  CB        -1.3430   72.8980   24.3450 C.3   148  ALA148      0.0334
    135  N         -2.5450   75.0690   22.3030 N.am  149  GLY149     -0.1940
    136  CA        -2.3810   75.6800   20.9970 C.3   149  GLY149      0.2014
    137  C         -1.6340   76.9870   21.0700 C.2   149  GLY149      0.2638
    138  O         -1.3250   77.4860   22.1550 O.2   149  GLY149     -0.2714
    139  N         -1.3390   77.5410   19.9030 N.am  150  ARG150     -0.1977
    140  CA        -0.7460   78.8630   19.8260 C.3   150  ARG150      0.1597
    141  C         -1.7820   79.9710   20.0100 C.2   150  ARG150      0.2287
    142  O         -1.4350   81.0980   20.3620 O.2   150  ARG150     -0.2864
    143  CB         0.0280   79.0110   18.5370 C.3   150  ARG150      0.0334
    144  CG         1.3610   78.2990   18.6330 C.3   150  ARG150      0.0492
    145  CD         2.3300   78.8380   17.6220 C.3   150  ARG150      0.2205
    146  NE         2.6800   80.2360   17.8390 N.pl3 150  ARG150     -0.0865
    147  CZ         3.5540   80.8860   17.0820 C.cat 150  ARG150      0.5346
    148  NH1        4.1570   80.2550   16.0850 N.pl3 150  ARG150      0.1354
    149  NH2        3.8270   82.1600   17.3220 N.pl3 150  ARG150      0.1354
    150  N         -7.3730   77.4130   18.6330 N.3   154  GLU154     -0.1245
    151  CA        -6.6930   76.1820   18.2120 C.3   154  GLU154      0.1567
    152  C         -6.9230   75.0880   19.2450 C.2   154  GLU154      0.2260
    153  O         -7.2390   73.9410   18.8980 O.2   154  GLU154     -0.2867
    154  CB        -5.1790   76.4040   18.0450 C.3   154  GLU154      0.0388
    155  CG        -4.7230   77.0060   16.7190 C.3   154  GLU154      0.1160
    156  CD        -3.2000   77.1210   16.6060 C.2   154  GLU154      0.3649
    157  OE1       -2.7240   77.7600   15.6410 O.co2 154  GLU154     -0.2457
    158  OE2       -2.4640   76.5800   17.4740 O.co2 154  GLU154     -0.2457
    159  N         -9.2320   71.6080   18.9120 N.3   158  GLN158     -0.1245
    160  CA        -8.6030   70.3210   19.1810 C.3   158  GLN158      0.1566
    161  C         -9.2880   69.5710   20.3250 C.2   158  GLN158      0.2260
    162  O         -9.5620   68.3710   20.2090 O.2   158  GLN158     -0.2867
    163  CB        -7.1200   70.5200   19.4990 C.3   158  GLN158      0.0367
    164  CG        -6.3130   69.2320   19.6060 C.3   158  GLN158      0.0905
    165  CD        -5.7880   68.7380   18.2670 C.2   158  GLN158      0.2608
    166  OE1       -6.0810   69.3030   17.2160 O.2   158  GLN158     -0.2717
    167  NE2       -4.9960   67.6750   18.3070 N.am  158  GLN158     -0.0878
    168  N        -11.5840   66.1140   20.1450 N.3   162  GLU162     -0.1245
    169  CA       -11.2200   64.9730   20.9900 C.3   162  GLU162      0.1567
    170  C        -12.4360   64.4220   21.7630 C.2   162  GLU162      0.2260
    171  O        -12.6230   63.2080   21.8480 O.2   162  GLU162     -0.2867
    172  CB       -10.0760   65.3430   21.9360 C.3   162  GLU162      0.0388
    173  CG        -9.4160   64.1500   22.6080 C.3   162  GLU162      0.1160
    174  CD        -8.2030   64.5440   23.4360 C.2   162  GLU162      0.3649
    175  OE1       -8.3670   65.2000   24.4870 O.co2 162  GLU162     -0.2457
    176  OE2       -7.0680   64.1980   23.0370 O.co2 162  GLU162     -0.2457
    177  N        -14.6590   62.5790   19.2440 N.3   165  GLU165     -0.1245
    178  CA       -13.9350   61.3380   18.9790 C.3   165  GLU165      0.1567
    179  C        -14.2480   60.2510   20.0290 C.2   165  GLU165      0.2260
    180  O        -14.6430   59.1370   19.6810 O.2   165  GLU165     -0.2867
    181  CB       -12.4410   61.6610   18.9400 C.3   165  GLU165      0.0388
    182  CG       -11.5120   60.5150   18.5970 C.3   165  GLU165      0.1160
    183  CD       -10.0610   60.8570   18.8950 C.2   165  GLU165      0.3649
    184  OE1       -9.5460   61.8510   18.3380 O.co2 165  GLU165     -0.2457
    185  OE2       -9.4330   60.1340   19.6960 O.co2 165  GLU165     -0.2457
    186  N         -5.3940   61.3850   11.3140 N.3   242  ARG242     -0.1245
    187  CA        -5.2580   61.3540   12.7770 C.3   242  ARG242      0.1563
    188  C         -5.3050   59.9320   13.3390 C.2   242  ARG242      0.2260
    189  O         -4.4780   59.5720   14.1860 O.2   242  ARG242     -0.2867
    190  CB        -6.3170   62.2240   13.4430 C.3   242  ARG242      0.0307
    191  CG        -6.0730   63.7140   13.3070 C.3   242  ARG242      0.0489
    192  CD        -7.2560   64.5200   13.8160 C.3   242  ARG242      0.2205
    193  NE        -6.7850   65.8600   14.1330 N.pl3 242  ARG242     -0.0865
    194  CZ        -7.3490   66.7230   14.9770 C.cat 242  ARG242      0.5346
    195  NH1       -8.4760   66.4340   15.6470 N.pl3 242  ARG242      0.1354
    196  NH2       -6.7510   67.8970   15.1480 N.pl3 242  ARG242      0.1354
    197  N         -2.2210   57.9580   15.2720 N.3   246  GLU246     -0.1245
    198  CA        -2.4000   57.3380   16.5910 C.3   246  GLU246      0.1567
    199  C         -1.9040   55.8930   16.6380 C.2   246  GLU246      0.2260
    200  O         -1.3020   55.4830   17.6330 O.2   246  GLU246     -0.2867
    201  CB        -3.8500   57.4450   17.0810 C.3   246  GLU246      0.0388
    202  CG        -4.0700   58.5530   18.1090 C.3   246  GLU246      0.1160
    203  CD        -5.4720   58.5860   18.7240 C.2   246  GLU246      0.3649
    204  OE1       -6.0790   57.5130   18.9700 O.co2 246  GLU246     -0.2457
    205  OE2       -5.9750   59.7100   18.9790 O.co2 246  GLU246     -0.2457
    206  N          1.9500   56.0910   16.6940 N.3   249  GLN249     -0.1245
    207  CA         2.3130   56.5010   18.0460 C.3   249  GLN249      0.1566
    208  C          2.1590   55.3270   19.0230 C.2   249  GLN249      0.2260
    209  O          3.0550   55.0710   19.8360 O.2   249  GLN249     -0.2867
    210  CB         1.4570   57.6920   18.4690 C.3   249  GLN249      0.0367
    211  CG         1.7850   58.2690   19.8330 C.3   249  GLN249      0.0905
    212  CD         0.8830   59.4340   20.2000 C.2   249  GLN249      0.2608
    213  OE1        1.3540   60.5480   20.4190 O.2   249  GLN249     -0.2717
    214  NE2       -0.4200   59.1880   20.2520 N.am  249  GLN249     -0.0878
@<TRIPOS>BOND
     1     1     2    1
     2     2     3    1
     3     2     5    1
     4     7     9   ar
     5     7     6   ar
     6     9    11   ar
     7     3     4    2
     8     5     6    1
     9     6     8   ar
    10    11    12    1
    11    11    10   ar
    12     8    10   ar
    13    21    19   ar
    14    13    14    1
    15    50    49    1
    16    50    44    1
    17    20    19   ar
    18    19    18    1
    19    25    24    2
    20    49    48    1
    21    44    45    1
    22   186   187    1
    23    14    15    1
    24    14    17    1
    25    35    36    2
    26    35    34    1
    27    18    17    1
    28    48    45    1
    29    34    33    1
    30    34    37    1
    31    24    23    1
    32    22    23    1
    33    45    46    1
    34    15    16    2
    35    80    81    1
    36    80    77    1
    37    46    47    2
    38   187   188    1
    39   187   190    1
    40    76    77    1
    41    23    26    1
    42    26    27    1
    43    81    82    1
    44    37    38    1
    45   191   190    1
    46   191   192    1
    47   188   189    2
    48    77    78    1
    49    39    38   ar
    50    39    41   ar
    51    27    28    1
    52    83    82    2
    53   192   193    1
    54    82    84   am
    55    38    40   ar
    56    41    43   ar
    57   193   194    2
    58    51    52    1
    59    78    79    2
    60    40    42   ar
    61   194   196    1
    62   194   195    1
    63    69    70    2
    64    69    68    1
    65    28    29    1
    66    43    42   ar
    67   197   198    1
    68    56    55    1
    69   157   156   ar
    70    29    30    2
    71    90    89    1
    72    52    55    1
    73    52    53    1
    74    72    71    1
    75    72    73    1
    76    55    57    1
    77    71    68    1
    78   148   147    1
    79    68    67    1
    80   198   199    1
    81   198   201    1
    82    53    54    2
    83   156   155    1
    84   156   158   ar
    85   199   200    2
    86   206   207    1
    87   155   154    1
    88    30    32    1
    89    30    31    1
    90    91    89    1
    91    74    73    1
    92    74    75    1
    93   201   202    1
    94   147   149    1
    95   147   146    2
    96    89    86    1
    97   166   165    2
    98    85    86    1
    99    67    65   am
   100   145   146    1
   101   145   144    1
   102    96    97    1
   103    96    93    1
   104    86    87    1
   105   154   151    1
   106   207   210    1
   107   207   208    1
   108   202   203    1
   109   151   150    1
   110   151   152    1
   111    92    87   am
   112    92    93    1
   113   165   167   am
   114   165   164    1
   115   184   183   ar
   116    66    65    2
   117    65    64    1
   118   210   211    1
   119   143   144    1
   120   143   140    1
   121   182   183    1
   122   182   181    1
   123   203   204   ar
   124   203   205   ar
   125    87    88    2
   126    93    94    1
   127   183   185   ar
   128   153   152    2
   129   159   160    1
   130   181   178    1
   131   178   177    1
   132   178   179    1
   133   208   209    2
   134   160   163    1
   135   160   161    1
   136   163   164    1
   137   180   179    2
   138    64    63    1
   139   140   139    1
   140   140   141    1
   141   211   212    1
   142   139   137   am
   143   141   142    2
   144   168   169    1
   145   212   214   am
   146   212   213    2
   147   162   161    2
   148    94    95    2
   149    63    60   am
   150   169   170    1
   151   169   172    1
   152   136   137    1
   153   136   135    1
   154   137   138    2
   155   133   132    2
   156   170   171    2
   157   172   173    1
   158    60    61    2
   159    60    59    1
   160   129   128    1
   161   135   132   am
   162   132   131    1
   163    62    59    1
   164   173   174    1
   165    59    58    1
   166   176   174   ar
   167   128   125    1
   168   174   175   ar
   169    98    99    1
   170   105   104   ar
   171   131   130    1
   172   131   134    1
   173   130   126   am
   174   102    99    1
   175   102   103    1
   176   125   126    1
   177   125   124    1
   178   126   127    2
   179    99   100    1
   180   114   113   ar
   181   104   103    1
   182   104   106   ar
   183   119   118    2
   184   124   118   am
   185   118   117    1
   186   113   115   ar
   187   113   112    1
   188   100   101    2
   189   112   111    1
   190   116   117    1
   191   111   108    1
   192   117   120    1
   193   107   108    1
   194   108   109    1
   195   120   121    1
   196   121   122    1
   197   121   123    1
   198   109   110    2
