@<TRIPOS>MOLECULE
tmp/6cicB03.pdb
 198 195 0 0 0
SMALL
GASTEIGER

@<TRIPOS>ATOM
      1  N        107.8050  252.6400  335.9920 N.3    38  MET38      -0.1245
      2  CA       108.3490  252.1860  334.7160 C.3    38  MET38       0.1570
      3  C        108.1660  253.2350  333.6230 C.2    38  MET38       0.2261
      4  O        109.0640  253.4390  332.7930 O.2    38  MET38      -0.2867
      5  CB       107.7180  250.8570  334.3060 C.3    38  MET38       0.0387
      6  CG       108.5340  250.1630  333.2150 C.3    38  MET38       0.0595
      7  SD       108.0020  248.4880  332.8310 S.3    38  MET38      -0.1393
      8  CE       107.8920  247.7770  334.4600 C.3    38  MET38       0.0692
      9  N        121.7130  255.9000  322.1170 N.3   111  TRP111     -0.1241
     10  CA       122.1130  254.7040  322.8620 C.3   111  TRP111      0.1605
     11  C        123.0020  255.0740  324.0520 C.2   111  TRP111      0.2264
     12  O        122.7820  254.6090  325.1800 O.2   111  TRP111     -0.2867
     13  CB       122.8180  253.7310  321.9140 C.3   111  TRP111      0.0550
     14  CG       123.2350  252.4050  322.5160 C.ar  111  TRP111      0.0003
     15  CD1      122.8990  251.8940  323.7550 C.ar  111  TRP111      0.0946
     16  CD2      124.0880  251.4400  321.9060 C.ar  111  TRP111      0.0152
     17  NE1      123.4780  250.6600  323.9270 N.ar  111  TRP111     -0.2442
     18  CE2      124.2100  250.3560  322.8020 C.ar  111  TRP111      0.0810
     19  CE3      124.7310  251.3630  320.6560 C.ar  111  TRP111      0.0012
     20  CZ2      125.0010  249.2410  322.5150 C.ar  111  TRP111      0.0191
     21  CZ3      125.5080  250.2460  320.3700 C.ar  111  TRP111      0.0001
     22  CH2      125.6240  249.1980  321.2930 C.ar  111  TRP111      0.0015
     23  N        106.4300  244.4910  319.0620 N.3   179  SER179     -0.1202
     24  CA       107.2790  245.1110  320.0710 C.3   179  SER179      0.2020
     25  C        108.7480  244.7490  319.8800 C.2   179  SER179      0.2618
     26  O        109.6200  245.5600  320.2060 O.2   179  SER179     -0.2717
     27  CB       106.8000  244.7390  321.4830 C.3   179  SER179      0.2103
     28  OG       106.6400  243.3430  321.6140 O.3   179  SER179     -0.2182
     29  N        109.0340  243.5550  319.3480 N.am  180  GLN180     -0.1979
     30  CA       110.3490  243.1780  318.8440 C.3   180  GLN180      0.1601
     31  C        110.1820  242.5490  317.4670 C.2   180  GLN180      0.2287
     32  O        109.1470  241.9510  317.1720 O.2   180  GLN180     -0.2864
     33  CB       111.0830  242.1870  319.7640 C.3   180  GLN180      0.0394
     34  CG       111.3360  242.7160  321.1790 C.3   180  GLN180      0.0908
     35  CD       112.0560  241.7100  322.0700 C.2   180  GLN180      0.2608
     36  OE1      112.8540  240.8950  321.6040 O.2   180  GLN180     -0.2717
     37  NE2      111.7680  241.7660  323.3640 N.am  180  GLN180     -0.0878
     38  N        109.6440  237.5950  317.9310 N.3   183  ARG183     -0.1245
     39  CA       109.0020  237.2830  319.2070 C.3   183  ARG183      0.1563
     40  C        108.0590  236.1130  318.9900 C.2   183  ARG183      0.2260
     41  O        107.7150  235.7840  317.8570 O.2   183  ARG183     -0.2867
     42  CB       108.2380  238.4830  319.7670 C.3   183  ARG183      0.0307
     43  CG       108.9960  239.1920  320.8540 C.3   183  ARG183      0.0489
     44  CD       108.0690  239.8750  321.8090 C.3   183  ARG183      0.2205
     45  NE       108.5240  239.7050  323.1820 N.pl3 183  ARG183     -0.0865
     46  CZ       108.0340  240.3910  324.2070 C.cat 183  ARG183      0.5346
     47  NH1      107.0820  241.2960  324.0000 N.pl3 183  ARG183      0.1354
     48  NH2      108.5020  240.1800  325.4310 N.pl3 183  ARG183      0.1354
     49  N        117.7890  239.9830  319.8500 N.3   267  PRO267     -0.2116
     50  CA       116.8200  240.8940  320.4820 C.3   267  PRO267      0.1372
     51  C        116.7730  242.2020  319.7020 C.2   267  PRO267      0.2244
     52  O        117.7800  242.9030  319.5800 O.2   267  PRO267     -0.2868
     53  CB       117.3880  241.0930  321.8910 C.3   267  PRO267      0.0268
     54  CG       118.8730  240.9310  321.7160 C.3   267  PRO267      0.0207
     55  CD       119.1000  239.9950  320.5330 C.3   267  PRO267      0.0892
     56  N        114.4070  245.5500  319.3810 N.3   269  VAL269     -0.1245
     57  CA       113.2930  246.3500  319.8750 C.3   269  VAL269      0.1561
     58  C        112.7670  247.2390  318.7660 C.2   269  VAL269      0.2260
     59  O        113.5180  248.0290  318.1820 O.2   269  VAL269     -0.2867
     60  CB       113.7360  247.1980  321.0700 C.3   269  VAL269      0.0252
     61  CG1      112.6380  248.2040  321.4170 C.3   269  VAL269      0.0019
     62  CG2      114.0760  246.2880  322.2400 C.3   269  VAL269      0.0019
     63  N        109.4940  249.0560  318.9540 N.3   271  ASN271     -0.1225
     64  CA       108.3420  249.8990  319.2670 C.3   271  ASN271      0.1785
     65  C        108.7180  251.2000  319.9670 C.2   271  ASN271      0.2597
     66  O        107.8230  251.9560  320.3620 O.2   271  ASN271     -0.2718
     67  CB       107.3140  249.1280  320.1000 C.3   271  ASN271      0.1169
     68  CG       107.8610  248.6680  321.4240 C.2   271  ASN271      0.2627
     69  OD1      109.0230  248.9250  321.7710 O.2   271  ASN271     -0.2716
     70  ND2      107.0190  247.9720  322.1870 N.am  271  ASN271     -0.0877
     71  N        110.0000  251.5070  320.0940 N.am  272  MET272     -0.1979
     72  CA       110.3780  252.7640  320.7120 C.3   272  MET272      0.1605
     73  C        110.4800  253.8850  319.6830 C.2   272  MET272      0.2287
     74  O        110.3950  253.6750  318.4660 O.2   272  MET272     -0.2864
     75  CB       111.6810  252.5920  321.4880 C.3   272  MET272      0.0413
     76  CG       111.4630  251.6990  322.7130 C.3   272  MET272      0.0598
     77  SD       112.8570  251.7000  323.8290 S.3   272  MET272     -0.1393
     78  CE       112.5100  253.1980  324.7640 C.3   272  MET272      0.0692
     79  N        116.0380  248.5910  316.6460 N.3   286  PHE286     -0.1227
     80  CA       117.4480  248.4810  316.9750 C.3   286  PHE286      0.1736
     81  C        117.7030  247.1580  317.6790 C.2   286  PHE286      0.2596
     82  O        116.8320  246.6340  318.3750 O.2   286  PHE286     -0.2718
     83  CB       117.9100  249.6530  317.8440 C.3   286  PHE286      0.0547
     84  CG       117.1890  249.7620  319.1690 C.ar  286  PHE286     -0.0202
     85  CD1      117.6400  249.0550  320.2830 C.ar  286  PHE286     -0.0042
     86  CD2      116.0830  250.5850  319.3070 C.ar  286  PHE286     -0.0042
     87  CE1      116.9800  249.1650  321.5140 C.ar  286  PHE286     -0.0003
     88  CE2      115.4240  250.7030  320.5370 C.ar  286  PHE286     -0.0003
     89  CZ       115.8750  249.9940  321.6310 C.ar  286  PHE286     -0.0000
     90  N        118.9050  246.6150  317.4820 N.am  287  SER287     -0.1938
     91  CA       119.2120  245.2750  317.9450 C.3   287  SER287      0.2055
     92  C        120.6410  245.2280  318.4580 C.2   287  SER287      0.2644
     93  O        121.5060  246.0000  318.0350 O.2   287  SER287     -0.2714
     94  CB       118.9970  244.2200  316.8580 C.3   287  SER287      0.2130
     95  OG       119.9200  244.3630  315.7790 O.3   287  SER287     -0.2179
     96  N        120.8640  244.3290  319.4040 N.am  288  GLY288     -0.1939
     97  CA       122.1780  244.1320  319.9880 C.3   288  GLY288      0.2014
     98  C        122.4030  242.6490  320.1750 C.2   288  GLY288      0.2639
     99  O        122.3230  241.8810  319.2190 O.2   288  GLY288     -0.2714
    100  N        122.6470  242.2280  321.4070 N.am  289  TRP289     -0.1959
    101  CA       122.6340  240.8150  321.7460 C.3   289  TRP289      0.1771
    102  C        122.1490  240.6980  323.1820 C.2   289  TRP289      0.2620
    103  O        122.0740  241.6870  323.9080 O.2   289  TRP289     -0.2715
    104  CB       124.0050  240.1650  321.5820 C.3   289  TRP289      0.0590
    105  CG       125.1550  240.8710  322.2770 C.ar  289  TRP289      0.0006
    106  CD1      125.5170  240.7870  323.6130 C.ar  289  TRP289      0.0946
    107  CD2      126.1150  241.7260  321.6580 C.ar  289  TRP289      0.0152
    108  NE1      126.6430  241.5520  323.8430 N.ar  289  TRP289     -0.2442
    109  CE2      127.0300  242.1340  322.6590 C.ar  289  TRP289      0.0810
    110  CE3      126.3110  242.1660  320.3430 C.ar  289  TRP289      0.0012
    111  CZ2      128.0970  242.9910  322.3880 C.ar  289  TRP289      0.0191
    112  CZ3      127.3870  243.0130  320.0710 C.ar  289  TRP289      0.0001
    113  CH2      128.2640  243.4120  321.0870 C.ar  289  TRP289      0.0015
    114  N        121.8630  239.4700  323.5970 N.am  290  TYR290     -0.1960
    115  CA       121.2260  239.2450  324.8870 C.3   290  TYR290      0.1771
    116  C        122.2320  239.2040  326.0330 C.2   290  TYR290      0.2619
    117  O        123.3640  238.7310  325.8880 O.2   290  TYR290     -0.2715
    118  CB       120.4740  237.9240  324.8700 C.3   290  TYR290      0.0574
    119  CG       119.0340  237.9980  324.4800 C.ar  290  TYR290     -0.0198
    120  CD1      118.5810  237.3560  323.3270 C.ar  290  TYR290     -0.0009
    121  CD2      118.1130  238.6810  325.2700 C.ar  290  TYR290     -0.0009
    122  CE1      117.2540  237.3950  322.9730 C.ar  290  TYR290      0.0417
    123  CE2      116.7820  238.7330  324.9310 C.ar  290  TYR290      0.0417
    124  CZ       116.3550  238.0910  323.7750 C.ar  290  TYR290      0.1957
    125  OH       115.0260  238.1240  323.4440 O.3   290  TYR290     -0.2866
    126  N        121.7880  239.6980  327.1900 N.am  291  MET291     -0.1977
    127  CA       122.3270  239.2820  328.4750 C.3   291  MET291      0.1605
    128  C        121.5130  238.0780  328.9350 C.2   291  MET291      0.2287
    129  O        120.2890  238.0790  328.8180 O.2   291  MET291     -0.2864
    130  CB       122.2470  240.4150  329.5040 C.3   291  MET291      0.0413
    131  CG       122.9410  240.0690  330.8160 C.3   291  MET291      0.0598
    132  SD       123.1750  241.5090  331.8890 S.3   291  MET291     -0.1393
    133  CE       121.5060  241.7560  332.4880 C.3   291  MET291      0.0692
    134  N        118.0380  238.0360  330.6970 N.3   294  GLU294     -0.1245
    135  CA       116.8240  238.4870  330.0160 C.3   294  GLU294      0.1567
    136  C        115.9430  237.3040  329.6470 C.2   294  GLU294      0.2260
    137  O        114.7200  237.3570  329.8070 O.2   294  GLU294     -0.2867
    138  CB       117.1840  239.2830  328.7620 C.3   294  GLU294      0.0388
    139  CG       117.9330  240.5610  329.0490 C.3   294  GLU294      0.1160
    140  CD       118.2030  241.3460  327.7740 C.2   294  GLU294      0.3649
    141  OE1      117.2370  241.9340  327.2210 O.co2 294  GLU294     -0.2457
    142  OE2      119.3660  241.3380  327.3070 O.co2 294  GLU294     -0.2457
    143  N        113.7890  236.4710  333.2150 N.3   298  ARG298     -0.1231
    144  CA       112.5300  237.1830  332.9860 C.3   298  ARG298      0.1694
    145  C        111.6150  236.4360  332.0050 C.2   298  ARG298      0.2592
    146  O        110.4590  236.1350  332.3300 O.2   298  ARG298     -0.2718
    147  CB       112.8190  238.6070  332.4930 C.3   298  ARG298      0.0321
    148  CG       113.7410  239.4440  333.4050 C.3   298  ARG298      0.0489
    149  CD       113.1240  239.6900  334.8100 C.3   298  ARG298      0.2205
    150  NE       111.7270  240.1000  334.6970 N.pl3 298  ARG298     -0.0865
    151  CZ       111.3320  241.3280  334.3670 C.cat 298  ARG298      0.5346
    152  NH1      112.2330  242.2860  334.1390 N.pl3 298  ARG298      0.1354
    153  NH2      110.0340  241.5910  334.2550 N.pl3 298  ARG298      0.1354
    154  N        112.1100  236.1270  330.7920 N.am  299  ASP299     -0.1974
    155  CA       111.2480  235.4860  329.7970 C.3   299  ASP299      0.1709
    156  C        110.7650  234.1160  330.2720 C.2   299  ASP299      0.2293
    157  O        109.5930  233.7630  330.0870 O.2   299  ASP299     -0.2864
    158  CB       111.9770  235.3510  328.4470 C.3   299  ASP299      0.1436
    159  CG       112.3460  236.7030  327.8280 C.2   299  ASP299      0.3671
    160  OD1      111.6230  237.6950  328.0570 O.co2 299  ASP299     -0.2456
    161  OD2      113.3620  236.7740  327.0970 O.co2 299  ASP299     -0.2456
    162  N        105.0740  235.2760  332.3100 N.3   305  ARG305     -0.1245
    163  CA       105.6940  234.9040  331.0420 C.3   305  ARG305      0.1563
    164  C        105.6370  233.3740  330.9090 C.2   305  ARG305      0.2260
    165  O        104.5800  232.8060  331.1910 O.2   305  ARG305     -0.2867
    166  CB       107.0880  235.5010  330.9550 C.3   305  ARG305      0.0307
    167  CG       107.1340  237.0150  331.0310 C.3   305  ARG305      0.0489
    168  CD       106.5020  237.6550  329.8120 C.3   305  ARG305      0.2205
    169  NE       107.1290  237.1910  328.5690 N.pl3 305  ARG305     -0.0865
    170  CZ       108.3390  237.5530  328.1450 C.cat 305  ARG305      0.5346
    171  NH1      109.0770  238.3890  328.8690 N.pl3 305  ARG305      0.1354
    172  NH2      108.8140  237.0710  326.9900 N.pl3 305  ARG305      0.1354
    173  N        117.0830  249.4770  336.6900 N.3   380  TRP380     -0.1241
    174  CA       117.1830  248.6450  335.4990 C.3   380  TRP380      0.1605
    175  C        118.5600  248.0090  335.3060 C.2   380  TRP380      0.2264
    176  O        118.6480  246.9020  334.7520 O.2   380  TRP380     -0.2867
    177  CB       116.8130  249.4740  334.2610 C.3   380  TRP380      0.0550
    178  CG       115.3320  249.4760  333.9720 C.ar  380  TRP380      0.0003
    179  CD1      114.3270  249.9600  334.7640 C.ar  380  TRP380      0.0946
    180  CD2      114.7080  248.9640  332.7920 C.ar  380  TRP380      0.0152
    181  NE1      113.1030  249.7600  334.1510 N.ar  380  TRP380     -0.2442
    182  CE2      113.3180  249.1510  332.9360 C.ar  380  TRP380      0.0810
    183  CE3      115.1960  248.3520  331.6300 C.ar  380  TRP380      0.0012
    184  CZ2      112.4070  248.7460  331.9600 C.ar  380  TRP380      0.0191
    185  CZ3      114.2880  247.9560  330.6440 C.ar  380  TRP380      0.0001
    186  CH2      112.9090  248.1640  330.8160 C.ar  380  TRP380      0.0015
    187  N        109.5210  255.6920  325.0430 N.3   408  TYR408     -0.1241
    188  CA       108.3610  254.8540  324.7910 C.3   408  TYR408      0.1605
    189  C        107.2770  255.6540  324.0740 C.2   408  TYR408      0.2264
    190  O        107.2540  256.8850  324.1050 O.2   408  TYR408     -0.2867
    191  CB       107.8310  254.2660  326.1000 C.3   408  TYR408      0.0534
    192  CG       108.7690  253.2270  326.6430 C.ar  408  TYR408     -0.0201
    193  CD1      109.6200  253.5150  327.7000 C.ar  408  TYR408     -0.0009
    194  CD2      108.8440  251.9670  326.0610 C.ar  408  TYR408     -0.0009
    195  CE1      110.4980  252.5640  328.1870 C.ar  408  TYR408      0.0417
    196  CE2      109.7140  251.0090  326.5360 C.ar  408  TYR408      0.0417
    197  CZ       110.5390  251.3120  327.6040 C.ar  408  TYR408      0.1957
    198  OH       111.4160  250.3600  328.0810 O.3   408  TYR408     -0.2866
@<TRIPOS>BOND
     1    95    94    1
     2    79    80    1
     3    94    91    1
     4    80    81    1
     5    80    83    1
     6    32    31    2
     7    31    30    1
     8    90    81   am
     9    90    91    1
    10    81    82    2
    11    83    84    1
    12    41    40    2
    13    38    39    1
    14    91    92    1
    15    93    92    2
    16    59    58    2
    17    92    96   am
    18    74    73    2
    19    58    57    1
    20    30    29    1
    21    30    33    1
    22    63    64    1
    23    40    39    1
    24    23    24    1
    25    84    86   ar
    26    84    85   ar
    27    39    42    1
    28    99    98    2
    29    64    65    1
    30    64    67    1
    31    86    88   ar
    32    29    25   am
    33    56    57    1
    34    96    97    1
    35    52    51    2
    36    73    72    1
    37    51    50    1
    38    33    34    1
    39    42    43    1
    40    49    50    1
    41    49    55    1
    42    57    60    1
    43    25    24    1
    44    25    26    2
    45    65    71   am
    46    65    66    2
    47    97    98    1
    48   112   110   ar
    49   112   113   ar
    50    24    27    1
    51    71    72    1
    52    67    68    1
    53    98   100   am
    54    85    87   ar
    55   110   107   ar
    56    21    19   ar
    57    21    22   ar
    58    50    53    1
    59    55    54    1
    60    88    89   ar
    61    19    16   ar
    62    72    75    1
    63    43    44    1
    64    60    61    1
    65    60    62    1
    66   113   111   ar
    67    34    35    1
    68    22    20   ar
    69   100   101    1
    70    68    69    2
    71    68    70   am
    72    27    28    1
    73    75    76    1
    74    87    89   ar
    75   104   101    1
    76   104   105    1
    77    36    35    2
    78   107   105   ar
    79   107   109   ar
    80    54    53    1
    81   101   102    1
    82    44    45    1
    83    16    14   ar
    84    16    18   ar
    85    13    14    1
    86    13    10    1
    87    35    37   am
    88     9    10    1
    89   105   106   ar
    90   111   109   ar
    91    20    18   ar
    92    14    15   ar
    93   109   108   ar
    94    76    77    1
    95    18    17   ar
    96    10    11    1
    97   122   120   ar
    98   122   124   ar
    99    45    46    2
   100   102   114   am
   101   102   103    2
   102   120   119   ar
   103   125   124    1
   104   114   115    1
   105   106   108   ar
   106    15    17   ar
   107   124   123   ar
   108    77    78    1
   109    47    46    1
   110    11    12    2
   111   189   190    2
   112   189   188    1
   113    46    48    1
   114   119   118    1
   115   119   121   ar
   116   188   187    1
   117   188   191    1
   118   118   115    1
   119   115   116    1
   120   123   121   ar
   121   117   116    2
   122   116   126   am
   123   194   196   ar
   124   194   192   ar
   125   191   192    1
   126   196   197   ar
   127   192   193   ar
   128   172   170    1
   129   161   159   ar
   130   126   127    1
   131   141   140   ar
   132   142   140   ar
   133   197   198    1
   134   197   195   ar
   135   193   195   ar
   136   140   139    1
   137   159   160   ar
   138   159   158    1
   139   170   169    2
   140   170   171    1
   141   158   155    1
   142   127   128    1
   143   127   130    1
   144   169   168    1
   145   138   139    1
   146   138   135    1
   147   129   128    2
   148   130   131    1
   149   136   137    2
   150   136   135    1
   151   155   156    1
   152   155   154    1
   153   168   167    1
   154   135   134    1
   155   157   156    2
   156   185   186   ar
   157   185   183   ar
   158   154   145   am
   159   186   184   ar
   160   131   132    1
   161   164   163    1
   162   164   165    2
   163   166   167    1
   164   166   163    1
   165   163   162    1
   166   183   180   ar
   167   132   133    1
   168   184   182   ar
   169   145   146    2
   170   145   144    1
   171   147   144    1
   172   147   148    1
   173   180   182   ar
   174   180   178   ar
   175     4     3    2
   176     7     6    1
   177     7     8    1
   178   182   181   ar
   179   144   143    1
   180     6     5    1
   181   148   149    1
   182     3     2    1
   183   178   177    1
   184   178   179   ar
   185   152   151    1
   186   181   179   ar
   187   153   151    1
   188   177   174    1
   189     5     2    1
   190   151   150    2
   191   150   149    1
   192     2     1    1
   193   176   175    2
   194   175   174    1
   195   174   173    1
