@<TRIPOS>MOLECULE
tmp/6cidA02.pdb
 178 178 0 0 0
SMALL
GASTEIGER

@<TRIPOS>ATOM
      1  N        123.5320  254.8800  349.2790 N.3    40  MET40      -0.1230
      2  CA       123.2640  254.2030  350.5480 C.3    40  MET40       0.1702
      3  C        122.9150  255.1910  351.6550 C.2    40  MET40       0.2592
      4  O        121.9290  255.0030  352.3750 O.2    40  MET40      -0.2718
      5  CB       124.4440  253.3300  350.9660 C.3    40  MET40       0.0401
      6  CG       124.0190  252.2900  352.0160 C.3    40  MET40       0.0596
      7  SD       125.3440  251.1860  352.5420 S.3    40  MET40      -0.1393
      8  CE       125.6990  250.3070  351.0310 C.3    40  MET40       0.0692
      9  N        123.7030  256.2490  351.8100 N.am   41  HIS41      -0.1976
     10  CA       123.5100  257.2200  352.8910 C.3    41  HIS41       0.1656
     11  C        123.4330  258.6210  352.3140 C.2    41  HIS41       0.2291
     12  O        124.3960  259.3910  352.4160 O.2    41  HIS41      -0.2864
     13  CB       124.6410  257.1750  353.9240 C.3    41  HIS41       0.0771
     14  CG       124.8950  255.8210  354.5000 C.ar   41  HIS41       0.0820
     15  ND1      123.9350  255.1090  355.1850 N.ar   41  HIS41      -0.2267
     16  CD2      126.0140  255.0590  354.5200 C.ar   41  HIS41       0.1154
     17  CE1      124.4450  253.9580  355.5870 C.ar   41  HIS41       0.1986
     18  NE2      125.7060  253.9050  355.2010 N.ar   41  HIS41      -0.2212
     19  N        109.2510  252.3800  363.1480 N.3   113  TRP113     -0.1241
     20  CA       109.4240  251.0990  362.4740 C.3   113  TRP113      0.1605
     21  C        108.4480  250.9640  361.3100 C.2   113  TRP113      0.2264
     22  O        108.8460  250.6140  360.1900 O.2   113  TRP113     -0.2867
     23  CB       109.2550  249.9630  363.4820 C.3   113  TRP113      0.0550
     24  CG       109.4400  248.5880  362.9300 C.ar  113  TRP113      0.0003
     25  CD1      109.9870  248.2340  361.7120 C.ar  113  TRP113      0.0946
     26  CD2      109.0930  247.3700  363.5800 C.ar  113  TRP113      0.0152
     27  NE1      109.9770  246.8640  361.5770 N.ar  113  TRP113     -0.2442
     28  CE2      109.4400  246.3130  362.7130 C.ar  113  TRP113      0.0810
     29  CE3      108.5390  247.0660  364.8310 C.ar  113  TRP113      0.0012
     30  CZ2      109.2250  244.9750  363.0430 C.ar  113  TRP113      0.0191
     31  CZ3      108.3200  245.7300  365.1570 C.ar  113  TRP113      0.0001
     32  CH2      108.6710  244.7050  364.2660 C.ar  113  TRP113      0.0015
     33  N        127.9000  249.0250  366.5630 N.3   181  SER181     -0.1202
     34  CA       126.9010  249.1550  365.5000 C.3   181  SER181      0.2020
     35  C        125.7340  248.1850  365.6840 C.2   181  SER181      0.2618
     36  O        124.5970  248.5040  365.2970 O.2   181  SER181     -0.2717
     37  CB       127.5580  248.9620  364.1290 C.3   181  SER181      0.2103
     38  OG       128.1430  247.6800  364.0450 O.3   181  SER181     -0.2182
     39  N        125.9990  247.0010  366.2370 N.am  182  GLN182     -0.1979
     40  CA       124.9780  246.1080  366.7670 C.3   182  GLN182      0.1601
     41  C        125.3990  245.6590  368.1600 C.2   182  GLN182      0.2287
     42  O        126.5910  245.6270  368.4820 O.2   182  GLN182     -0.2864
     43  CB       124.7640  244.8670  365.8950 C.3   182  GLN182      0.0394
     44  CG       124.3210  245.1740  364.4730 C.3   182  GLN182      0.0908
     45  CD       124.1030  243.9190  363.6400 C.2   182  GLN182      0.2608
     46  OE1      123.7260  242.8660  364.1560 O.2   182  GLN182     -0.2717
     47  NE2      124.3650  244.0240  362.3450 N.am  182  GLN182     -0.0878
     48  N        128.1640  241.5070  367.8290 N.3   185  ARG185     -0.1245
     49  CA       128.9060  241.3860  366.5730 C.3   185  ARG185      0.1563
     50  C        130.2560  240.7380  366.8570 C.2   185  ARG185      0.2260
     51  O        130.7280  240.7110  367.9990 O.2   185  ARG185     -0.2867
     52  CB       129.1110  242.7380  365.8680 C.3   185  ARG185      0.0307
     53  CG       127.8560  243.2750  365.1910 C.3   185  ARG185      0.0489
     54  CD       128.1480  244.2650  364.0940 C.3   185  ARG185      0.2205
     55  NE       128.3510  243.6210  362.8020 N.pl3 185  ARG185     -0.0865
     56  CZ       128.6400  244.2860  361.6840 C.cat 185  ARG185      0.5346
     57  NH1      128.7620  245.6110  361.7020 N.pl3 185  ARG185      0.1354
     58  NH2      128.8110  243.6240  360.5480 N.pl3 185  ARG185      0.1354
     59  N        119.8200  239.8970  365.8900 N.3   269  PRO269     -0.2116
     60  CA       120.3150  241.1330  365.2740 C.3   269  PRO269      0.1372
     61  C        119.7370  242.3330  366.0120 C.2   269  PRO269      0.2244
     62  O        118.5160  242.4940  366.0900 O.2   269  PRO269     -0.2868
     63  CB       119.7790  241.0440  363.8380 C.3   269  PRO269      0.0268
     64  CG       118.4710  240.3010  363.9810 C.3   269  PRO269      0.0207
     65  CD       118.6190  239.3780  365.1990 C.3   269  PRO269      0.0892
     66  N        120.3350  246.3600  366.1400 N.3   271  VAL271     -0.1245
     67  CA       120.9780  247.5620  365.6240 C.3   271  VAL271      0.1561
     68  C        121.0600  248.6180  366.7120 C.2   271  VAL271      0.2260
     69  O        120.0470  248.9960  367.3110 O.2   271  VAL271     -0.2867
     70  CB       120.1920  248.0930  364.4180 C.3   271  VAL271      0.0252
     71  CG1      120.6510  249.4980  364.0520 C.3   271  VAL271      0.0019
     72  CG2      120.3190  247.1380  363.2750 C.3   271  VAL271      0.0019
     73  N        123.2330  251.7120  366.4900 N.3   273  ASN273     -0.1225
     74  CA       123.8520  252.9920  366.1650 C.3   273  ASN273      0.1785
     75  C        122.9170  253.9330  365.4160 C.2   273  ASN273      0.2597
     76  O        123.3630  254.9840  364.9510 O.2   273  ASN273     -0.2718
     77  CB       125.1610  252.7910  365.3760 C.3   273  ASN273      0.1169
     78  CG       124.9530  252.1020  364.0390 C.2   273  ASN273      0.2627
     79  OD1      123.8560  251.6400  363.7230 O.2   273  ASN273     -0.2716
     80  ND2      126.0220  252.0230  363.2450 N.am  273  ASN273     -0.0877
     81  N        121.6340  253.6090  365.3130 N.am  274  MET274     -0.1979
     82  CA       120.7290  254.5200  364.6340 C.3   274  MET274      0.1605
     83  C        120.1060  255.5050  365.6240 C.2   274  MET274      0.2287
     84  O        120.2140  255.3620  366.8450 O.2   274  MET274     -0.2864
     85  CB       119.6670  253.7350  363.8530 C.3   274  MET274      0.0413
     86  CG       120.2890  253.0610  362.6110 C.3   274  MET274      0.0598
     87  SD       119.0540  252.3180  361.5340 S.3   274  MET274     -0.1393
     88  CE       118.5760  253.7580  360.5710 C.3   274  MET274      0.0692
     89  N        117.4690  248.4670  368.9170 N.3   288  PHE288     -0.1227
     90  CA       116.2630  247.7280  368.5760 C.3   288  PHE288      0.1736
     91  C        116.6450  246.4030  367.9360 C.2   288  PHE288      0.2596
     92  O        117.6760  246.2960  367.2670 O.2   288  PHE288     -0.2718
     93  CB       115.3350  248.5360  367.6400 C.3   288  PHE288      0.0547
     94  CG       115.9560  248.9320  366.3150 C.ar  288  PHE288     -0.0202
     95  CD1      115.9370  248.0530  365.2290 C.ar  288  PHE288     -0.0042
     96  CD2      116.4970  250.1940  366.1360 C.ar  288  PHE288     -0.0042
     97  CE1      116.4620  248.4240  363.9910 C.ar  288  PHE288     -0.0003
     98  CE2      117.0520  250.5650  364.9010 C.ar  288  PHE288     -0.0003
     99  CZ       117.0280  249.6790  363.8320 C.ar  288  PHE288     -0.0000
    100  N        115.8260  245.3820  368.1720 N.am  289  SER289     -0.1938
    101  CA       116.1370  244.0420  367.6890 C.3   289  SER289      0.2055
    102  C        114.8760  243.3820  367.1600 C.2   289  SER289      0.2644
    103  O        113.7700  243.6470  367.6370 O.2   289  SER289     -0.2714
    104  CB       116.7460  243.1570  368.7870 C.3   289  SER289      0.2130
    105  OG       115.8740  243.0730  369.9160 O.3   289  SER289     -0.2179
    106  N        115.0620  242.5130  366.1740 N.am  290  GLY290     -0.1939
    107  CA       113.9890  241.6890  365.6470 C.3   290  GLY290      0.2014
    108  C        114.4410  240.2460  365.5500 C.2   290  GLY290      0.2639
    109  O        114.8320  239.6400  366.5540 O.2   290  GLY290     -0.2714
    110  N        114.3790  239.6770  364.3520 N.am  291  TRP291     -0.1959
    111  CA       115.0530  238.4230  364.0420 C.3   291  TRP291      0.1771
    112  C        115.5720  238.5090  362.6110 C.2   291  TRP291      0.2620
    113  O        115.2590  239.4440  361.8770 O.2   291  TRP291     -0.2715
    114  CB       114.1400  237.2060  364.2080 C.3   291  TRP291      0.0590
    115  CG       112.8210  237.3210  363.5230 C.ar  291  TRP291      0.0006
    116  CD1      112.5510  237.0870  362.1990 C.ar  291  TRP291      0.0946
    117  CD2      111.5730  237.6650  364.1370 C.ar  291  TRP291      0.0152
    118  NE1      111.2050  237.2750  361.9580 N.ar  291  TRP291     -0.2442
    119  CE2      110.5870  237.6270  363.1330 C.ar  291  TRP291      0.0810
    120  CE3      111.1980  238.0090  365.4480 C.ar  291  TRP291      0.0012
    121  CZ2      109.2470  237.9360  363.3890 C.ar  291  TRP291      0.0191
    122  CZ3      109.8720  238.3010  365.7000 C.ar  291  TRP291      0.0001
    123  CH2      108.9120  238.2660  364.6760 C.ar  291  TRP291      0.0015
    124  N        116.3780  237.5260  362.2310 N.am  292  TYR292     -0.1960
    125  CA       117.0590  237.5590  360.9400 C.3   292  TYR292      0.1771
    126  C        116.1750  237.0550  359.7980 C.2   292  TYR292      0.2619
    127  O        115.3360  236.1650  359.9650 O.2   292  TYR292     -0.2715
    128  CB       118.3160  236.6960  360.9980 C.3   292  TYR292      0.0574
    129  CG       119.5850  237.4060  361.3890 C.ar  292  TYR292     -0.0198
    130  CD1      120.2850  237.0480  362.5460 C.ar  292  TYR292     -0.0009
    131  CD2      120.1090  238.4080  360.5830 C.ar  292  TYR292     -0.0009
    132  CE1      121.4710  237.6860  362.8880 C.ar  292  TYR292      0.0417
    133  CE2      121.2850  239.0530  360.9140 C.ar  292  TYR292      0.0417
    134  CZ       121.9650  238.6920  362.0610 C.ar  292  TYR292      0.1957
    135  OH       123.1360  239.3480  362.3570 O.3   292  TYR292     -0.2866
    136  N        116.3820  237.6410  358.6220 N.am  293  MET293     -0.1977
    137  CA       116.0820  236.9830  357.3540 C.3   293  MET293      0.1605
    138  C        117.3480  236.2690  356.9250 C.2   293  MET293      0.2287
    139  O        118.4440  236.8210  357.0560 O.2   293  MET293     -0.2864
    140  CB       115.6510  237.9910  356.2890 C.3   293  MET293      0.0413
    141  CG       115.1800  237.3420  354.9810 C.3   293  MET293      0.0598
    142  SD       114.3390  238.4890  353.8500 S.3   293  MET293     -0.1393
    143  CE       115.7350  239.4250  353.2130 C.3   293  MET293      0.0692
    144  N        120.4940  237.6360  355.1200 N.3   296  GLU296     -0.1245
    145  CA       121.3970  238.5820  355.7690 C.3   296  GLU296      0.1567
    146  C        122.6880  237.8920  356.1830 C.2   296  GLU296      0.2260
    147  O        123.7740  238.4750  356.0770 O.2   296  GLU296     -0.2867
    148  CB       120.7340  239.2120  356.9900 C.3   296  GLU296      0.0388
    149  CG       119.4730  239.9930  356.6840 C.3   296  GLU296      0.1160
    150  CD       118.9210  240.6110  357.9600 C.2   296  GLU296      0.3649
    151  OE1      119.5900  241.5450  358.4610 O.co2 296  GLU296     -0.2457
    152  OE2      117.8800  240.1300  358.4830 O.co2 296  GLU296     -0.2457
    153  N        116.4360  248.0860  348.7420 N.3   382  TRP382     -0.1241
    154  CA       116.6840  247.3790  350.0020 C.3   382  TRP382      0.1605
    155  C        115.7310  246.2230  350.2430 C.2   382  TRP382      0.2264
    156  O        116.1270  245.2320  350.8620 O.2   382  TRP382     -0.2867
    157  CB       116.6020  248.3490  351.1940 C.3   382  TRP382      0.0550
    158  CG       117.9180  248.9760  351.4900 C.ar  382  TRP382      0.0003
    159  CD1      118.6670  249.7610  350.6510 C.ar  382  TRP382      0.0946
    160  CD2      118.6800  248.8420  352.7030 C.ar  382  TRP382      0.0152
    161  NE1      119.8390  250.1280  351.2700 N.ar  382  TRP382     -0.2442
    162  CE2      119.8680  249.5820  352.5300 C.ar  382  TRP382      0.0810
    163  CE3      118.4680  248.1700  353.9080 C.ar  382  TRP382      0.0012
    164  CZ2      120.8510  249.6630  353.5250 C.ar  382  TRP382      0.0191
    165  CZ3      119.4470  248.2570  354.9070 C.ar  382  TRP382      0.0001
    166  CH2      120.6140  249.0020  354.7070 C.ar  382  TRP382      0.0015
    167  N        120.1870  257.6300  360.2150 N.3   410  TYR410     -0.1241
    168  CA       121.5950  257.4010  360.4960 C.3   410  TYR410      0.1605
    169  C        122.1950  258.6040  361.2180 C.2   410  TYR410      0.2264
    170  O        121.6730  259.7190  361.1710 O.2   410  TYR410     -0.2867
    171  CB       122.3680  257.1130  359.1960 C.3   410  TYR410      0.0534
    172  CG       122.0600  255.7340  358.6700 C.ar  410  TYR410     -0.0201
    173  CD1      121.1400  255.5470  357.6430 C.ar  410  TYR410     -0.0009
    174  CD2      122.6450  254.6080  359.2450 C.ar  410  TYR410     -0.0009
    175  CE1      120.8320  254.2810  357.1850 C.ar  410  TYR410      0.0417
    176  CE2      122.3480  253.3390  358.7950 C.ar  410  TYR410      0.0417
    177  CZ       121.4390  253.1830  357.7570 C.ar  410  TYR410      0.1957
    178  OH       121.1370  251.9180  357.3000 O.3   410  TYR410     -0.2866
@<TRIPOS>BOND
     1   153   154    1
     2     1     2    1
     3   154   155    1
     4   154   157    1
     5   155   156    2
     6     2     5    1
     7     2     3    1
     8   159   161   ar
     9   159   158   ar
    10     5     6    1
    11     8     7    1
    12   157   158    1
    13   161   162   ar
    14   158   160   ar
    15     3     9   am
    16     3     4    2
    17     9    10    1
    18     6     7    1
    19    11    12    2
    20    11    10    1
    21   162   160   ar
    22   162   164   ar
    23   160   163   ar
    24    10    13    1
    25   143   142    1
    26   164   166   ar
    27   142   141    1
    28   163   165   ar
    29    13    14    1
    30    14    16   ar
    31    14    15   ar
    32    16    18   ar
    33   166   165   ar
    34   141   140    1
    35   144   145    1
    36    15    17   ar
    37    18    17   ar
    38   145   146    1
    39   145   148    1
    40   147   146    2
    41   140   137    1
    42   149   148    1
    43   149   150    1
    44   138   139    2
    45   138   137    1
    46   175   173   ar
    47   175   177   ar
    48   178   177    1
    49   137   136    1
    50   173   172   ar
    51   177   176   ar
    52   150   151   ar
    53   150   152   ar
    54   136   126   am
    55   172   171    1
    56   172   174   ar
    57   176   174   ar
    58   171   168    1
    59   126   127    2
    60   126   125    1
    61    22    21    2
    62   167   168    1
    63   168   169    1
    64    58    56    1
    65    88    87    1
    66   131   133   ar
    67   131   129   ar
    68   133   134   ar
    69   125   128    1
    70   125   124    1
    71   128   129    1
    72   170   169    2
    73    21    20    1
    74   129   130   ar
    75    87    86    1
    76    27    25   ar
    77    27    28   ar
    78    56    57    1
    79    56    55    2
    80    25    24   ar
    81   113   112    2
    82   118   116   ar
    83   118   119   ar
    84   134   135    1
    85   134   132   ar
    86   116   115   ar
    87   124   112   am
    88    47    45   am
    89    20    19    1
    90    20    23    1
    91   130   132   ar
    92   112   111    1
    93    86    85    1
    94    28    30   ar
    95    28    26   ar
    96    55    54    1
    97    24    23    1
    98    24    26   ar
    99    30    32   ar
   100   119   121   ar
   101   119   117   ar
   102    80    78   am
   103    72    70    1
   104   121   123   ar
   105   115   117   ar
   106   115   114    1
   107    26    29   ar
   108    45    46    2
   109    45    44    1
   110    79    78    2
   111    99    97   ar
   112    99    98   ar
   113    63    64    1
   114    63    60    1
   115    85    82    1
   116    64    65    1
   117    97    95   ar
   118    78    77    1
   119   111   114    1
   120   111   110    1
   121    38    37    1
   122    71    70    1
   123    54    53    1
   124    37    34    1
   125   117   120   ar
   126    32    31   ar
   127   110   108   am
   128    70    67    1
   129    44    43    1
   130    82    81    1
   131    82    83    1
   132   123   122   ar
   133    29    31   ar
   134    98    96   ar
   135    76    75    2
   136    53    52    1
   137    65    59    1
   138    95    94   ar
   139    60    59    1
   140    60    61    1
   141    36    35    2
   142    81    75   am
   143    77    74    1
   144    75    74    1
   145   120   122   ar
   146    34    35    1
   147    34    33    1
   148   108   107    1
   149   108   109    2
   150    83    84    2
   151    67    66    1
   152    67    68    1
   153   107   106    1
   154    35    39   am
   155    52    49    1
   156    43    40    1
   157    61    62    2
   158    96    94   ar
   159    74    73    1
   160   106   102   am
   161    39    40    1
   162    94    93    1
   163    49    50    1
   164    49    48    1
   165    68    69    2
   166    40    41    1
   167    50    51    2
   168   102   103    2
   169   102   101    1
   170    92    91    2
   171    93    90    1
   172   101   100    1
   173   101   104    1
   174    91   100   am
   175    91    90    1
   176    41    42    2
   177    90    89    1
   178   104   105    1
