@<TRIPOS>MOLECULE
tmp/6cidA00.pdb
 208 200 0 0 0
SMALL
GASTEIGER

@<TRIPOS>ATOM
      1  N        118.9240  261.0290  354.9120 N.3    45  HIS45      -0.1241
      2  CA       118.6480  259.8910  355.7790 C.3    45  HIS45       0.1621
      3  C        119.5400  259.8860  357.0220 C.2    45  HIS45       0.2264
      4  O        119.6910  258.8430  357.6710 O.2    45  HIS45      -0.2867
      5  CB       118.8050  258.5810  354.9970 C.3    45  HIS45       0.0745
      6  CG       118.1330  257.4000  355.6350 C.ar   45  HIS45       0.0817
      7  ND1      117.3060  257.5120  356.7350 N.ar   45  HIS45      -0.2268
      8  CD2      118.1710  256.0810  355.3280 C.ar   45  HIS45       0.1154
      9  CE1      116.8640  256.3140  357.0760 C.ar   45  HIS45       0.1986
     10  NE2      117.3710  255.4290  356.2360 N.ar   45  HIS45      -0.2212
     11  N        109.2510  252.3800  363.1480 N.3   113  TRP113     -0.1241
     12  CA       109.4240  251.0990  362.4740 C.3   113  TRP113      0.1605
     13  C        108.4480  250.9640  361.3100 C.2   113  TRP113      0.2264
     14  O        108.8460  250.6140  360.1900 O.2   113  TRP113     -0.2867
     15  CB       109.2550  249.9630  363.4820 C.3   113  TRP113      0.0550
     16  CG       109.4400  248.5880  362.9300 C.ar  113  TRP113      0.0003
     17  CD1      109.9870  248.2340  361.7120 C.ar  113  TRP113      0.0946
     18  CD2      109.0930  247.3700  363.5800 C.ar  113  TRP113      0.0152
     19  NE1      109.9770  246.8640  361.5770 N.ar  113  TRP113     -0.2442
     20  CE2      109.4400  246.3130  362.7130 C.ar  113  TRP113      0.0810
     21  CE3      108.5390  247.0660  364.8310 C.ar  113  TRP113      0.0012
     22  CZ2      109.2250  244.9750  363.0430 C.ar  113  TRP113      0.0191
     23  CZ3      108.3200  245.7300  365.1570 C.ar  113  TRP113      0.0001
     24  CH2      108.6710  244.7050  364.2660 C.ar  113  TRP113      0.0015
     25  N        109.7150  252.7490  358.2920 N.3   116  ALA116     -0.1245
     26  CA       111.0780  252.4560  357.8180 C.3   116  ALA116      0.1562
     27  C        111.0240  251.8230  356.4280 C.2   116  ALA116      0.2260
     28  O        110.8580  250.6120  356.2920 O.2   116  ALA116     -0.2867
     29  CB       111.7890  251.5470  358.8160 C.3   116  ALA116      0.0290
     30  N        113.0190  250.8650  354.2600 N.3   118  ARG118     -0.1231
     31  CA       113.9420  249.8110  353.8730 C.3   118  ARG118      0.1694
     32  C        113.7090  248.4910  354.5900 C.2   118  ARG118      0.2592
     33  O        114.4600  247.5460  354.3490 O.2   118  ARG118     -0.2718
     34  CB       115.3840  250.2790  354.1040 C.3   118  ARG118      0.0321
     35  CG       115.8160  251.3720  353.1260 C.3   118  ARG118      0.0489
     36  CD       117.1950  251.9170  353.4720 C.3   118  ARG118      0.2205
     37  NE       117.7560  252.6980  352.3740 N.pl3 118  ARG118     -0.0865
     38  CZ       118.9230  253.3320  352.4430 C.cat 118  ARG118      0.5346
     39  NH1      119.6220  253.2800  353.5730 N.pl3 118  ARG118      0.1354
     40  NH2      119.3930  254.0140  351.4020 N.pl3 118  ARG118      0.1354
     41  N        112.7020  248.3920  355.4620 N.am  119  CYS119     -0.1956
     42  CA       112.5120  247.2110  356.2970 C.3   119  CYS119      0.1843
     43  C        111.4590  246.3030  355.6790 C.2   119  CYS119      0.2625
     44  O        110.2910  246.6860  355.5660 O.2   119  CYS119     -0.2714
     45  CB       112.1060  247.5830  357.7260 C.3   119  CYS119      0.0997
     46  SG       111.8180  246.1270  358.7290 S.3   119  CYS119     -0.0797
     47  N        111.8680  245.0860  355.3120 N.am  120  VAL120     -0.1963
     48  CA       110.9340  244.0840  354.8000 C.3   120  VAL120      0.1727
     49  C        110.1270  243.4130  355.9030 C.2   120  VAL120      0.2616
     50  O        109.1610  242.7030  355.6110 O.2   120  VAL120     -0.2715
     51  CB       111.7520  243.0720  353.9700 C.3   120  VAL120      0.0290
     52  CG1      112.5510  242.1540  354.9000 C.3   120  VAL120      0.0023
     53  CG2      110.8520  242.2830  353.0120 C.3   120  VAL120      0.0023
     54  N        110.4900  243.6170  357.1640 N.am  121  GLY121     -0.1955
     55  CA       109.8360  242.9220  358.2590 C.3   121  GLY121      0.1869
     56  C        108.6790  243.6660  358.8860 C.2   121  GLY121      0.2309
     57  O        108.2150  243.2640  359.9570 O.2   121  GLY121     -0.2863
     58  N        105.1870  243.1190  361.1790 N.3   124  GLN124     -0.1245
     59  CA       105.2710  242.9190  362.6220 C.3   124  GLN124      0.1566
     60  C        105.2230  244.2160  363.4350 C.2   124  GLN124      0.2260
     61  O        105.3370  244.1500  364.6660 O.2   124  GLN124     -0.2867
     62  CB       106.5820  242.1710  362.9490 C.3   124  GLN124      0.0367
     63  CG       106.5930  240.6970  362.5440 C.3   124  GLN124      0.0905
     64  CD       105.6980  239.8630  363.4360 C.2   124  GLN124      0.2608
     65  OE1      105.5260  240.1730  364.6080 O.2   124  GLN124     -0.2717
     66  NE2      105.1310  238.8030  362.8890 N.am  124  GLN124     -0.0878
     67  N        105.8770  245.2890  369.1920 N.3   128  LEU128     -0.1245
     68  CA       107.2020  245.7850  369.5340 C.3   128  LEU128      0.1561
     69  C        107.1680  246.0640  371.0200 C.2   128  LEU128      0.2260
     70  O        106.3150  246.8310  371.4770 O.2   128  LEU128     -0.2867
     71  CB       107.5350  247.0580  368.7660 C.3   128  LEU128      0.0270
     72  CG       108.8670  247.7350  369.1080 C.3   128  LEU128      0.0019
     73  CD1      110.0340  246.8270  368.7480 C.3   128  LEU128      0.0001
     74  CD2      108.9630  249.0580  368.3480 C.3   128  LEU128      0.0001
     75  N        110.5880  241.0220  369.1650 N.3   161  SER161     -0.1217
     76  CA       111.0960  242.3300  368.7810 C.3   161  SER161      0.1889
     77  C        110.9900  243.3060  369.9460 C.2   161  SER161      0.2288
     78  O        110.0130  243.3030  370.6920 O.2   161  SER161     -0.2866
     79  CB       110.3360  242.8710  367.5740 C.3   161  SER161      0.2089
     80  OG       108.9760  243.0710  367.9010 O.3   161  SER161     -0.2183
     81  N        112.7060  247.3380  371.6450 N.3   163  ILE163     -0.1245
     82  CA       113.5340  248.5400  371.5580 C.3   163  ILE163      0.1561
     83  C        113.7510  249.0740  372.9700 C.2   163  ILE163      0.2260
     84  O        112.8300  249.0820  373.7880 O.2   163  ILE163     -0.2867
     85  CB       112.8960  249.6230  370.6510 C.3   163  ILE163      0.0252
     86  CG1      113.8000  250.8520  370.5280 C.3   163  ILE163      0.0019
     87  CG2      111.4630  250.0210  371.1330 C.3   163  ILE163      0.0019
     88  CD1      113.5110  251.7370  369.2820 C.3   163  ILE163      0.0001
     89  N        121.6340  253.6090  365.3130 N.3   274  MET274     -0.1245
     90  CA       120.7290  254.5200  364.6340 C.3   274  MET274      0.1570
     91  C        120.1060  255.5050  365.6240 C.2   274  MET274      0.2261
     92  O        120.2140  255.3620  366.8450 O.2   274  MET274     -0.2867
     93  CB       119.6670  253.7350  363.8530 C.3   274  MET274      0.0387
     94  CG       120.2890  253.0610  362.6110 C.3   274  MET274      0.0595
     95  SD       119.0540  252.3180  361.5340 S.3   274  MET274     -0.1393
     96  CE       118.5760  253.7580  360.5710 C.3   274  MET274      0.0692
     97  N        117.4690  248.4670  368.9170 N.3   288  PHE288     -0.1227
     98  CA       116.2630  247.7280  368.5760 C.3   288  PHE288      0.1736
     99  C        116.6450  246.4030  367.9360 C.2   288  PHE288      0.2596
    100  O        117.6760  246.2960  367.2670 O.2   288  PHE288     -0.2718
    101  CB       115.3350  248.5360  367.6400 C.3   288  PHE288      0.0547
    102  CG       115.9560  248.9320  366.3150 C.ar  288  PHE288     -0.0202
    103  CD1      115.9370  248.0530  365.2290 C.ar  288  PHE288     -0.0042
    104  CD2      116.4970  250.1940  366.1360 C.ar  288  PHE288     -0.0042
    105  CE1      116.4620  248.4240  363.9910 C.ar  288  PHE288     -0.0003
    106  CE2      117.0520  250.5650  364.9010 C.ar  288  PHE288     -0.0003
    107  CZ       117.0280  249.6790  363.8320 C.ar  288  PHE288     -0.0000
    108  N        115.8260  245.3820  368.1720 N.am  289  SER289     -0.1938
    109  CA       116.1370  244.0420  367.6890 C.3   289  SER289      0.2055
    110  C        114.8760  243.3820  367.1600 C.2   289  SER289      0.2644
    111  O        113.7700  243.6470  367.6370 O.2   289  SER289     -0.2714
    112  CB       116.7460  243.1570  368.7870 C.3   289  SER289      0.2130
    113  OG       115.8740  243.0730  369.9160 O.3   289  SER289     -0.2179
    114  N        115.0620  242.5130  366.1740 N.am  290  GLY290     -0.1939
    115  CA       113.9890  241.6890  365.6470 C.3   290  GLY290      0.2014
    116  C        114.4410  240.2460  365.5500 C.2   290  GLY290      0.2638
    117  O        114.8320  239.6400  366.5540 O.2   290  GLY290     -0.2714
    118  N        114.3790  239.6770  364.3520 N.am  291  TRP291     -0.1973
    119  CA       115.0530  238.4230  364.0420 C.3   291  TRP291      0.1640
    120  C        115.5720  238.5090  362.6110 C.2   291  TRP291      0.2290
    121  O        115.2590  239.4440  361.8770 O.2   291  TRP291     -0.2864
    122  CB       114.1400  237.2060  364.2080 C.3   291  TRP291      0.0576
    123  CG       112.8210  237.3210  363.5230 C.ar  291  TRP291      0.0006
    124  CD1      112.5510  237.0870  362.1990 C.ar  291  TRP291      0.0946
    125  CD2      111.5730  237.6650  364.1370 C.ar  291  TRP291      0.0152
    126  NE1      111.2050  237.2750  361.9580 N.ar  291  TRP291     -0.2442
    127  CE2      110.5870  237.6270  363.1330 C.ar  291  TRP291      0.0810
    128  CE3      111.1980  238.0090  365.4480 C.ar  291  TRP291      0.0012
    129  CZ2      109.2470  237.9360  363.3890 C.ar  291  TRP291      0.0191
    130  CZ3      109.8720  238.3010  365.7000 C.ar  291  TRP291      0.0001
    131  CH2      108.9120  238.2660  364.6760 C.ar  291  TRP291      0.0015
    132  N        116.3820  237.6410  358.6220 N.3   293  MET293     -0.1245
    133  CA       116.0820  236.9830  357.3540 C.3   293  MET293      0.1570
    134  C        117.3480  236.2690  356.9250 C.2   293  MET293      0.2261
    135  O        118.4440  236.8210  357.0560 O.2   293  MET293     -0.2867
    136  CB       115.6510  237.9910  356.2890 C.3   293  MET293      0.0387
    137  CG       115.1800  237.3420  354.9810 C.3   293  MET293      0.0595
    138  SD       114.3390  238.4890  353.8500 S.3   293  MET293     -0.1393
    139  CE       115.7350  239.4250  353.2130 C.3   293  MET293      0.0692
    140  N        120.4940  237.6360  355.1200 N.3   296  GLU296     -0.1245
    141  CA       121.3970  238.5820  355.7690 C.3   296  GLU296      0.1567
    142  C        122.6880  237.8920  356.1830 C.2   296  GLU296      0.2260
    143  O        123.7740  238.4750  356.0770 O.2   296  GLU296     -0.2867
    144  CB       120.7340  239.2120  356.9900 C.3   296  GLU296      0.0388
    145  CG       119.4730  239.9930  356.6840 C.3   296  GLU296      0.1160
    146  CD       118.9210  240.6110  357.9600 C.2   296  GLU296      0.3649
    147  OE1      119.5900  241.5450  358.4610 O.co2 296  GLU296     -0.2457
    148  OE2      117.8800  240.1300  358.4830 O.co2 296  GLU296     -0.2457
    149  N        125.0800  237.9500  352.6380 N.3   300  ARG300     -0.1245
    150  CA       125.9110  239.1290  352.8670 C.3   300  ARG300      0.1563
    151  C        127.0450  238.8340  353.8510 C.2   300  ARG300      0.2260
    152  O        128.2230  238.9880  353.5140 O.2   300  ARG300     -0.2867
    153  CB       125.0460  240.2940  353.3600 C.3   300  ARG300      0.0307
    154  CG       123.8200  240.6240  352.4640 C.3   300  ARG300      0.0489
    155  CD       124.2410  241.0270  351.0290 C.3   300  ARG300      0.2205
    156  NE       125.3250  242.0130  351.0180 N.pl3 300  ARG300     -0.0865
    157  CZ       125.1670  243.3120  351.2550 C.cat 300  ARG300      0.5346
    158  NH1      123.9530  243.8000  351.5160 N.pl3 300  ARG300      0.1354
    159  NH2      126.2270  244.1220  351.2460 N.pl3 300  ARG300      0.1354
    160  N        113.5360  233.8060  359.2430 N.3   353  VAL353     -0.1245
    161  CA       112.5640  233.7870  358.1550 C.3   353  VAL353      0.1561
    162  C        113.3220  233.6810  356.8370 C.2   353  VAL353      0.2260
    163  O        114.3560  234.3320  356.6540 O.2   353  VAL353     -0.2867
    164  CB       111.6310  235.0220  358.2040 C.3   353  VAL353      0.0252
    165  CG1      112.3990  236.3320  358.0280 C.3   353  VAL353      0.0019
    166  CG2      110.4890  234.8930  357.1850 C.3   353  VAL353      0.0019
    167  N        109.4090  235.9840  353.8180 N.3   358  ALA358     -0.1245
    168  CA       109.4730  237.3760  354.2570 C.3   358  ALA358      0.1562
    169  C        108.9230  238.3310  353.2010 C.2   358  ALA358      0.2260
    170  O        108.2170  239.2900  353.5360 O.2   358  ALA358     -0.2867
    171  CB       110.9110  237.7570  354.6220 C.3   358  ALA358      0.0290
    172  N        116.4360  248.0860  348.7420 N.3   382  TRP382     -0.1241
    173  CA       116.6840  247.3790  350.0020 C.3   382  TRP382      0.1605
    174  C        115.7310  246.2230  350.2430 C.2   382  TRP382      0.2264
    175  O        116.1270  245.2320  350.8620 O.2   382  TRP382     -0.2867
    176  CB       116.6020  248.3490  351.1940 C.3   382  TRP382      0.0550
    177  CG       117.9180  248.9760  351.4900 C.ar  382  TRP382      0.0003
    178  CD1      118.6670  249.7610  350.6510 C.ar  382  TRP382      0.0946
    179  CD2      118.6800  248.8420  352.7030 C.ar  382  TRP382      0.0152
    180  NE1      119.8390  250.1280  351.2700 N.ar  382  TRP382     -0.2442
    181  CE2      119.8680  249.5820  352.5300 C.ar  382  TRP382      0.0810
    182  CE3      118.4680  248.1700  353.9080 C.ar  382  TRP382      0.0012
    183  CZ2      120.8510  249.6630  353.5250 C.ar  382  TRP382      0.0191
    184  CZ3      119.4470  248.2570  354.9070 C.ar  382  TRP382      0.0001
    185  CH2      120.6140  249.0020  354.7070 C.ar  382  TRP382      0.0015
    186  N        113.5260  256.2820  361.9510 N.3   408  PHE408     -0.1241
    187  CA       114.9040  255.9330  362.2740 C.3   408  PHE408      0.1605
    188  C        115.8250  256.5790  361.2490 C.2   408  PHE408      0.2264
    189  O        115.5340  256.5650  360.0540 O.2   408  PHE408     -0.2867
    190  CB       115.1050  254.4150  362.2830 C.3   408  PHE408      0.0534
    191  CG       114.4580  253.7310  363.4620 C.ar  408  PHE408     -0.0203
    192  CD1      113.2960  252.9850  363.3030 C.ar  408  PHE408     -0.0042
    193  CD2      115.0190  253.8450  364.7310 C.ar  408  PHE408     -0.0042
    194  CE1      112.6840  252.3650  364.3780 C.ar  408  PHE408     -0.0003
    195  CE2      114.4330  253.2180  365.8320 C.ar  408  PHE408     -0.0003
    196  CZ       113.2520  252.4720  365.6560 C.ar  408  PHE408     -0.0000
    197  N        120.1870  257.6300  360.2150 N.3   410  TYR410     -0.1241
    198  CA       121.5950  257.4010  360.4960 C.3   410  TYR410      0.1605
    199  C        122.1950  258.6040  361.2180 C.2   410  TYR410      0.2264
    200  O        121.6730  259.7190  361.1710 O.2   410  TYR410     -0.2867
    201  CB       122.3680  257.1130  359.1960 C.3   410  TYR410      0.0534
    202  CG       122.0600  255.7340  358.6700 C.ar  410  TYR410     -0.0201
    203  CD1      121.1400  255.5470  357.6430 C.ar  410  TYR410     -0.0009
    204  CD2      122.6450  254.6080  359.2450 C.ar  410  TYR410     -0.0009
    205  CE1      120.8320  254.2810  357.1850 C.ar  410  TYR410      0.0417
    206  CE2      122.3480  253.3390  358.7950 C.ar  410  TYR410      0.0417
    207  CZ       121.4390  253.1830  357.7570 C.ar  410  TYR410      0.1957
    208  OH       121.1370  251.9180  357.3000 O.3   410  TYR410     -0.2866
@<TRIPOS>BOND
     1   172   173    1
     2   173   174    1
     3   173   176    1
     4   174   175    2
     5   178   180   ar
     6   178   177   ar
     7   156   155    1
     8   156   157    2
     9   155   154    1
    10   176   177    1
    11   159   157    1
    12   157   158    1
    13   180   181   ar
    14    40    38    1
    15   177   179   ar
    16    37    38    2
    17    37    36    1
    18    38    39    1
    19   154   153    1
    20   181   179   ar
    21   181   183   ar
    22   149   150    1
    23   179   182   ar
    24   150   153    1
    25   150   151    1
    26    53    51    1
    27    35    36    1
    28    35    34    1
    29   169   170    2
    30   169   168    1
    31   139   138    1
    32   152   151    2
    33   183   185   ar
    34   167   168    1
    35   138   137    1
    36    31    34    1
    37    31    30    1
    38    31    32    1
    39   182   184   ar
    40    51    48    1
    41    51    52    1
    42   168   171    1
    43    33    32    2
    44    32    41   am
    45   185   184   ar
    46    48    47    1
    47    48    49    1
    48     1     2    1
    49   137   136    1
    50     5     6    1
    51     5     2    1
    52   140   141    1
    53    47    43   am
    54     8     6   ar
    55     8    10   ar
    56    41    42    1
    57    44    43    2
    58    50    49    2
    59     6     7   ar
    60    43    42    1
    61   141   142    1
    62   141   144    1
    63     2     3    1
    64    49    54   am
    65   143   142    2
    66    10     9   ar
    67   136   133    1
    68    28    27    2
    69    42    45    1
    70    27    26    1
    71   163   162    2
    72   145   144    1
    73   145   146    1
    74     7     9   ar
    75   162   161    1
    76   134   135    2
    77   134   133    1
    78     3     4    2
    79    54    55    1
    80   205   203   ar
    81   205   207   ar
    82   166   164    1
    83   208   207    1
    84   133   132    1
    85   203   202   ar
    86    45    46    1
    87   207   206   ar
    88    26    25    1
    89    26    29    1
    90   146   147   ar
    91   146   148   ar
    92   165   164    1
    93   161   164    1
    94   161   160    1
    95    55    56    1
    96   202   201    1
    97   202   204   ar
    98   206   204   ar
    99    56    57    2
   100   201   198    1
   101   189   188    2
   102    14    13    2
   103   197   198    1
   104   198   199    1
   105    96    95    1
   106   200   199    2
   107    58    59    1
   108   188   187    1
   109    13    12    1
   110    95    94    1
   111    19    17   ar
   112    19    20   ar
   113    17    16   ar
   114   121   120    2
   115   186   187    1
   116   126   124   ar
   117   126   127   ar
   118   124   123   ar
   119   187   190    1
   120   190   191    1
   121    12    11    1
   122    12    15    1
   123    63    62    1
   124    63    64    1
   125   120   119    1
   126    94    93    1
   127    59    62    1
   128    59    60    1
   129    20    22   ar
   130    20    18   ar
   131    66    64   am
   132    16    15    1
   133    16    18   ar
   134    22    24   ar
   135   127   129   ar
   136   127   125   ar
   137   192   191   ar
   138   192   194   ar
   139   129   131   ar
   140    60    61    2
   141    64    65    2
   142   191   193   ar
   143   123   125   ar
   144   123   122    1
   145    18    21   ar
   146   107   105   ar
   147   107   106   ar
   148    93    90    1
   149   105   103   ar
   150   119   122    1
   151   119   118    1
   152   125   128   ar
   153    24    23   ar
   154   118   116   am
   155   194   196   ar
   156    90    89    1
   157    90    91    1
   158   131   130   ar
   159   193   195   ar
   160    21    23   ar
   161   106   104   ar
   162   103   102   ar
   163   128   130   ar
   164   116   115    1
   165   116   117    2
   166    91    92    2
   167   115   114    1
   168   196   195   ar
   169   104   102   ar
   170   114   110   am
   171   102   101    1
   172   110   111    2
   173   110   109    1
   174   100    99    2
   175    79    80    1
   176    79    76    1
   177   101    98    1
   178   109   108    1
   179   109   112    1
   180    99   108   am
   181    99    98    1
   182    74    72    1
   183    98    97    1
   184    73    72    1
   185    71    72    1
   186    71    68    1
   187    76    75    1
   188    76    77    1
   189   112   113    1
   190    67    68    1
   191    88    86    1
   192    68    69    1
   193    77    78    2
   194    86    85    1
   195    85    87    1
   196    85    82    1
   197    69    70    2
   198    82    81    1
   199    82    83    1
   200    83    84    2
