@<TRIPOS>MOLECULE
tmp/6cieA02.pdb
 181 178 0 0 0
SMALL
GASTEIGER

@<TRIPOS>ATOM
      1  N         58.0630   25.5570 -172.6740 N.3    37  VAL37      -0.1231
      2  CA        58.2590   26.1850 -173.9860 C.3    37  VAL37       0.1692
      3  C         57.6880   27.5950 -174.0090 C.2    37  VAL37       0.2592
      4  O         58.3600   28.5480 -174.4280 O.2    37  VAL37      -0.2718
      5  CB        57.6380   25.3180 -175.0920 C.3    37  VAL37       0.0266
      6  CG1       57.6890   26.0480 -176.4430 C.3    37  VAL37       0.0020
      7  CG2       58.3470   23.9900 -175.1700 C.3    37  VAL37       0.0020
      8  N         56.4280   27.7460 -173.6080 N.am   38  PHE38      -0.1976
      9  CA        55.8070   29.0620 -173.4810 C.3    38  PHE38       0.1639
     10  C         55.5350   29.3150 -172.0030 C.2    38  PHE38       0.2290
     11  O         54.5360   28.8140 -171.4600 O.2    38  PHE38      -0.2864
     12  CB        54.5110   29.1540 -174.2910 C.3    38  PHE38       0.0560
     13  CG        54.6690   28.8090 -175.7380 C.ar   38  PHE38      -0.0200
     14  CD1       54.1160   27.6450 -176.2430 C.ar   38  PHE38      -0.0042
     15  CD2       55.3540   29.6560 -176.6060 C.ar   38  PHE38      -0.0042
     16  CE1       54.2510   27.3130 -177.5860 C.ar   38  PHE38      -0.0003
     17  CE2       55.5010   29.3290 -177.9500 C.ar   38  PHE38      -0.0003
     18  CZ        54.9450   28.1580 -178.4410 C.ar   38  PHE38      -0.0000
     19  N         68.4760   31.0360 -179.4350 N.3   105  CYS105     -0.1235
     20  CA        69.1210   31.0200 -180.7450 C.3   105  CYS105      0.1677
     21  C         70.5780   30.5820 -180.6180 C.2   105  CYS105      0.2270
     22  O         71.3840   31.2540 -179.9630 O.2   105  CYS105     -0.2867
     23  CB        69.0410   32.4030 -181.3950 C.3   105  CYS105      0.0956
     24  SG        69.5680   32.4550 -183.1620 S.3   105  CYS105     -0.0801
     25  N         52.8470   30.3590 -189.0220 N.3   167  SER167     -0.1202
     26  CA        54.0100   30.3950 -188.1410 C.3   167  SER167      0.2020
     27  C         55.2820   30.7020 -188.9170 C.2   167  SER167      0.2618
     28  O         56.1940   31.3470 -188.3850 O.2   167  SER167     -0.2717
     29  CB        54.1490   29.0680 -187.4010 C.3   167  SER167      0.2103
     30  OG        54.3170   27.9960 -188.3110 O.3   167  SER167     -0.2182
     31  N         55.3620   30.2480 -190.1650 N.am  168  GLN168     -0.1979
     32  CA        56.4890   30.5360 -191.0350 C.3   168  GLN168      0.1601
     33  C         55.9720   30.8950 -192.4250 C.2   168  GLN168      0.2287
     34  O         54.8210   30.6160 -192.7710 O.2   168  GLN168     -0.2864
     35  CB        57.4530   29.3500 -191.1220 C.3   168  GLN168      0.0394
     36  CG        58.1370   28.9700 -189.8090 C.3   168  GLN168      0.0908
     37  CD        59.0360   27.7830 -190.0100 C.2   168  GLN168      0.2608
     38  OE1       59.7700   27.7110 -191.0000 O.2   168  GLN168     -0.2717
     39  NE2       58.9530   26.8200 -189.1110 N.am  168  GLN168     -0.0878
     40  N         55.5430   26.6560 -195.1090 N.3   171  ARG171     -0.1245
     41  CA        55.0080   25.5700 -194.2980 C.3   171  ARG171      0.1563
     42  C         54.3030   24.5680 -195.2050 C.2   171  ARG171      0.2260
     43  O         53.7680   24.9350 -196.2580 O.2   171  ARG171     -0.2867
     44  CB        54.0190   26.0910 -193.2470 C.3   171  ARG171      0.0307
     45  CG        54.6270   26.9900 -192.1740 C.3   171  ARG171      0.0489
     46  CD        54.9810   26.2060 -190.9180 C.3   171  ARG171      0.2205
     47  NE        56.0750   25.2690 -191.1440 N.pl3 171  ARG171     -0.0865
     48  CZ        56.5740   24.4650 -190.2130 C.cat 171  ARG171      0.5346
     49  NH1       56.0690   24.4790 -188.9860 N.pl3 171  ARG171      0.1354
     50  NH2       57.5790   23.6470 -190.5130 N.pl3 171  ARG171      0.1354
     51  N         64.0990   29.0020 -193.5880 N.3   255  PRO255     -0.2116
     52  CA        63.3020   29.0510 -192.3560 C.3   255  PRO255      0.1372
     53  C         62.9830   30.4980 -192.0210 C.2   255  PRO255      0.2244
     54  O         63.8760   31.2830 -191.6950 O.2   255  PRO255     -0.2868
     55  CB        64.2350   28.4030 -191.3120 C.3   255  PRO255      0.0268
     56  CG        65.6100   28.8170 -191.7550 C.3   255  PRO255      0.0207
     57  CD        65.5410   28.9990 -193.2930 C.3   255  PRO255      0.0892
     58  N         60.5130   32.8370 -189.8020 N.3   257  VAL257     -0.1245
     59  CA        59.5780   32.8470 -188.6770 C.3   257  VAL257      0.1561
     60  C         58.6860   34.0800 -188.7740 C.2   257  VAL257      0.2260
     61  O         59.1700   35.2160 -188.6990 O.2   257  VAL257     -0.2867
     62  CB        60.3380   32.8060 -187.3440 C.3   257  VAL257      0.0252
     63  CG1       59.4200   33.1480 -186.1800 C.3   257  VAL257      0.0019
     64  CG2       60.9730   31.4290 -187.1540 C.3   257  VAL257      0.0019
     65  N         55.5350   34.8110 -187.0050 N.3   259  ASN259     -0.1225
     66  CA        54.4980   35.0790 -186.0160 C.3   259  ASN259      0.1785
     67  C         55.0250   35.6410 -184.7070 C.2   259  ASN259      0.2597
     68  O         54.2320   35.8340 -183.7820 O.2   259  ASN259     -0.2718
     69  CB        53.6660   33.8130 -185.7240 C.3   259  ASN259      0.1169
     70  CG        54.4790   32.6860 -185.1090 C.2   259  ASN259      0.2627
     71  OD1       55.6180   32.8680 -184.6790 O.2   259  ASN259     -0.2716
     72  ND2       53.8820   31.5050 -185.0590 N.am  259  ASN259     -0.0877
     73  N         56.3190   35.9010 -184.5900 N.am  260  MET260     -0.1979
     74  CA        56.8430   36.4780 -183.3660 C.3   260  MET260      0.1605
     75  C         56.7240   37.9930 -183.4020 C.2   260  MET260      0.2287
     76  O         56.6500   38.6160 -184.4640 O.2   260  MET260     -0.2864
     77  CB        58.2950   36.0640 -183.1370 C.3   260  MET260      0.0413
     78  CG        58.4500   34.5980 -182.7380 C.3   260  MET260      0.0598
     79  SD        60.0870   34.2420 -182.0910 S.3   260  MET260     -0.1393
     80  CE        59.9070   34.8240 -180.4050 C.3   260  MET260      0.0692
     81  N         61.5870   37.2700 -189.5320 N.3   274  PHE274     -0.1227
     82  CA        63.0200   37.0950 -189.6930 C.3   274  PHE274      0.1736
     83  C         63.3190   35.7180 -190.2710 C.2   274  PHE274      0.2596
     84  O         62.5950   34.7480 -190.0290 O.2   274  PHE274     -0.2718
     85  CB        63.7710   37.2790 -188.3700 C.3   274  PHE274      0.0547
     86  CG        63.3040   36.3650 -187.2500 C.ar  274  PHE274     -0.0202
     87  CD1       63.8470   35.0980 -187.0880 C.ar  274  PHE274     -0.0042
     88  CD2       62.3500   36.7910 -186.3450 C.ar  274  PHE274     -0.0042
     89  CE1       63.4310   34.2640 -186.0590 C.ar  274  PHE274     -0.0003
     90  CE2       61.9290   35.9670 -185.3200 C.ar  274  PHE274     -0.0003
     91  CZ        62.4740   34.6980 -185.1690 C.ar  274  PHE274     -0.0000
     92  N         64.3930   35.6500 -191.0510 N.am  275  SER275     -0.1938
     93  CA        64.8310   34.4140 -191.6690 C.3   275  SER275      0.2055
     94  C         66.3490   34.3410 -191.5980 C.2   275  SER275      0.2644
     95  O         67.0430   35.3630 -191.6030 O.2   275  SER275     -0.2714
     96  CB        64.3630   34.3180 -193.1300 C.3   275  SER275      0.2130
     97  OG        65.2390   35.0260 -193.9880 O.3   275  SER275     -0.2179
     98  N         66.8570   33.1170 -191.5340 N.am  276  GLY276     -0.1939
     99  CA        68.2840   32.9000 -191.4650 C.3   276  GLY276      0.2014
    100  C         68.6380   31.7310 -192.3460 C.2   276  GLY276      0.2639
    101  O         68.4520   31.7820 -193.5640 O.2   276  GLY276     -0.2714
    102  N         69.1570   30.6710 -191.7440 N.am  277  TRP277     -0.1959
    103  CA        69.2720   29.3940 -192.4240 C.3   277  TRP277      0.1771
    104  C         69.1890   28.2980 -191.3730 C.2   277  TRP277      0.2620
    105  O         69.3090   28.5480 -190.1720 O.2   277  TRP277     -0.2715
    106  CB        70.5530   29.3020 -193.2640 C.3   277  TRP277      0.0590
    107  CG        71.8110   29.6020 -192.5390 C.ar  277  TRP277      0.0006
    108  CD1       72.4980   28.7610 -191.6980 C.ar  277  TRP277      0.0946
    109  CD2       72.5680   30.8130 -192.6030 C.ar  277  TRP277      0.0152
    110  NE1       73.6270   29.3890 -191.2280 N.ar  277  TRP277     -0.2442
    111  CE2       73.6950   30.6470 -191.7730 C.ar  277  TRP277      0.0810
    112  CE3       72.4010   32.0260 -193.2770 C.ar  277  TRP277      0.0012
    113  CZ2       74.6460   31.6510 -191.5960 C.ar  277  TRP277      0.0191
    114  CZ3       73.3540   33.0190 -193.1080 C.ar  277  TRP277      0.0001
    115  CH2       74.4570   32.8250 -192.2620 C.ar  277  TRP277      0.0015
    116  N         68.9540   27.0820 -191.8460 N.am  278  TYR278     -0.1960
    117  CA        68.6780   25.9510 -190.9820 C.3   278  TYR278      0.1771
    118  C         69.9610   25.4010 -190.3650 C.2   278  TYR278      0.2619
    119  O         71.0320   25.4240 -190.9780 O.2   278  TYR278     -0.2715
    120  CB        67.9850   24.8470 -191.7830 C.3   278  TYR278      0.0574
    121  CG        66.4680   24.8770 -191.8050 C.ar  278  TYR278     -0.0198
    122  CD1       65.7500   24.7050 -190.6400 C.ar  278  TYR278     -0.0009
    123  CD2       65.7560   25.0450 -193.0000 C.ar  278  TYR278     -0.0009
    124  CE1       64.3710   24.7100 -190.6400 C.ar  278  TYR278      0.0417
    125  CE2       64.3580   25.0490 -193.0090 C.ar  278  TYR278      0.0417
    126  CZ        63.6790   24.8780 -191.8170 C.ar  278  TYR278      0.1957
    127  OH        62.3110   24.8710 -191.7840 O.3   278  TYR278     -0.2866
    128  N         69.8460   24.9390 -189.1230 N.am  279  MET279     -0.1977
    129  CA        70.7390   23.9170 -188.5940 C.3   279  MET279      0.1605
    130  C         70.1240   22.5640 -188.9380 C.2   279  MET279      0.2287
    131  O         68.9060   22.3940 -188.8460 O.2   279  MET279     -0.2864
    132  CB        70.9330   24.0820 -187.0830 C.3   279  MET279      0.0413
    133  CG        71.9270   23.1100 -186.4830 C.3   279  MET279      0.0598
    134  SD        72.2640   23.4790 -184.7580 S.3   279  MET279     -0.1393
    135  CE        70.7130   23.0340 -183.9710 C.3   279  MET279      0.0692
    136  N         67.3240   20.5010 -187.0160 N.3   282  GLU282     -0.1245
    137  CA        65.9400   20.9630 -187.0730 C.3   282  GLU282      0.1567
    138  C         65.1380   20.1610 -188.0970 C.2   282  GLU282      0.2260
    139  O         64.0260   19.6980 -187.8140 O.2   282  GLU282     -0.2867
    140  CB        65.8850   22.4420 -187.4410 C.3   282  GLU282      0.0388
    141  CG        66.7140   23.3740 -186.5980 C.3   282  GLU282      0.1160
    142  CD        66.4140   24.8310 -186.9680 C.2   282  GLU282      0.3649
    143  OE1       65.2240   25.2150 -186.9030 O.co2 282  GLU282     -0.2457
    144  OE2       67.3500   25.5770 -187.3400 O.co2 282  GLU282     -0.2457
    145  N         55.4600   14.9090 -185.6260 N.3   293  ARG293     -0.1245
    146  CA        55.7650   15.5660 -186.8930 C.3   293  ARG293      0.1563
    147  C         55.6830   14.5160 -188.0000 C.2   293  ARG293      0.2260
    148  O         54.7430   13.7150 -187.9820 O.2   293  ARG293     -0.2867
    149  CB        57.1020   16.2990 -186.7840 C.3   293  ARG293      0.0307
    150  CG        57.1270   17.4590 -185.7940 C.3   293  ARG293      0.0489
    151  CD        56.1130   18.5710 -186.1310 C.3   293  ARG293      0.2205
    152  NE        56.4480   19.2920 -187.3560 N.pl3 293  ARG293     -0.0865
    153  CZ        57.3900   20.2310 -187.4520 C.cat 293  ARG293      0.5346
    154  NH1       58.1170   20.5610 -186.3950 N.pl3 293  ARG293      0.1354
    155  NH2       57.6250   20.8330 -188.6220 N.pl3 293  ARG293      0.1354
    156  N         67.5400   24.6490 -175.1920 N.3   368  TRP368     -0.1241
    157  CA        67.3780   24.8680 -176.6290 C.3   368  TRP368      0.1605
    158  C         68.6950   25.0480 -177.3590 C.2   368  TRP368      0.2264
    159  O         68.7290   24.9130 -178.5880 O.2   368  TRP368     -0.2867
    160  CB        66.4800   26.0810 -176.8890 C.3   368  TRP368      0.0550
    161  CG        65.0440   25.8360 -176.5070 C.ar  368  TRP368      0.0003
    162  CD1       64.5740   25.4160 -175.3090 C.ar  368  TRP368      0.0946
    163  CD2       63.9000   26.0240 -177.3410 C.ar  368  TRP368      0.0152
    164  NE1       63.2050   25.3190 -175.3400 N.ar  368  TRP368     -0.2442
    165  CE2       62.7660   25.6810 -176.5800 C.ar  368  TRP368      0.0810
    166  CE3       63.7230   26.4420 -178.6650 C.ar  368  TRP368      0.0012
    167  CZ2       61.4720   25.7490 -177.0940 C.ar  368  TRP368      0.0191
    168  CZ3       62.4390   26.5090 -179.1780 C.ar  368  TRP368      0.0001
    169  CH2       61.3290   26.1660 -178.3960 C.ar  368  TRP368      0.0015
    170  N         56.9200   35.8390 -178.1320 N.3   396  TYR396     -0.1241
    171  CA        55.7610   35.1410 -178.6670 C.3   396  TYR396      0.1605
    172  C         54.4990   35.9490 -178.4040 C.2   396  TYR396      0.2264
    173  O         54.4530   36.8170 -177.5270 O.2   396  TYR396     -0.2867
    174  CB        55.6150   33.7540 -178.0460 C.3   396  TYR396      0.0534
    175  CG        56.8860   32.9530 -178.0100 C.ar  396  TYR396     -0.0201
    176  CD1       57.3030   32.2160 -179.1160 C.ar  396  TYR396     -0.0009
    177  CD2       57.6670   32.9190 -176.8610 C.ar  396  TYR396     -0.0009
    178  CE1       58.4720   31.4700 -179.0700 C.ar  396  TYR396      0.0417
    179  CE2       58.8280   32.1820 -176.8080 C.ar  396  TYR396      0.0417
    180  CZ        59.2260   31.4590 -177.9110 C.ar  396  TYR396      0.1957
    181  OH        60.3850   30.7250 -177.8530 O.3   396  TYR396     -0.2866
@<TRIPOS>BOND
     1    43    42    2
     2    42    41    1
     3    40    41    1
     4    41    44    1
     5    97    96    1
     6    51    57    1
     7    51    52    1
     8   101   100    2
     9    57    56    1
    10   112   114   ar
    11   112   109   ar
    12   106   107    1
    13   106   103    1
    14    44    45    1
    15    96    93    1
    16   114   115   ar
    17   125   123   ar
    18   125   126   ar
    19   123   121   ar
    20    34    33    2
    21   109   107   ar
    22   109   111   ar
    23   107   108   ar
    24    33    32    1
    25   103   102    1
    26   103   104    1
    27    52    53    1
    28    52    55    1
    29   100   102   am
    30   100    99    1
    31   115   113   ar
    32    45    46    1
    33    53    54    2
    34   116   104   am
    35   116   117    1
    36   126   127    1
    37   126   124   ar
    38   121   120    1
    39   121   122   ar
    40   120   117    1
    41   111   113   ar
    42   111   110   ar
    43    56    55    1
    44   108   110   ar
    45    93    94    1
    46    93    92    1
    47    95    94    2
    48    94    98   am
    49    98    99    1
    50   104   105    2
    51    47    46    1
    52    47    48    2
    53    35    32    1
    54    35    36    1
    55    92    83   am
    56    32    31    1
    57    38    37    2
    58   117   118    1
    59   119   118    2
    60   124   122   ar
    61    50    48    1
    62   118   128   am
    63    83    84    2
    64    83    82    1
    65    48    49    1
    66    31    27   am
    67    37    36    1
    68    37    39   am
    69    58    59    1
    70    82    81    1
    71    82    85    1
    72   128   129    1
    73    25    26    1
    74   130   131    2
    75   130   129    1
    76    27    28    2
    77    27    26    1
    78    60    61    2
    79    60    59    1
    80    59    62    1
    81   155   153    1
    82   129   132    1
    83    85    86    1
    84    30    29    1
    85    26    29    1
    86   138   139    2
    87   138   137    1
    88   147   148    2
    89   147   146    1
    90   153   152    2
    91   153   154    1
    92   140   137    1
    93   140   141    1
    94   152   151    1
    95    62    64    1
    96    62    63    1
    97   144   142   ar
    98    86    87   ar
    99    86    88   ar
   100    87    89   ar
   101   132   133    1
   102   137   136    1
   103    65    66    1
   104   142   143   ar
   105   142   141    1
   106   146   149    1
   107   146   145    1
   108   149   150    1
   109   133   134    1
   110    88    90   ar
   111   151   150    1
   112    89    91   ar
   113    66    69    1
   114    66    67    1
   115    69    70    1
   116    90    91   ar
   117    70    72   am
   118    70    71    2
   119   134   135    1
   120    67    73   am
   121    67    68    2
   122    73    74    1
   123    76    75    2
   124    75    74    1
   125    74    77    1
   126    24    23    1
   127    77    78    1
   128    78    79    1
   129    79    80    1
   130    23    20    1
   131    20    21    1
   132    20    19    1
   133    21    22    2
   134   168   166   ar
   135   168   169   ar
   136   176   178   ar
   137   176   175   ar
   138   178   180   ar
   139   171   172    1
   140   171   170    1
   141   171   174    1
   142   166   163   ar
   143   159   158    2
   144    18    17   ar
   145    18    16   ar
   146   172   173    2
   147   169   167   ar
   148   174   175    1
   149   175   177   ar
   150    17    15   ar
   151   180   181    1
   152   180   179   ar
   153    16    14   ar
   154   158   157    1
   155   163   165   ar
   156   163   161   ar
   157   167   165   ar
   158   160   157    1
   159   160   161    1
   160   177   179   ar
   161   157   156    1
   162    15    13   ar
   163   165   164   ar
   164   161   162   ar
   165     6     5    1
   166    14    13   ar
   167    13    12    1
   168   164   162   ar
   169     7     5    1
   170     5     2    1
   171     4     3    2
   172    12     9    1
   173     3     2    1
   174     3     8   am
   175     2     1    1
   176     8     9    1
   177     9    10    1
   178    10    11    2
