@<TRIPOS>MOLECULE
tmp/6cifD03.pdb
 159 158 0 0 0
SMALL
GASTEIGER

@<TRIPOS>ATOM
      1  N        -71.5250   23.7030 -218.2300 N.3    38  VAL38      -0.1231
      2  CA       -71.6490   22.3450 -218.7610 C.3    38  VAL38       0.1692
      3  C        -71.4900   22.3520 -220.2720 C.2    38  VAL38       0.2592
      4  O        -70.8170   21.4830 -220.8370 O.2    38  VAL38      -0.2718
      5  CB       -72.9890   21.7090 -218.3400 C.3    38  VAL38       0.0266
      6  CG1      -73.0970   20.2690 -218.8520 C.3    38  VAL38       0.0020
      7  CG2      -73.1590   21.7470 -216.8390 C.3    38  VAL38       0.0020
      8  N        -72.1050   23.3280 -220.9460 N.am   39  PHE39      -0.1976
      9  CA       -72.0630   23.4670 -222.4030 C.3    39  PHE39       0.1639
     10  C        -71.4230   24.8090 -222.7220 C.2    39  PHE39       0.2290
     11  O        -72.1090   25.8440 -222.7380 O.2    39  PHE39      -0.2864
     12  CB       -73.4580   23.3600 -223.0240 C.3    39  PHE39       0.0560
     13  CG       -74.1000   22.0400 -222.7970 C.ar   39  PHE39      -0.0200
     14  CD1      -73.5130   20.8850 -223.2840 C.ar   39  PHE39      -0.0042
     15  CD2      -75.2690   21.9350 -222.0580 C.ar   39  PHE39      -0.0042
     16  CE1      -74.0880   19.6340 -223.0480 C.ar   39  PHE39      -0.0003
     17  CE2      -75.8480   20.6880 -221.8180 C.ar   39  PHE39      -0.0003
     18  CZ       -75.2530   19.5410 -222.3120 C.ar   39  PHE39      -0.0000
     19  N        -63.3750   12.7310 -219.3870 N.3   108  CYS108     -0.1235
     20  CA       -63.4400   11.2870 -219.2150 C.3   108  CYS108      0.1677
     21  C        -62.3940   10.8530 -218.1940 C.2   108  CYS108      0.2270
     22  O        -61.1940   11.0610 -218.4040 O.2   108  CYS108     -0.2867
     23  CB       -63.2150   10.5600 -220.5390 C.3   108  CYS108      0.0956
     24  SG       -63.3300    8.7930 -220.3340 S.3   108  CYS108     -0.0801
     25  N        -80.1920   10.1920 -226.3310 N.3   170  SER170     -0.1202
     26  CA       -78.8810   10.6110 -225.8570 C.3   170  SER170      0.2020
     27  C        -78.0290    9.4200 -225.3880 C.2   170  SER170      0.2618
     28  O        -76.8000    9.4920 -225.4390 O.2   170  SER170     -0.2717
     29  CB       -79.0640   11.6490 -224.7430 C.3   170  SER170      0.2103
     30  OG       -79.6300   11.0430 -223.5870 O.3   170  SER170     -0.2182
     31  N        -78.6430    8.3240 -224.9460 N.am  171  GLN171     -0.1979
     32  CA       -77.9530    7.0430 -224.8190 C.3   171  GLN171      0.1601
     33  C        -78.7990    5.9360 -225.4410 C.2   171  GLN171      0.2287
     34  O        -80.0250    6.0520 -225.5490 O.2   171  GLN171     -0.2864
     35  CB       -77.6480    6.6590 -223.3480 C.3   171  GLN171      0.0394
     36  CG       -76.7940    7.6700 -222.5370 C.3   171  GLN171      0.0908
     37  CD       -76.6120    7.2190 -221.0840 C.2   171  GLN171      0.2608
     38  OE1      -76.7960    6.0480 -220.7550 O.2   171  GLN171     -0.2717
     39  NE2      -76.2610    8.1490 -220.2200 N.am  171  GLN171     -0.0878
     40  N        -73.4870    1.7370 -220.3600 N.3   258  PRO258     -0.2116
     41  CA       -73.6230    3.1560 -220.7210 C.3   258  PRO258      0.1372
     42  C        -73.1220    3.3900 -222.1450 C.2   258  PRO258      0.2244
     43  O        -71.9420    3.1740 -222.4250 O.2   258  PRO258     -0.2868
     44  CB       -72.7640    3.8750 -219.6710 C.3   258  PRO258      0.0268
     45  CG       -71.6870    2.8490 -219.2760 C.3   258  PRO258      0.0207
     46  CD       -72.2360    1.4490 -219.6310 C.3   258  PRO258      0.0892
     47  N        -73.2080    6.2660 -225.0700 N.3   260  VAL260     -0.1245
     48  CA       -73.5430    7.6450 -225.4030 C.3   260  VAL260      0.1561
     49  C        -73.7510    7.7460 -226.9080 C.2   260  VAL260      0.2260
     50  O        -72.8720    7.3700 -227.6960 O.2   260  VAL260     -0.2867
     51  CB       -72.4510    8.6130 -224.9250 C.3   260  VAL260      0.0252
     52  CG1      -72.6630    9.9990 -225.5220 C.3   260  VAL260      0.0019
     53  CG2      -72.4460    8.7070 -223.3670 C.3   260  VAL260      0.0019
     54  N        -75.5250   10.5990 -228.7300 N.3   262  ASN262     -0.1225
     55  CA       -75.8710   11.8830 -229.3340 C.3   262  ASN262      0.1785
     56  C        -74.6730   12.8090 -229.4880 C.2   262  ASN262      0.2597
     57  O        -74.8540   14.0090 -229.7110 O.2   262  ASN262     -0.2718
     58  CB       -76.9580   12.5860 -228.5180 C.3   262  ASN262      0.1169
     59  CG       -76.4580   13.0440 -227.1500 C.2   262  ASN262      0.2627
     60  OD1      -75.3350   12.7370 -226.7370 O.2   262  ASN262     -0.2716
     61  ND2      -77.3050   13.7620 -226.4330 N.am  262  ASN262     -0.0877
     62  N        -73.4570   12.3050 -229.3390 N.am  263  MET263     -0.1979
     63  CA       -72.3060   13.1690 -229.5320 C.3   263  MET263      0.1605
     64  C        -71.7980   13.0540 -230.9600 C.2   263  MET263      0.2287
     65  O        -72.0590   12.0830 -231.6680 O.2   263  MET263     -0.2864
     66  CB       -71.1930   12.8510 -228.5320 C.3   263  MET263      0.0413
     67  CG       -71.6670   13.0850 -227.0960 C.3   263  MET263      0.0598
     68  SD       -70.3350   13.1660 -225.8980 S.3   263  MET263     -0.1393
     69  CE       -69.5530   14.7230 -226.3250 C.3   263  MET263      0.0692
     70  N        -70.7630    5.3920 -228.6220 N.3   277  PHE277     -0.1227
     71  CA       -69.6820    4.7070 -227.9220 C.3   277  PHE277      0.1736
     72  C        -70.1280    4.2570 -226.5290 C.2   277  PHE277      0.2596
     73  O        -70.9650    4.8920 -225.8740 O.2   277  PHE277     -0.2718
     74  CB       -68.4320    5.5980 -227.8110 C.3   277  PHE277      0.0547
     75  CG       -68.6640    6.8910 -227.0730 C.ar  277  PHE277     -0.0202
     76  CD1      -68.6440    6.9310 -225.6760 C.ar  277  PHE277     -0.0042
     77  CD2      -68.8920    8.0660 -227.7660 C.ar  277  PHE277     -0.0042
     78  CE1      -68.8550    8.1170 -225.0000 C.ar  277  PHE277     -0.0003
     79  CE2      -69.1060    9.2660 -227.0790 C.ar  277  PHE277     -0.0003
     80  CZ       -69.0830    9.2850 -225.7080 C.ar  277  PHE277     -0.0000
     81  N        -69.5390    3.1590 -226.0720 N.am  278  SER278     -0.1938
     82  CA       -69.9010    2.5580 -224.8020 C.3   278  SER278      0.2055
     83  C        -68.6350    2.1050 -224.0910 C.2   278  SER278      0.2644
     84  O        -67.6260    1.8020 -224.7270 O.2   278  SER278     -0.2714
     85  CB       -70.8890    1.3890 -225.0000 C.3   278  SER278      0.2130
     86  OG       -70.4360    0.4630 -225.9710 O.3   278  SER278     -0.2179
     87  N        -68.6780    2.1500 -222.7600 N.am  279  GLY279     -0.1939
     88  CA       -67.6460    1.5860 -221.9080 C.3   279  GLY279      0.2014
     89  C        -68.2640    0.8380 -220.7400 C.2   279  GLY279      0.2639
     90  O        -69.0490   -0.0920 -220.9440 O.2   279  GLY279     -0.2714
     91  N        -67.9510    1.2290 -219.5060 N.am  280  TRP280     -0.1959
     92  CA       -68.6770    0.7060 -218.3640 C.3   280  TRP280      0.1771
     93  C        -68.8290    1.8250 -217.3420 C.2   280  TRP280      0.2620
     94  O        -68.1650    2.8580 -217.4130 O.2   280  TRP280     -0.2715
     95  CB       -67.9990   -0.5600 -217.7680 C.3   280  TRP280      0.0590
     96  CG       -66.5130   -0.4380 -217.5180 C.ar  280  TRP280      0.0006
     97  CD1      -65.9220    0.1510 -216.4620 C.ar  280  TRP280      0.0946
     98  CD2      -65.4420   -0.9130 -218.3650 C.ar  280  TRP280      0.0152
     99  NE1      -64.5420    0.0870 -216.5710 N.ar  280  TRP280     -0.2442
    100  CE2      -64.2220   -0.5610 -217.7330 C.ar  280  TRP280      0.0810
    101  CE3      -65.3990   -1.5890 -219.5900 C.ar  280  TRP280      0.0012
    102  CZ2      -62.9760   -0.8630 -218.2770 C.ar  280  TRP280      0.0191
    103  CZ3      -64.1440   -1.9040 -220.1400 C.ar  280  TRP280      0.0001
    104  CH2      -62.9530   -1.5500 -219.4750 C.ar  280  TRP280      0.0015
    105  N        -69.7500    1.6270 -216.4040 N.am  281  TYR281     -0.1960
    106  CA       -70.0490    2.6550 -215.4250 C.3   281  TYR281      0.1771
    107  C        -68.9800    2.7350 -214.3530 C.2   281  TYR281      0.2619
    108  O        -68.4190    1.7190 -213.9180 O.2   281  TYR281     -0.2715
    109  CB       -71.3900    2.3930 -214.7470 C.3   281  TYR281      0.0574
    110  CG       -72.5740    3.0300 -215.4340 C.ar  281  TYR281     -0.0198
    111  CD1      -72.6890    4.4110 -215.5280 C.ar  281  TYR281     -0.0009
    112  CD2      -73.5940    2.2520 -215.9650 C.ar  281  TYR281     -0.0009
    113  CE1      -73.7870    4.9980 -216.1400 C.ar  281  TYR281      0.0417
    114  CE2      -74.7000    2.8400 -216.5760 C.ar  281  TYR281      0.0417
    115  CZ       -74.7910    4.2140 -216.6560 C.ar  281  TYR281      0.1957
    116  OH       -75.8900    4.8000 -217.2720 O.3   281  TYR281     -0.2866
    117  N        -68.7130    3.9640 -213.9270 N.am  282  MET282     -0.1977
    118  CA       -68.1450    4.2310 -212.6230 C.3   282  MET282      0.1605
    119  C        -69.3030    4.3680 -211.6370 C.2   282  MET282      0.2287
    120  O        -70.3050    5.0290 -211.9350 O.2   282  MET282     -0.2864
    121  CB       -67.2760    5.4880 -212.6530 C.3   282  MET282      0.0413
    122  CG       -66.7890    5.8700 -211.2550 C.3   282  MET282      0.0598
    123  SD       -65.5380    7.1500 -211.2850 S.3   282  MET282     -0.1393
    124  CE       -66.5410    8.6110 -211.0610 C.3   282  MET282      0.0692
    125  N        -71.6340    7.4100 -210.8760 N.3   285  GLU285     -0.1245
    126  CA       -72.5940    7.9380 -211.8450 C.3   285  GLU285      0.1567
    127  C        -73.9830    7.4250 -211.5350 C.2   285  GLU285      0.2260
    128  O        -74.9630    8.1740 -211.5960 O.2   285  GLU285     -0.2867
    129  CB       -72.2310    7.5390 -213.2760 C.3   285  GLU285      0.0388
    130  CG       -70.7960    7.7210 -213.6590 C.3   285  GLU285      0.1160
    131  CD       -70.5780    7.2880 -215.0910 C.2   285  GLU285      0.3649
    132  OE1      -71.2140    7.8920 -215.9890 O.co2 285  GLU285     -0.2457
    133  OE2      -69.8070    6.3280 -215.3170 O.co2 285  GLU285     -0.2457
    134  N        -65.0160   17.5740 -213.5350 N.3   371  TRP371     -0.1241
    135  CA       -65.6540   16.3580 -214.0190 C.3   371  TRP371      0.1605
    136  C        -64.8540   15.1140 -213.6780 C.2   371  TRP371      0.2264
    137  O        -65.4430   14.0520 -213.4760 O.2   371  TRP371     -0.2867
    138  CB       -65.8950   16.4650 -215.5400 C.3   371  TRP371      0.0550
    139  CG       -66.9080   17.5420 -215.8320 C.ar  371  TRP371      0.0003
    140  CD1      -66.7570   18.8890 -215.6140 C.ar  371  TRP371      0.0946
    141  CD2      -68.2320   17.3690 -216.3380 C.ar  371  TRP371      0.0152
    142  NE1      -67.9010   19.5630 -215.9690 N.ar  371  TRP371     -0.2442
    143  CE2      -68.8200   18.6520 -216.4200 C.ar  371  TRP371      0.0810
    144  CE3      -68.9630   16.2640 -216.7650 C.ar  371  TRP371      0.0012
    145  CZ2      -70.1080   18.8510 -216.8900 C.ar  371  TRP371      0.0191
    146  CZ3      -70.2490   16.4640 -217.2360 C.ar  371  TRP371      0.0001
    147  CH2      -70.8120   17.7470 -217.2860 C.ar  371  TRP371      0.0015
    148  N        -70.2830   17.9890 -228.3090 N.3   399  TYR399     -0.1241
    149  CA       -71.7230   18.1110 -228.2480 C.3   399  TYR399      0.1605
    150  C        -72.2400   18.7870 -229.5080 C.2   399  TYR399      0.2264
    151  O        -71.5300   19.5380 -230.1730 O.2   399  TYR399     -0.2867
    152  CB       -72.1390   18.9320 -227.0360 C.3   399  TYR399      0.0534
    153  CG       -71.7830   18.2870 -225.7420 C.ar  399  TYR399     -0.0201
    154  CD1      -72.3720   17.0900 -225.3820 C.ar  399  TYR399     -0.0009
    155  CD2      -70.8750   18.8680 -224.8680 C.ar  399  TYR399     -0.0009
    156  CE1      -72.0790   16.4770 -224.1980 C.ar  399  TYR399      0.0417
    157  CE2      -70.5720   18.2550 -223.6540 C.ar  399  TYR399      0.0417
    158  CZ       -71.1880   17.0530 -223.3380 C.ar  399  TYR399      0.1957
    159  OH       -70.9550   16.3850 -222.1640 O.3   399  TYR399     -0.2866
@<TRIPOS>BOND
     1    65    64    2
     2    64    63    1
     3   151   150    2
     4    57    56    2
     5    63    62    1
     6    63    66    1
     7   150   149    1
     8    56    62   am
     9    56    55    1
    10    55    54    1
    11    55    58    1
    12    70    71    1
    13    66    67    1
    14    58    59    1
    15   148   149    1
    16   149   152    1
    17    71    74    1
    18    71    72    1
    19    74    75    1
    20    77    79   ar
    21    77    75   ar
    22    50    49    2
    23    59    60    2
    24    59    61   am
    25    67    68    1
    26    79    80   ar
    27    75    76   ar
    28   152   153    1
    29    49    48    1
    30    72    81   am
    31    72    73    2
    32    25    26    1
    33    69    68    1
    34    81    82    1
    35    86    85    1
    36    26    27    1
    37    26    29    1
    38   153   154   ar
    39   153   155   ar
    40    80    78   ar
    41    76    78   ar
    42    34    33    2
    43    52    51    1
    44    33    32    1
    45    28    27    2
    46    48    47    1
    47    48    51    1
    48    27    31   am
    49   154   156   ar
    50    85    82    1
    51    31    32    1
    52    51    53    1
    53   155   157   ar
    54    32    35    1
    55    82    83    1
    56    29    30    1
    57    84    83    2
    58   156   158   ar
    59    83    87   am
    60   157   158   ar
    61    35    36    1
    62   158   159    1
    63    14    16   ar
    64    14    13   ar
    65    16    18   ar
    66    12    13    1
    67    12     9    1
    68    13    15   ar
    69    87    88    1
    70    11    10    2
    71    10     9    1
    72    36    37    1
    73    43    42    2
    74     9     8    1
    75    18    17   ar
    76    42    41    1
    77    15    17   ar
    78    88    89    1
    79    37    38    2
    80    37    39   am
    81     8     3   am
    82    90    89    2
    83     4     3    2
    84    89    91   am
    85    41    40    1
    86    41    44    1
    87    23    24    1
    88    23    20    1
    89    40    46    1
    90     3     2    1
    91   103   101   ar
    92   103   104   ar
    93    44    45    1
    94    46    45    1
    95   101    98   ar
    96    91    92    1
    97   104   102   ar
    98    19    20    1
    99    20    21    1
   100     6     5    1
   101     2     5    1
   102     2     1    1
   103    22    21    2
   104    98   100   ar
   105    98    96   ar
   106    92    95    1
   107    92    93    1
   108     5     7    1
   109   102   100   ar
   110    95    96    1
   111   100    99   ar
   112    96    97   ar
   113    94    93    2
   114    93   105   am
   115   147   146   ar
   116   147   145   ar
   117   116   115    1
   118   146   144   ar
   119   145   143   ar
   120   144   141   ar
   121   115   114   ar
   122   115   113   ar
   123   114   112   ar
   124    99    97   ar
   125   143   141   ar
   126   143   142   ar
   127   105   106    1
   128   141   139   ar
   129   113   111   ar
   130   132   131   ar
   131   142   140   ar
   132   112   110   ar
   133   139   140   ar
   134   139   138    1
   135   138   135    1
   136   111   110   ar
   137   110   109    1
   138   106   109    1
   139   106   107    1
   140   133   131   ar
   141   131   130    1
   142   107   117   am
   143   107   108    2
   144   135   136    1
   145   135   134    1
   146   117   118    1
   147   136   137    2
   148   130   129    1
   149   129   126    1
   150   121   118    1
   151   121   122    1
   152   118   119    1
   153   120   119    2
   154   126   127    1
   155   126   125    1
   156   128   127    2
   157   123   122    1
   158   123   124    1
