@<TRIPOS>MOLECULE
tmp/6cirB01.pdb
 160 148 0 0 0
SMALL
GASTEIGER

@<TRIPOS>ATOM
      1  N        -21.6650   30.3280  -67.6770 N.3    75  ALA75      -0.1245
      2  CA       -22.6870   30.5300  -66.6570 C.3    75  ALA75       0.1562
      3  C        -23.7410   31.5370  -67.0980 C.2    75  ALA75       0.2260
      4  O        -24.9110   31.4130  -66.7170 O.2    75  ALA75      -0.2867
      5  CB       -22.0400   30.9890  -65.3500 C.3    75  ALA75       0.0290
      6  N        -25.8180   40.1890  -64.1030 N.3    83  ALA83      -0.1231
      7  CA       -24.5990   40.2820  -63.3030 C.3    83  ALA83       0.1694
      8  C        -23.3440   40.2270  -64.1670 C.2    83  ALA83       0.2592
      9  O        -22.4300   41.0430  -64.0020 O.2    83  ALA83      -0.2718
     10  CB       -24.5780   39.1670  -62.2570 C.3    83  ALA83       0.0304
     11  N        -23.2710   39.2650  -65.0820 N.am   84  PHE84      -0.1976
     12  CA       -22.0820   39.0760  -65.9020 C.3    84  PHE84       0.1639
     13  C        -22.2090   39.7040  -67.2830 C.2    84  PHE84       0.2290
     14  O        -21.2460   39.6730  -68.0550 O.2    84  PHE84      -0.2864
     15  CB       -21.7740   37.5820  -66.0350 C.3    84  PHE84       0.0560
     16  CG       -21.6350   36.8750  -64.7160 C.ar   84  PHE84      -0.0200
     17  CD1      -21.0700   37.5180  -63.6260 C.ar   84  PHE84      -0.0042
     18  CD2      -22.0790   35.5720  -64.5610 C.ar   84  PHE84      -0.0042
     19  CE1      -20.9440   36.8760  -62.4120 C.ar   84  PHE84      -0.0003
     20  CE2      -21.9570   34.9220  -63.3480 C.ar   84  PHE84      -0.0003
     21  CZ       -21.3890   35.5750  -62.2710 C.ar   84  PHE84      -0.0000
     22  N        -26.7110   21.2820  -58.8160 N.3   171  TYR171     -0.1227
     23  CA       -25.9900   22.0300  -59.8400 C.3   171  TYR171      0.1736
     24  C        -25.6390   23.4440  -59.3920 C.2   171  TYR171      0.2595
     25  O        -24.7180   24.0440  -59.9570 O.2   171  TYR171     -0.2718
     26  CB       -26.7740   22.0660  -61.1630 C.3   171  TYR171      0.0548
     27  CG       -28.0880   22.8230  -61.1750 C.ar  171  TYR171     -0.0200
     28  CD1      -28.1310   24.1980  -60.9700 C.ar  171  TYR171     -0.0009
     29  CD2      -29.2820   22.1680  -61.4520 C.ar  171  TYR171     -0.0009
     30  CE1      -29.3260   24.8870  -60.9970 C.ar  171  TYR171      0.0417
     31  CE2      -30.4820   22.8520  -61.4860 C.ar  171  TYR171      0.0417
     32  CZ       -30.4970   24.2120  -61.2580 C.ar  171  TYR171      0.1957
     33  OH       -31.6860   24.8990  -61.2880 O.3   171  TYR171     -0.2866
     34  N        -26.3380   23.9910  -58.3950 N.am  172  ASN172     -0.1974
     35  CA       -25.8690   25.2230  -57.7690 C.3   172  ASN172      0.1688
     36  C        -24.4980   25.0110  -57.1410 C.2   172  ASN172      0.2292
     37  O        -23.5900   25.8350  -57.3040 O.2   172  ASN172     -0.2864
     38  CB       -26.8660   25.7020  -56.7140 C.3   172  ASN172      0.1181
     39  CG       -27.9970   26.5200  -57.3040 C.2   172  ASN172      0.2629
     40  OD1      -28.0060   26.8290  -58.4950 O.2   172  ASN172     -0.2716
     41  ND2      -28.9550   26.8870  -56.4620 N.am  172  ASN172     -0.0877
     42  N        -21.8530   24.4830  -60.1150 N.3   175  ILE175     -0.1231
     43  CA       -21.4720   25.6940  -60.8360 C.3   175  ILE175      0.1692
     44  C        -20.5880   26.5730  -59.9600 C.2   175  ILE175      0.2591
     45  O        -19.5330   27.0480  -60.3960 O.2   175  ILE175     -0.2718
     46  CB       -22.7260   26.4480  -61.3160 C.3   175  ILE175      0.0266
     47  CG1      -23.4650   25.6190  -62.3700 C.3   175  ILE175      0.0019
     48  CG2      -22.3450   27.8090  -61.8880 C.3   175  ILE175      0.0020
     49  CD1      -24.8930   26.0440  -62.6010 C.3   175  ILE175      0.0001
     50  N        -20.9970   26.7940  -58.7090 N.am  176  ILE176     -0.1980
     51  CA       -20.2070   27.6240  -57.8030 C.3   176  ILE176      0.1595
     52  C        -18.8050   27.0540  -57.6420 C.2   176  ILE176      0.2287
     53  O        -17.8230   27.7990  -57.5510 O.2   176  ILE176     -0.2864
     54  CB       -20.9210   27.7610  -56.4440 C.3   176  ILE176      0.0276
     55  CG1      -22.1140   28.7120  -56.5680 C.3   176  ILE176      0.0022
     56  CG2      -19.9450   28.2440  -55.3750 C.3   176  ILE176      0.0022
     57  CD1      -23.0250   28.7300  -55.3540 C.3   176  ILE176      0.0001
     58  N        -17.0040   27.5590  -61.1380 N.3   179  LEU179     -0.1245
     59  CA       -16.9600   28.9200  -61.6630 C.3   179  LEU179      0.1561
     60  C        -15.6220   29.5830  -61.3630 C.2   179  LEU179      0.2260
     61  O        -15.2010   30.4920  -62.0880 O.2   179  LEU179     -0.2867
     62  CB       -18.1100   29.7390  -61.0760 C.3   179  LEU179      0.0270
     63  CG       -18.5800   30.9850  -61.8240 C.3   179  LEU179      0.0019
     64  CD1      -18.9880   30.6570  -63.2480 C.3   179  LEU179      0.0001
     65  CD2      -19.7470   31.6070  -61.0770 C.3   179  LEU179      0.0001
     66  N        -29.1590   23.0260  -65.5700 N.3   209  ARG209     -0.1245
     67  CA       -29.8560   24.2350  -65.1420 C.3   209  ARG209      0.1563
     68  C        -30.6940   24.8140  -66.2760 C.2   209  ARG209      0.2260
     69  O        -31.8540   25.1900  -66.0690 O.2   209  ARG209     -0.2867
     70  CB       -28.8420   25.2640  -64.6330 C.3   209  ARG209      0.0307
     71  CG       -29.4310   26.4270  -63.8280 C.3   209  ARG209      0.0489
     72  CD       -29.8020   27.6260  -64.6980 C.3   209  ARG209      0.2205
     73  NE       -28.7070   28.0490  -65.5720 N.pl3 209  ARG209     -0.0865
     74  CZ       -27.8530   29.0370  -65.3110 C.cat 209  ARG209      0.5346
     75  NH1      -27.9460   29.7440  -64.1910 N.pl3 209  ARG209      0.1354
     76  NH2      -26.8980   29.3210  -66.1860 N.pl3 209  ARG209      0.1354
     77  N        -31.7840   33.6330  -69.0870 N.3   257  THR257     -0.1218
     78  CA       -30.5810   33.9480  -68.3200 C.3   257  THR257      0.1862
     79  C        -30.8740   34.9450  -67.2050 C.2   257  THR257      0.2287
     80  O        -30.3590   34.8010  -66.0900 O.2   257  THR257     -0.2866
     81  CB       -29.4980   34.4920  -69.2520 C.3   257  THR257      0.1770
     82  OG1      -29.2260   33.5330  -70.2810 O.3   257  THR257     -0.2211
     83  CG2      -28.2170   34.7800  -68.4850 C.3   257  THR257      0.0375
     84  N        -32.2610   33.1390  -64.3600 N.3   260  GLY260     -0.1210
     85  CA       -31.2330   32.3740  -63.6730 C.3   260  GLY260      0.1956
     86  C        -30.4340   33.2250  -62.7070 C.2   260  GLY260      0.2611
     87  O        -30.1950   32.8320  -61.5620 O.2   260  GLY260     -0.2717
     88  N        -30.0090   34.4080  -63.1570 N.am  261  ASP261     -0.1973
     89  CA       -29.2850   35.3250  -62.2830 C.3   261  ASP261      0.1709
     90  C        -30.0830   35.6260  -61.0210 C.2   261  ASP261      0.2293
     91  O        -29.5770   35.4850  -59.9020 O.2   261  ASP261     -0.2864
     92  CB       -28.9670   36.6190  -63.0340 C.3   261  ASP261      0.1436
     93  CG       -27.7690   36.4840  -63.9540 C.2   261  ASP261      0.3671
     94  OD1      -27.2030   35.3730  -64.0440 O.co2 261  ASP261     -0.2456
     95  OD2      -27.3910   37.4940  -64.5850 O.co2 261  ASP261     -0.2456
     96  N        -30.6760   32.3780  -59.0280 N.3   264  GLY264     -0.1210
     97  CA       -29.4180   31.9530  -58.4370 C.3   264  GLY264      0.1956
     98  C        -28.9520   32.8770  -57.3300 C.2   264  GLY264      0.2611
     99  O        -28.6670   32.4360  -56.2130 O.2   264  GLY264     -0.2717
    100  N        -28.8640   34.1760  -57.6250 N.am  265  ALA265     -0.1979
    101  CA       -28.3660   35.1250  -56.6350 C.3   265  ALA265      0.1597
    102  C        -29.2780   35.2000  -55.4180 C.2   265  ALA265      0.2287
    103  O        -28.7990   35.4070  -54.2980 O.2   265  ALA265     -0.2864
    104  CB       -28.2140   36.5090  -57.2650 C.3   265  ALA265      0.0319
    105  N        -28.3690   31.6620  -53.0900 N.3   268  GLU268     -0.1231
    106  CA       -27.0410   31.3540  -52.5710 C.3   268  GLU268      0.1699
    107  C        -26.4800   32.4750  -51.7020 C.2   268  GLU268      0.2592
    108  O        -25.7420   32.1990  -50.7480 O.2   268  GLU268     -0.2718
    109  CB       -26.0900   31.0600  -53.7320 C.3   268  GLU268      0.0402
    110  CG       -26.4970   29.8440  -54.5570 C.3   268  GLU268      0.1161
    111  CD       -26.4470   28.5530  -53.7560 C.2   268  GLU268      0.3649
    112  OE1      -25.5890   28.4440  -52.8540 O.co2 268  GLU268     -0.2457
    113  OE2      -27.2720   27.6530  -54.0220 O.co2 268  GLU268     -0.2457
    114  N        -26.8120   33.7320  -52.0010 N.am  269  THR269     -0.1953
    115  CA       -26.2630   34.8410  -51.2260 C.3   269  THR269      0.1897
    116  C        -26.9020   34.9120  -49.8440 C.2   269  THR269      0.2313
    117  O        -26.2050   35.0670  -48.8350 O.2   269  THR269     -0.2863
    118  CB       -26.4570   36.1630  -51.9730 C.3   269  THR269      0.1794
    119  OG1      -27.8540   36.4720  -52.0620 O.3   269  THR269     -0.2208
    120  CG2      -25.8680   36.0840  -53.3760 C.3   269  THR269      0.0378
    121  N        -20.5140   39.3580  -48.7320 N.3   329  VAL329     -0.1231
    122  CA       -20.8720   38.3210  -49.6950 C.3   329  VAL329      0.1692
    123  C        -19.9210   38.3570  -50.8840 C.2   329  VAL329      0.2591
    124  O        -19.5560   37.3140  -51.4420 O.2   329  VAL329     -0.2718
    125  CB       -22.3390   38.4930  -50.1380 C.3   329  VAL329      0.0266
    126  CG1      -22.7460   37.4030  -51.1170 C.3   329  VAL329      0.0020
    127  CG2      -23.2640   38.4870  -48.9310 C.3   329  VAL329      0.0020
    128  N        -19.5040   39.5560  -51.2880 N.am  330  ALA330     -0.1980
    129  CA       -18.5820   39.7460  -52.4060 C.3   330  ALA330      0.1597
    130  C        -17.4390   40.6280  -51.9240 C.2   330  ALA330      0.2287
    131  O        -17.4780   41.8550  -52.0860 O.2   330  ALA330     -0.2864
    132  CB       -19.2910   40.3670  -53.6090 C.3   330  ALA330      0.0319
    133  N        -18.0040   42.2530  -58.0310 N.3   334  ILE334     -0.1245
    134  CA       -17.7730   41.5310  -59.2780 C.3   334  ILE334      0.1561
    135  C        -16.8500   42.4130  -60.1140 C.2   334  ILE334      0.2260
    136  O        -17.0220   43.6400  -60.1220 O.2   334  ILE334     -0.2867
    137  CB       -19.0940   41.2160  -59.9940 C.3   334  ILE334      0.0252
    138  CG1      -19.9310   40.2600  -59.1370 C.3   334  ILE334      0.0019
    139  CG2      -18.8360   40.6160  -61.3700 C.3   334  ILE334      0.0019
    140  CD1      -21.3410   40.0420  -59.6410 C.3   334  ILE334      0.0001
    141  N        -26.3210   46.3890  -56.1590 N.3   405  CYS405     -0.1235
    142  CA       -27.2160   45.2520  -55.9990 C.3   405  CYS405      0.1677
    143  C        -28.6650   45.6550  -56.2490 C.2   405  CYS405      0.2270
    144  O        -29.1340   46.6860  -55.7610 O.2   405  CYS405     -0.2867
    145  CB       -27.0720   44.6670  -54.5950 C.3   405  CYS405      0.0956
    146  SG       -28.0650   43.1900  -54.3080 S.3   405  CYS405     -0.0801
    147  N        -17.1710   32.6700  -55.8560 N.3   445  VAL445     -0.1231
    148  CA       -17.9350   33.7900  -56.3960 C.3   445  VAL445      0.1692
    149  C        -18.7420   34.4490  -55.2860 C.2   445  VAL445      0.2591
    150  O        -19.0170   35.6540  -55.3320 O.2   445  VAL445     -0.2718
    151  CB       -18.8310   33.3180  -57.5590 C.3   445  VAL445      0.0266
    152  CG1      -19.8500   32.2960  -57.0750 C.3   445  VAL445      0.0020
    153  CG2      -19.5180   34.5060  -58.2200 C.3   445  VAL445      0.0020
    154  N        -19.1340   33.6710  -54.2810 N.am  446  VAL446     -0.1980
    155  CA       -19.6710   34.1760  -53.0250 C.3   446  VAL446      0.1595
    156  C        -18.7240   33.7460  -51.9120 C.2   446  VAL446      0.2287
    157  O        -18.0310   32.7300  -52.0250 O.2   446  VAL446     -0.2864
    158  CB       -21.1030   33.6600  -52.7630 C.3   446  VAL446      0.0276
    159  CG1      -21.5880   34.1010  -51.3920 C.3   446  VAL446      0.0022
    160  CG2      -22.0500   34.1470  -53.8480 C.3   446  VAL446      0.0022
@<TRIPOS>BOND
     1    82    81    1
     2    81    83    1
     3    81    78    1
     4    77    78    1
     5    78    79    1
     6    14    13    2
     7     1     2    1
     8    13    12    1
     9    79    80    2
    10     3     4    2
    11     3     2    1
    12     2     5    1
    13    68    69    2
    14    68    67    1
    15    76    74    1
    16    15    12    1
    17    15    16    1
    18    12    11    1
    19    73    74    2
    20    73    72    1
    21    66    67    1
    22    74    75    1
    23    67    70    1
    24    11     8   am
    25    16    18   ar
    26    16    17   ar
    27    72    71    1
    28    70    71    1
    29    95    93   ar
    30    18    20   ar
    31    84    85    1
    32     8     9    2
    33     8     7    1
    34     6     7    1
    35    94    93   ar
    36    93    92    1
    37    85    86    1
    38    17    19   ar
    39    20    21   ar
    40     7    10    1
    41    64    63    1
    42    88    86   am
    43    88    89    1
    44    92    89    1
    45    86    87    2
    46    49    47    1
    47    19    21   ar
    48    47    46    1
    49    89    90    1
    50    61    60    2
    51    48    46    1
    52    63    65    1
    53    63    62    1
    54    59    60    1
    55    59    58    1
    56    59    62    1
    57    31    29   ar
    58    31    32   ar
    59    29    27   ar
    60   139   137    1
    61    46    43    1
    62    33    32    1
    63    32    30   ar
    64    27    26    1
    65    27    28   ar
    66    26    23    1
    67    90    91    2
    68    30    28   ar
    69    43    42    1
    70    43    44    1
    71    45    44    2
    72   136   135    2
    73   135   134    1
    74   137   134    1
    75   137   138    1
    76    44    50   am
    77    25    24    2
    78    23    24    1
    79    23    22    1
    80   140   138    1
    81    24    34   am
    82   134   133    1
    83    96    97    1
    84    50    51    1
    85    40    39    2
    86    97    98    1
    87    34    35    1
    88   153   151    1
    89    51    52    1
    90    51    54    1
    91    35    36    1
    92    35    38    1
    93    52    53    2
    94   100    98   am
    95   100   101    1
    96   151   152    1
    97   151   148    1
    98    98    99    2
    99    39    38    1
   100    39    41   am
   101    37    36    2
   102   104   101    1
   103   101   102    1
   104    55    54    1
   105    55    57    1
   106    54    56    1
   107   148   147    1
   108   148   149    1
   109   143   142    1
   110   143   144    2
   111   141   142    1
   112   142   145    1
   113   102   103    2
   114   150   149    2
   115   149   154   am
   116   145   146    1
   117   110   111    1
   118   110   109    1
   119   154   155    1
   120   113   111   ar
   121   160   158    1
   122   111   112   ar
   123   109   106    1
   124   132   129    1
   125   120   118    1
   126   105   106    1
   127   155   158    1
   128   155   156    1
   129   158   159    1
   130   106   107    1
   131   129   130    1
   132   129   128    1
   133   131   130    2
   134   119   118    1
   135   157   156    2
   136   114   107   am
   137   114   115    1
   138   118   115    1
   139   107   108    2
   140   124   123    2
   141   128   123   am
   142   115   116    1
   143   126   125    1
   144   123   122    1
   145   125   122    1
   146   125   127    1
   147   116   117    2
   148   122   121    1
