@<TRIPOS>MOLECULE
tmp/6cisA00.pdb
 159 156 0 0 0
SMALL
GASTEIGER

@<TRIPOS>ATOM
      1  N         -2.0110   -3.9480   -5.3300 N.3    37  GLN37      -0.1245
      2  CA        -2.4580   -2.8080   -4.5440 C.3    37  GLN37       0.1566
      3  C         -1.3560   -1.7690   -4.2430 C.2    37  GLN37       0.2260
      4  O         -1.6490   -0.5730   -4.1040 O.2    37  GLN37      -0.2867
      5  CB        -3.0520   -3.3090   -3.2350 C.3    37  GLN37       0.0367
      6  CG        -3.7320   -2.2270   -2.4180 C.3    37  GLN37       0.0905
      7  CD        -3.8230   -2.5840   -0.9480 C.2    37  GLN37       0.2608
      8  OE1       -3.8590   -1.7020   -0.0840 O.2    37  GLN37      -0.2717
      9  NE2       -3.8550   -3.8860   -0.6510 N.am   37  GLN37      -0.0878
     10  N          1.0760    1.6190   -7.1440 N.3    40  TRP40      -0.1228
     11  CA         0.9070    3.0060   -7.5860 C.3    40  TRP40       0.1722
     12  C          2.1320    3.9480   -7.3760 C.2    40  TRP40       0.2437
     13  O          2.4020    4.7910   -8.2390 O.2    40  TRP40      -0.2733
     14  CB        -0.4210    3.6400   -7.0990 C.3    40  TRP40       0.0563
     15  CG        -0.5250    3.8040   -5.6150 C.ar   40  TRP40       0.0003
     16  CD1       -1.1110    2.9480   -4.7290 C.ar   40  TRP40       0.0946
     17  CD2        0.0060    4.8880   -4.8530 C.ar   40  TRP40       0.0152
     18  NE1       -0.9550    3.4230   -3.4430 N.ar   40  TRP40      -0.2442
     19  CE2       -0.2800    4.6210   -3.4950 C.ar   40  TRP40       0.0810
     20  CE3        0.7040    6.0570   -5.1840 C.ar   40  TRP40       0.0012
     21  CZ2        0.0920    5.4980   -2.4670 C.ar   40  TRP40       0.0191
     22  CZ3        1.0900    6.9180   -4.1610 C.ar   40  TRP40       0.0001
     23  CH2        0.7910    6.6330   -2.8220 C.ar   40  TRP40       0.0015
     24  N          2.8710    3.8460   -6.2380 N.am   41  PRO41      -0.2718
     25  CA         3.9940    4.8120   -6.1330 C.3    41  PRO41       0.1535
     26  C          5.1350    4.5520   -7.1110 C.2    41  PRO41       0.2598
     27  O          6.0110    5.4140   -7.2720 O.2    41  PRO41      -0.2715
     28  CB         4.5100    4.6090   -4.7080 C.3    41  PRO41       0.0310
     29  CG         3.3100    3.9870   -3.9620 C.3    41  PRO41       0.0237
     30  CD         2.6790    3.0770   -4.9880 C.3    41  PRO41       0.0939
     31  N          5.1030    3.3710   -7.7310 N.am   42  PHE42      -0.1974
     32  CA         6.1790    2.8800   -8.5730 C.3    42  PHE42       0.1639
     33  C          5.8180    2.8680  -10.0600 C.2    42  PHE42       0.2290
     34  O          6.6270    2.4390  -10.8910 O.2    42  PHE42      -0.2864
     35  CB         6.5620    1.4620   -8.1020 C.3    42  PHE42       0.0560
     36  CG         7.0040    1.4260   -6.6540 C.ar   42  PHE42      -0.0200
     37  CD1        8.2910    1.8240   -6.2930 C.ar   42  PHE42      -0.0042
     38  CD2        6.1120    1.0600   -5.6600 C.ar   42  PHE42      -0.0042
     39  CE1        8.7000    1.8030   -4.9470 C.ar   42  PHE42      -0.0003
     40  CE2        6.5130    1.0230   -4.3130 C.ar   42  PHE42      -0.0003
     41  CZ         7.8070    1.4170   -3.9620 C.ar   42  PHE42      -0.0000
     42  N          5.4780    5.3630  -12.0690 N.3    44  GLN44      -0.1231
     43  CA         6.0360    6.5400  -12.7600 C.3    44  GLN44       0.1683
     44  C          7.2720    7.0130  -12.0090 C.2    44  GLN44       0.2434
     45  O          7.4380    6.6800  -10.8290 O.2    44  GLN44      -0.2733
     46  CB         4.9830    7.6750  -12.8460 C.3    44  GLN44       0.0380
     47  CG         4.5200    8.2430  -11.4760 C.3    44  GLN44       0.0905
     48  CD         3.5600    7.3030  -10.7550 C.2    44  GLN44       0.2608
     49  OE1        2.5350    6.9090  -11.3040 O.2    44  GLN44      -0.2717
     50  NE2        3.9270    6.8930   -9.5480 N.am   44  GLN44      -0.0878
     51  N          8.1300    7.8210  -12.6530 N.am   45  PRO45      -0.2718
     52  CA         9.3140    8.3500  -11.9600 C.3    45  PRO45       0.1535
     53  C          8.9580    9.1290  -10.6940 C.2    45  PRO45       0.2598
     54  O          7.8720    9.7330  -10.6140 O.2    45  PRO45      -0.2715
     55  CB         9.9490    9.2620  -13.0030 C.3    45  PRO45       0.0310
     56  CG         9.5450    8.6650  -14.3100 C.3    45  PRO45       0.0237
     57  CD         8.1750    8.0810  -14.1060 C.3    45  PRO45       0.0939
     58  N          9.8550    9.1180   -9.7080 N.am   46  VAL46      -0.1964
     59  CA         9.6590    9.9460   -8.5190 C.3    46  VAL46       0.1727
     60  C          9.6330   11.4130   -8.9420 C.2    46  VAL46       0.2616
     61  O         10.6130   11.9060   -9.5070 O.2    46  VAL46      -0.2715
     62  CB        10.7880    9.7110   -7.5070 C.3    46  VAL46       0.0290
     63  CG1       10.7430   10.7390   -6.3960 C.3    46  VAL46       0.0023
     64  CG2       10.7310    8.2840   -6.9200 C.3    46  VAL46       0.0023
     65  N          8.5160   12.1010   -8.7040 N.am   47  ASP47      -0.1971
     66  CA         8.4400   13.5480   -8.9580 C.3    47  ASP47       0.1709
     67  C          8.8940   14.2610   -7.6910 C.2    47  ASP47       0.2293
     68  O          8.0940   14.5260   -6.7840 O.2    47  ASP47      -0.2864
     69  CB         7.0130   13.9630   -9.3600 C.3    47  ASP47       0.1436
     70  CG         6.8960   15.4390   -9.7270 C.2    47  ASP47       0.3671
     71  OD1        7.7480   16.2490   -9.3210 O.co2  47  ASP47      -0.2456
     72  OD2        5.9150   15.8090  -10.4290 O.co2  47  ASP47      -0.2456
     73  N          7.0080   17.6790   -6.9090 N.3    50  LYS50      -0.1231
     74  CA         5.6800   17.4890   -6.3260 C.3    50  LYS50       0.1693
     75  C          5.7680   17.0190   -4.8810 C.2    50  LYS50       0.2591
     76  O          4.9940   17.4700   -4.0200 O.2    50  LYS50      -0.2718
     77  CB         4.9120   16.4440   -7.1340 C.3    50  LYS50       0.0285
     78  CG         3.4400   16.3500   -6.6640 C.3    50  LYS50       0.0035
     79  CD         2.6990   15.3140   -7.4980 C.3    50  LYS50       0.0206
     80  CE         3.0940   13.9360   -6.9520 C.3    50  LYS50       0.1093
     81  NZ         2.3500   12.9030   -7.7460 N.3    50  LYS50      -0.1314
     82  N          6.6870   16.0910   -4.6120 N.am   51  LEU51      -0.1980
     83  CA         6.7980   15.4920   -3.2820 C.3    51  LEU51       0.1596
     84  C          7.6610   16.3120   -2.3070 C.2    51  LEU51       0.2287
     85  O          7.8290   15.9250   -1.1370 O.2    51  LEU51      -0.2864
     86  CB         7.3430   14.0490   -3.3750 C.3    51  LEU51       0.0297
     87  CG         6.5330   13.0900   -4.2450 C.3    51  LEU51       0.0022
     88  CD1        7.3040   11.7900   -4.5120 C.3    51  LEU51       0.0001
     89  CD2        5.1910   12.7650   -3.5730 C.3    51  LEU51       0.0001
     90  N         11.0030   16.9300   -2.2590 N.3    53  LEU53      -0.1245
     91  CA        12.2060   16.1830   -1.8890 C.3    53  LEU53       0.1561
     92  C         13.3930   16.7390   -2.6640 C.2    53  LEU53       0.2260
     93  O         13.8550   16.1400   -3.6460 O.2    53  LEU53      -0.2867
     94  CB        12.0350   14.6910   -2.1760 C.3    53  LEU53       0.0270
     95  CG        10.7800   13.9980   -1.6290 C.3    53  LEU53       0.0019
     96  CD1       10.7200   12.6010   -2.1980 C.3    53  LEU53       0.0001
     97  CD2       10.7860   14.0020   -0.1050 C.3    53  LEU53       0.0001
     98  N         16.2250   14.2660   -3.2940 N.3    56  TYR56      -0.1241
     99  CA        16.0180   12.9040   -3.8190 C.3    56  TYR56       0.1605
    100  C         17.0500   12.5660   -4.9070 C.2    56  TYR56       0.2264
    101  O         17.7100   11.5120   -4.8500 O.2    56  TYR56      -0.2867
    102  CB        14.5810   12.6530   -4.3200 C.3    56  TYR56       0.0534
    103  CG        14.3600   11.1940   -4.6740 C.ar   56  TYR56      -0.0201
    104  CD1       13.9810   10.2580   -3.7140 C.ar   56  TYR56      -0.0009
    105  CD2       14.5690   10.7500   -5.9860 C.ar   56  TYR56      -0.0009
    106  CE1       13.8020    8.9100   -4.0530 C.ar   56  TYR56       0.0417
    107  CE2       14.4160    9.4110   -6.3290 C.ar   56  TYR56       0.0417
    108  CZ        14.0250    8.4990   -5.3740 C.ar   56  TYR56       0.1957
    109  OH        13.8770    7.1790   -5.7490 O.3    56  TYR56      -0.2866
    110  N         14.5040    2.7650   -3.3510 N.3    95  CYS95      -0.1235
    111  CA        13.5450    2.9400   -2.2700 C.3    95  CYS95       0.1677
    112  C         14.1910    2.6520   -0.9050 C.2    95  CYS95       0.2270
    113  O         13.9860    3.3990    0.0680 O.2    95  CYS95      -0.2867
    114  CB        12.3320    2.0350   -2.5040 C.3    95  CYS95       0.0956
    115  SG        10.9530    2.3430   -1.3820 S.3    95  CYS95      -0.0801
    116  N         16.8730    5.5770    0.0110 N.3    98  TYR98      -0.1227
    117  CA        16.3610    6.8980    0.3920 C.3    98  TYR98       0.1736
    118  C         15.5490    6.8890    1.6930 C.2    98  TYR98       0.2595
    119  O         15.5900    7.8530    2.4560 O.2    98  TYR98      -0.2718
    120  CB        15.5420    7.5400   -0.7490 C.3    98  TYR98       0.0548
    121  CG        15.1830    8.9890   -0.4780 C.ar   98  TYR98      -0.0200
    122  CD1       16.0850   10.0130   -0.7450 C.ar   98  TYR98      -0.0009
    123  CD2       13.9680    9.3140    0.0940 C.ar   98  TYR98      -0.0009
    124  CE1       15.7640   11.3480   -0.4770 C.ar   98  TYR98       0.0417
    125  CE2       13.6330   10.6530    0.3690 C.ar   98  TYR98       0.0417
    126  CZ        14.5440   11.6510    0.0800 C.ar   98  TYR98       0.1957
    127  OH        14.2250   12.9640    0.3500 O.3    98  TYR98      -0.2866
    128  N         14.8090    5.8000    1.9120 N.am   99  ASN99      -0.1974
    129  CA        13.8900    5.6820    3.0430 C.3    99  ASN99       0.1688
    130  C         14.5490    4.8540    4.1500 C.2    99  ASN99       0.2292
    131  O         15.7010    4.4290    4.0020 O.2    99  ASN99      -0.2864
    132  CB        12.5600    5.0820    2.5530 C.3    99  ASN99       0.1181
    133  CG        11.9000    5.9450    1.5050 C.2    99  ASN99       0.2629
    134  OD1       11.3440    7.0040    1.8350 O.2    99  ASN99      -0.2716
    135  ND2       11.9730    5.5320    0.2270 N.am   99  ASN99      -0.0877
    136  N          6.6440    2.9490    5.6740 N.3   104  ASP104     -0.1225
    137  CA         5.4800    2.4520    4.9230 C.3   104  ASP104      0.1805
    138  C          5.8340    2.0760    3.4800 C.2   104  ASP104      0.2597
    139  O          5.4700    1.0010    2.9920 O.2   104  ASP104     -0.2718
    140  CB         4.3630    3.5020    4.9150 C.3   104  ASP104      0.1424
    141  CG         3.8700    3.8730    6.3200 C.2   104  ASP104      0.3668
    142  OD1        3.7650    2.9970    7.2060 O.co2 104  ASP104     -0.2456
    143  OD2        3.5370    5.0600    6.5110 O.co2 104  ASP104     -0.2456
    144  N          6.5540    2.9640    2.8040 N.am  105  ILE105     -0.1980
    145  CA         6.8990    2.7580    1.3970 C.3   105  ILE105      0.1595
    146  C          7.9150    1.6070    1.2220 C.2   105  ILE105      0.2287
    147  O          7.9040    0.9180    0.2140 O.2   105  ILE105     -0.2864
    148  CB         7.4140    4.0780    0.7450 C.3   105  ILE105      0.0276
    149  CG1        7.4700    3.9360   -0.7820 C.3   105  ILE105      0.0022
    150  CG2        8.8110    4.4480    1.2530 C.3   105  ILE105      0.0022
    151  CD1        6.1250    3.5070   -1.4200 C.3   105  ILE105      0.0001
    152  N          5.9710   -1.5660    1.3730 N.3   108  MET108     -0.1245
    153  CA         5.3020   -1.7160    0.0730 C.3   108  MET108      0.1570
    154  C          6.2490   -2.2880   -0.9950 C.2   108  MET108      0.2261
    155  O          5.9120   -3.2690   -1.6710 O.2   108  MET108     -0.2867
    156  CB         4.6960   -0.3840   -0.3960 C.3   108  MET108      0.0387
    157  CG         3.4900    0.0390    0.4500 C.3   108  MET108      0.0595
    158  SD         2.9830    1.7370    0.1880 S.3   108  MET108     -0.1393
    159  CE         2.1440    1.6130   -1.3870 C.3   108  MET108      0.0692
@<TRIPOS>BOND
     1    56    57    1
     2    56    55    1
     3    57    51    1
     4    55    52    1
     5    46    43    1
     6    46    47    1
     7    43    42    1
     8    43    44    1
     9    51    44   am
    10    51    52    1
    11    44    45    2
    12    52    53    1
    13    47    48    1
    14    49    48    2
    15    34    33    2
    16    48    50   am
    17    53    54    2
    18    53    58   am
    19    72    70   ar
    20    33    32    1
    21    70    69    1
    22    70    71   ar
    23    58    59    1
    24    61    60    2
    25    69    66    1
    26    66    65    1
    27    66    67    1
    28    60    65   am
    29    60    59    1
    30    32    35    1
    31    32    31    1
    32    59    62    1
    33    13    12    2
    34    35    36    1
    35    81    80    1
    36    31    26   am
    37    67    68    2
    38    11    12    1
    39    11    10    1
    40    11    14    1
    41    62    64    1
    42    62    63    1
    43    79    80    1
    44    79    78    1
    45    12    24   am
    46    27    26    2
    47    77    78    1
    48    77    74    1
    49    26    25    1
    50    14    15    1
    51    73    74    1
    52    36    37   ar
    53    36    38   ar
    54   107   105   ar
    55   107   108   ar
    56    74    75    1
    57    37    39   ar
    58    24    25    1
    59    24    30    1
    60    25    28    1
    61   105   103   ar
    62   109   108    1
    63    38    40   ar
    64    15    17   ar
    65    15    16   ar
    66   108   106   ar
    67     1     2    1
    68    20    17   ar
    69    20    22   ar
    70    30    29    1
    71    39    41   ar
    72   100   101    2
    73   100    99    1
    74    75    82   am
    75    75    76    2
    76    17    19   ar
    77    16    18   ar
    78    28    29    1
    79   103   102    1
    80   103   104   ar
    81    82    83    1
    82     2     3    1
    83     2     5    1
    84    88    87    1
    85   102    99    1
    86    40    41   ar
    87    87    89    1
    88    87    86    1
    89     3     4    2
    90    22    23   ar
    91   106   104   ar
    92    99    98    1
    93    93    92    2
    94    19    18   ar
    95    19    21   ar
    96    86    83    1
    97   110   111    1
    98    83    84    1
    99     5     6    1
   100    23    21   ar
   101    92    91    1
   102   114   111    1
   103   114   115    1
   104     6     7    1
   105    84    85    2
   106   111   112    1
   107    90    91    1
   108    96    95    1
   109    94    91    1
   110    94    95    1
   111   155   154    2
   112    95    97    1
   113   151   149    1
   114   159   158    1
   115   154   153    1
   116     7     9   am
   117     7     8    2
   118   112   113    2
   119   149   148    1
   120   120   121    1
   121   120   117    1
   122   122   121   ar
   123   122   124   ar
   124   121   123   ar
   125   124   126   ar
   126   156   153    1
   127   156   157    1
   128   116   117    1
   129   153   152    1
   130   126   127    1
   131   126   125   ar
   132   123   125   ar
   133   158   157    1
   134   147   146    2
   135   135   133   am
   136   117   118    1
   137   148   150    1
   138   148   145    1
   139   146   145    1
   140   145   144    1
   141   133   134    2
   142   133   132    1
   143   118   128   am
   144   118   119    2
   145   128   129    1
   146   132   129    1
   147   144   138   am
   148   139   138    2
   149   129   130    1
   150   138   137    1
   151   131   130    2
   152   140   137    1
   153   140   141    1
   154   137   136    1
   155   141   143   ar
   156   141   142   ar
