@<TRIPOS>MOLECULE
tmp/6ciwA00.pdb
 101 98 0 0 0
SMALL
GASTEIGER

@<TRIPOS>ATOM
      1  N         -2.2020  -24.2450   -6.4080 N.3    34  PHE34      -0.1227
      2  CA        -3.4810  -24.8290   -5.9950 C.3    34  PHE34       0.1736
      3  C         -4.1930  -24.0050   -4.9430 C.2    34  PHE34       0.2595
      4  O         -5.4250  -23.9690   -4.8760 O.2    34  PHE34      -0.2718
      5  CB        -3.3110  -26.2910   -5.6300 C.3    34  PHE34       0.0547
      6  CG        -2.9410  -27.1180   -6.8090 C.ar   34  PHE34      -0.0202
      7  CD1       -3.6930  -27.0440   -7.9540 C.ar   34  PHE34      -0.0042
      8  CD2       -1.8390  -27.9360   -6.7890 C.ar   34  PHE34      -0.0042
      9  CE1       -3.3460  -27.7460   -9.0720 C.ar   34  PHE34      -0.0003
     10  CE2       -1.4860  -28.6580   -7.9140 C.ar   34  PHE34      -0.0003
     11  CZ        -2.2510  -28.5600   -9.0500 C.ar   34  PHE34      -0.0000
     12  N         -3.4610  -23.1590   -4.2640 N.am   35  GLU35      -0.1979
     13  CA        -4.1050  -22.3300   -3.2090 C.3    35  GLU35       0.1602
     14  C         -4.7160  -21.1230   -3.8820 C.2    35  GLU35       0.2287
     15  O         -5.8550  -20.7510   -3.6060 O.2    35  GLU35      -0.2864
     16  CB        -3.1220  -21.9120   -2.1210 C.3    35  GLU35       0.0415
     17  CG        -2.6780  -23.0220   -1.1470 C.3    35  GLU35       0.1163
     18  CD        -3.7650  -23.5650   -0.2110 C.2    35  GLU35       0.3649
     19  OE1       -4.8680  -22.9700   -0.1030 O.co2  35  GLU35      -0.2457
     20  OE2       -3.5350  -24.5530    0.4370 O.co2  35  GLU35      -0.2457
     21  N        -10.6470  -16.3070    0.0020 N.3    44  ASN44      -0.1225
     22  CA       -11.6240  -17.4100    0.0490 C.3    44  ASN44       0.1785
     23  C        -12.0480  -17.5820    1.4680 C.2    44  ASN44       0.2597
     24  O        -11.2000  -17.7060    2.3910 O.2    44  ASN44      -0.2718
     25  CB       -11.0110  -18.6870   -0.4820 C.3    44  ASN44       0.1169
     26  CG       -10.8150  -18.6720   -1.9740 C.2    44  ASN44       0.2627
     27  OD1      -11.7850  -18.6670   -2.7510 O.2    44  ASN44      -0.2716
     28  ND2       -9.5550  -18.6560   -2.4040 N.am   44  ASN44      -0.0877
     29  N        -13.3660  -17.5370    1.6580 N.am   45  ARG45      -0.1966
     30  CA       -13.9300  -17.7490    2.9860 C.3    45  ARG45       0.1729
     31  C        -13.9210  -19.2150    3.3840 C.2    45  ARG45       0.2616
     32  O        -14.1910  -20.0640    2.5910 O.2    45  ARG45      -0.2715
     33  CB       -15.3240  -17.1530    3.0950 C.3    45  ARG45       0.0348
     34  CG       -15.5640  -16.7490    4.5350 C.3    45  ARG45       0.0492
     35  CD       -16.9650  -16.3950    4.8230 C.3    45  ARG45       0.2205
     36  NE       -17.2340  -14.9590    4.8280 N.pl3  45  ARG45      -0.0865
     37  CZ       -17.1230  -14.1220    5.8680 C.cat  45  ARG45       0.5346
     38  NH1      -16.6210  -14.4560    7.0630 N.pl3  45  ARG45       0.1354
     39  NH2      -17.5470  -12.9010    5.6820 N.pl3  45  ARG45       0.1354
     40  N        -13.5410  -19.5060    4.6290 N.am   46  ASN46      -0.1972
     41  CA       -13.5640  -20.8550    5.1710 C.3    46  ASN46       0.1688
     42  C        -14.9350  -21.0420    5.8870 C.2    46  ASN46       0.2292
     43  O        -15.5800  -20.0620    6.3460 O.2    46  ASN46      -0.2864
     44  CB       -12.4100  -21.0830    6.1820 C.3    46  ASN46       0.1181
     45  CG       -11.0380  -20.8460    5.6100 C.2    46  ASN46       0.2629
     46  OD1      -10.2110  -20.0870    6.1500 O.2    46  ASN46      -0.2716
     47  ND2      -10.7670  -21.4720    4.5130 N.am   46  ASN46      -0.0877
     48  N         -9.0000  -16.9400    3.9580 N.3    52  ASP52      -0.1239
     49  CA        -7.6350  -17.1690    3.5270 C.3    52  ASP52       0.1674
     50  C         -7.3140  -16.0960    2.5040 C.2    52  ASP52       0.2266
     51  O         -8.1550  -15.8240    1.5710 O.2    52  ASP52      -0.2867
     52  CB        -7.5240  -18.5240    2.8290 C.3    52  ASP52       0.1410
     53  CG        -7.5260  -19.6980    3.7790 C.2    52  ASP52       0.3668
     54  OD1       -7.4900  -19.5550    5.0230 O.co2  52  ASP52      -0.2456
     55  OD2       -7.4580  -20.8160    3.2610 O.co2  52  ASP52      -0.2456
     56  N         -2.7400  -18.2930    0.5630 N.3    57  GLN57      -0.1245
     57  CA        -3.9570  -18.5220    1.2690 C.3    57  GLN57       0.1566
     58  C         -3.7830  -18.6240    2.8070 C.2    57  GLN57       0.2260
     59  O         -4.1830  -19.5470    3.4530 O.2    57  GLN57      -0.2867
     60  CB        -4.7540  -19.6750    0.6930 C.3    57  GLN57       0.0367
     61  CG        -5.2030  -19.3680   -0.7090 C.3    57  GLN57       0.0905
     62  CD        -6.3270  -18.3520   -0.7450 C.2    57  GLN57       0.2608
     63  OE1       -7.4710  -18.7210   -0.5040 O.2    57  GLN57      -0.2717
     64  NE2       -6.0100  -17.0960   -0.9560 N.am   57  GLN57      -0.0878
     65  N         -0.9530  -26.2750    4.8000 N.3   108  TRP108     -0.1227
     66  CA        -1.6360  -25.8800    3.5660 C.3   108  TRP108      0.1737
     67  C         -2.3940  -27.0830    3.0260 C.2   108  TRP108      0.2595
     68  O         -1.8170  -28.0640    2.4990 O.2   108  TRP108     -0.2718
     69  CB        -0.7500  -25.3270    2.4610 C.3   108  TRP108      0.0564
     70  CG        -0.2220  -24.0120    2.7420 C.ar  108  TRP108      0.0003
     71  CD1       -0.8890  -22.8070    2.4670 C.ar  108  TRP108      0.0946
     72  CD2        0.9550  -23.6510    3.5060 C.ar  108  TRP108      0.0152
     73  NE1       -0.0860  -21.7570    2.8900 N.ar  108  TRP108     -0.2442
     74  CE2        0.9990  -22.2470    3.5890 C.ar  108  TRP108      0.0810
     75  CE3        1.9830  -24.3880    4.1240 C.ar  108  TRP108      0.0012
     76  CZ2        2.0730  -21.5460    4.2180 C.ar  108  TRP108      0.0191
     77  CZ3        3.0560  -23.6820    4.7840 C.ar  108  TRP108      0.0001
     78  CH2        3.0840  -22.3170    4.8340 C.ar  108  TRP108      0.0015
     79  N         -3.6840  -27.0450    3.2290 N.am  109  VAL109     -0.1966
     80  CA        -4.5950  -28.0940    2.8280 C.3   109  VAL109      0.1727
     81  C         -4.3840  -28.6260    1.4220 C.2   109  VAL109      0.2616
     82  O         -4.3060  -29.8420    1.2160 O.2   109  VAL109     -0.2715
     83  CB        -6.0520  -27.5290    2.9700 C.3   109  VAL109      0.0290
     84  CG1       -7.0200  -28.4400    2.2760 C.3   109  VAL109      0.0023
     85  CG2       -6.3670  -27.4940    4.4680 C.3   109  VAL109      0.0023
     86  N         -4.2090  -27.6810    0.4990 N.am  110  ALA110     -0.1977
     87  CA        -4.0050  -28.0590   -0.8820 C.3   110  ALA110      0.1597
     88  C         -2.6130  -28.6650   -1.1220 C.2   110  ALA110      0.2287
     89  O         -2.3960  -29.3740   -2.0930 O.2   110  ALA110     -0.2864
     90  CB        -4.2810  -26.9200   -1.8560 C.3   110  ALA110      0.0319
     91  N         -2.7090  -32.1720   -2.9220 N.3   114  ARG114     -0.1245
     92  CA        -2.4080  -32.0880   -4.3310 C.3   114  ARG114      0.1563
     93  C         -0.9220  -32.0330   -4.6840 C.2   114  ARG114      0.2260
     94  O         -0.5980  -32.2080   -5.8900 O.2   114  ARG114     -0.2867
     95  CB        -3.1300  -30.8420   -4.8080 C.3   114  ARG114      0.0307
     96  CG        -4.6110  -30.9530   -4.5490 C.3   114  ARG114      0.0489
     97  CD        -5.4210  -29.8040   -5.0960 C.3   114  ARG114      0.2205
     98  NE        -5.4830  -29.8070   -6.5460 N.pl3 114  ARG114     -0.0865
     99  CZ        -6.2580  -28.9670   -7.2270 C.cat 114  ARG114      0.5346
    100  NH1       -6.9100  -27.9910   -6.6110 N.pl3 114  ARG114      0.1354
    101  NH2       -6.3160  -29.0800   -8.5280 N.pl3 114  ARG114      0.1354
@<TRIPOS>BOND
     1     9    11   ar
     2     9     7   ar
     3    11    10   ar
     4   101    99    1
     5     7     6   ar
     6    10     8   ar
     7    99   100    1
     8    99    98    2
     9     6     8   ar
    10     6     5    1
    11    98    97    1
    12     1     2    1
    13     2     5    1
    14     2     3    1
    15    94    93    2
    16    97    96    1
    17     3     4    2
    18     3    12   am
    19    95    96    1
    20    95    92    1
    21    93    92    1
    22    92    91    1
    23    12    13    1
    24    14    15    2
    25    14    13    1
    26    13    16    1
    27    27    26    2
    28    28    26   am
    29    16    17    1
    30    89    88    2
    31    26    25    1
    32    90    87    1
    33    17    18    1
    34    88    87    1
    35    64    62   am
    36    87    86    1
    37    62    61    1
    38    62    63    2
    39    61    60    1
    40    25    22    1
    41    18    19   ar
    42    18    20   ar
    43    21    22    1
    44    22    23    1
    45    86    81   am
    46    56    57    1
    47    60    57    1
    48    82    81    2
    49    57    58    1
    50    81    80    1
    51    23    29   am
    52    23    24    2
    53    51    50    2
    54    29    30    1
    55    84    83    1
    56    69    70    1
    57    69    66    1
    58    71    70   ar
    59    71    73   ar
    60    68    67    2
    61    50    49    1
    62    32    31    2
    63    70    72   ar
    64    58    59    2
    65    80    83    1
    66    80    79    1
    67    52    49    1
    68    52    53    1
    69    73    74   ar
    70    83    85    1
    71    30    33    1
    72    30    31    1
    73    67    79   am
    74    67    66    1
    75    33    34    1
    76    55    53   ar
    77    31    40   am
    78    72    74   ar
    79    72    75   ar
    80    49    48    1
    81    66    65    1
    82    74    76   ar
    83    53    54   ar
    84    75    77   ar
    85    76    78   ar
    86    47    45   am
    87    34    35    1
    88    40    41    1
    89    77    78   ar
    90    35    36    1
    91    36    37    2
    92    41    42    1
    93    41    44    1
    94    45    46    2
    95    45    44    1
    96    39    37    1
    97    37    38    1
    98    42    43    2
