@<TRIPOS>MOLECULE
tmp/6ciyA00.pdb
 142 139 0 0 0
SMALL
GASTEIGER

@<TRIPOS>ATOM
      1  N         -2.1770   -3.8810   -5.2090 N.3    37  GLN37      -0.1245
      2  CA        -2.6320   -2.7490   -4.3970 C.3    37  GLN37       0.1566
      3  C         -1.5300   -1.7210   -4.0920 C.2    37  GLN37       0.2260
      4  O         -1.8090   -0.5210   -3.9320 O.2    37  GLN37      -0.2867
      5  CB        -3.2390   -3.2500   -3.0870 C.3    37  GLN37       0.0367
      6  CG        -3.9140   -2.1520   -2.2950 C.3    37  GLN37       0.0905
      7  CD        -4.0180   -2.4750   -0.8200 C.2    37  GLN37       0.2608
      8  OE1       -3.9900   -3.6410   -0.4220 O.2    37  GLN37      -0.2717
      9  NE2       -4.1300   -1.4370    0.0040 N.am   37  GLN37      -0.0878
     10  N          0.8600    1.7360   -6.9970 N.3    40  TRP40      -0.1228
     11  CA         0.7180    3.1590   -7.3370 C.3    40  TRP40       0.1722
     12  C          1.9550    4.0770   -7.1530 C.2    40  TRP40       0.2437
     13  O          2.2030    4.9290   -8.0100 O.2    40  TRP40      -0.2733
     14  CB        -0.5610    3.7710   -6.7270 C.3    40  TRP40       0.0563
     15  CG        -0.6040    3.7300   -5.2270 C.ar   40  TRP40       0.0003
     16  CD1       -1.1510    2.7460   -4.4550 C.ar   40  TRP40       0.0946
     17  CD2       -0.0720    4.7060   -4.3240 C.ar   40  TRP40       0.0152
     18  NE1       -0.9930    3.0540   -3.1200 N.ar   40  TRP40      -0.2442
     19  CE2       -0.3330    4.2530   -3.0170 C.ar   40  TRP40       0.0810
     20  CE3        0.6010    5.9240   -4.4960 C.ar   40  TRP40       0.0012
     21  CZ2        0.0520    4.9740   -1.8810 C.ar   40  TRP40       0.0191
     22  CZ3        0.9820    6.6450   -3.3650 C.ar   40  TRP40       0.0001
     23  CH2        0.7060    6.1650   -2.0770 C.ar   40  TRP40       0.0015
     24  N          2.7390    3.9190   -6.0630 N.am   41  PRO41      -0.2718
     25  CA         3.8820    4.8350   -5.9410 C.3    41  PRO41       0.1535
     26  C          4.9700    4.5600   -6.9670 C.2    41  PRO41       0.2598
     27  O          5.8310    5.4100   -7.1860 O.2    41  PRO41      -0.2715
     28  CB         4.4300    4.5530   -4.5290 C.3    41  PRO41       0.0310
     29  CG         3.3300    3.8200   -3.8150 C.3    41  PRO41       0.0237
     30  CD         2.6370    3.0200   -4.8980 C.3    41  PRO41       0.0939
     31  N          4.9040    3.3910   -7.6080 N.am   42  PHE42      -0.1974
     32  CA         5.9670    2.9250   -8.4880 C.3    42  PHE42       0.1639
     33  C          5.5800    2.9550   -9.9650 C.2    42  PHE42       0.2290
     34  O          6.3550    2.5120  -10.8170 O.2    42  PHE42      -0.2864
     35  CB         6.3760    1.4990   -8.0680 C.3    42  PHE42       0.0560
     36  CG         6.8320    1.4170   -6.6340 C.ar   42  PHE42      -0.0200
     37  CD1        8.1080    1.8420   -6.2760 C.ar   42  PHE42      -0.0042
     38  CD2        5.9700    0.9680   -5.6420 C.ar   42  PHE42      -0.0042
     39  CE1        8.5310    1.7910   -4.9490 C.ar   42  PHE42      -0.0003
     40  CE2        6.3800    0.9160   -4.3080 C.ar   42  PHE42      -0.0003
     41  CZ         7.6590    1.3270   -3.9640 C.ar   42  PHE42      -0.0000
     42  N          5.1680    5.4990  -11.9180 N.3    44  GLN44      -0.1231
     43  CA         5.7180    6.6610  -12.6240 C.3    44  GLN44       0.1683
     44  C          6.9810    7.1500  -11.9220 C.2    44  GLN44       0.2434
     45  O          7.1940    6.8500  -10.7450 O.2    44  GLN44      -0.2733
     46  CB         4.6910    7.7980  -12.7130 C.3    44  GLN44       0.0380
     47  CG         4.2190    8.3410  -11.3550 C.3    44  GLN44       0.0905
     48  CD         3.3230    7.3600  -10.6330 C.2    44  GLN44       0.2608
     49  OE1        2.2960    6.9200  -11.1710 O.2    44  GLN44      -0.2717
     50  NE2        3.7080    7.0000   -9.4070 N.am   44  GLN44      -0.0878
     51  N          7.8260    7.9100  -12.6300 N.am   45  PRO45      -0.2718
     52  CA         9.0250    8.4500  -11.9810 C.3    45  PRO45       0.1535
     53  C          8.6960    9.2810  -10.7330 C.2    45  PRO45       0.2598
     54  O          7.6310    9.9020  -10.6510 O.2    45  PRO45      -0.2715
     55  CB         9.6290    9.3520  -13.0650 C.3    45  PRO45       0.0310
     56  CG         9.1500    8.7580  -14.3480 C.3    45  PRO45       0.0237
     57  CD         7.7570    8.2790  -14.0550 C.3    45  PRO45       0.0939
     58  N          9.6020    9.2940   -9.7650 N.am   46  VAL46      -0.1978
     59  CA         9.4130   10.1590   -8.6040 C.3    46  VAL46       0.1596
     60  C          9.3780   11.6200   -9.0680 C.2    46  VAL46       0.2287
     61  O         10.3560   12.1270   -9.6310 O.2    46  VAL46      -0.2864
     62  CB        10.5200    9.9350   -7.5590 C.3    46  VAL46       0.0276
     63  CG1       10.4860   11.0190   -6.4700 C.3    46  VAL46       0.0022
     64  CG2       10.4120    8.5280   -6.9650 C.3    46  VAL46       0.0022
     65  N          6.2990   16.2180   -4.7570 N.3    51  LEU51      -0.1245
     66  CA         6.3680   15.5670   -3.4460 C.3    51  LEU51       0.1561
     67  C          7.1730   16.3770   -2.4420 C.2    51  LEU51       0.2260
     68  O          7.3270   15.9750   -1.2820 O.2    51  LEU51      -0.2867
     69  CB         6.9700   14.1650   -3.5760 C.3    51  LEU51       0.0270
     70  CG         6.1320   13.1680   -4.3790 C.3    51  LEU51       0.0019
     71  CD1        6.8640   11.8430   -4.5030 C.3    51  LEU51       0.0001
     72  CD2        4.7660   12.9690   -3.7330 C.3    51  LEU51       0.0001
     73  N         10.4780   16.9670   -2.3440 N.3    53  LEU53      -0.1245
     74  CA        11.6650   16.2170   -1.9580 C.3    53  LEU53       0.1561
     75  C         12.8790   16.7810   -2.6980 C.2    53  LEU53       0.2260
     76  O         13.3980   16.1630   -3.6310 O.2    53  LEU53      -0.2867
     77  CB        11.4790   14.7340   -2.3020 C.3    53  LEU53       0.0270
     78  CG        10.2530   14.0310   -1.7190 C.3    53  LEU53       0.0019
     79  CD1       10.0940   12.6330   -2.2880 C.3    53  LEU53       0.0001
     80  CD2       10.3720   13.9860   -0.2030 C.3    53  LEU53       0.0001
     81  N         15.8000   14.2920   -3.1330 N.3    56  TYR56      -0.1241
     82  CA        15.6340   12.9640   -3.7240 C.3    56  TYR56       0.1605
     83  C         16.6800   12.6660   -4.7960 C.2    56  TYR56       0.2264
     84  O         17.3530   11.6420   -4.7260 O.2    56  TYR56      -0.2867
     85  CB        14.2150   12.7190   -4.2610 C.3    56  TYR56       0.0534
     86  CG        14.0270   11.2700   -4.6470 C.ar   56  TYR56      -0.0201
     87  CD1       13.6510   10.3170   -3.7040 C.ar   56  TYR56      -0.0009
     88  CD2       14.2810   10.8440   -5.9500 C.ar   56  TYR56      -0.0009
     89  CE1       13.5130    8.9600   -4.0610 C.ar   56  TYR56       0.0417
     90  CE2       14.1420    9.5090   -6.3110 C.ar   56  TYR56       0.0417
     91  CZ        13.7640    8.5770   -5.3740 C.ar   56  TYR56       0.1957
     92  OH        13.6520    7.2670   -5.7630 O.3    56  TYR56      -0.2866
     93  N         14.3410    2.7110   -3.3130 N.3    95  CYS95      -0.1235
     94  CA        13.4040    2.8660   -2.2090 C.3    95  CYS95       0.1677
     95  C         14.0780    2.5390   -0.8680 C.2    95  CYS95       0.2270
     96  O         13.9350    3.2900    0.1100 O.2    95  CYS95      -0.2867
     97  CB        12.1780    1.9870   -2.4370 C.3    95  CYS95       0.0956
     98  SG        10.8530    2.2580   -1.2480 S.3    95  CYS95      -0.0801
     99  N         16.7590    5.4830    0.0140 N.3    98  TYR98      -0.1227
    100  CA        16.2730    6.8040    0.3980 C.3    98  TYR98       0.1736
    101  C         15.5400    6.7490    1.7340 C.2    98  TYR98       0.2595
    102  O         15.6750    7.6550    2.5620 O.2    98  TYR98      -0.2718
    103  CB        15.3570    7.4040   -0.6710 C.3    98  TYR98       0.0548
    104  CG        14.9630    8.8340   -0.3620 C.ar   98  TYR98      -0.0200
    105  CD1       15.7550    9.8970   -0.7740 C.ar   98  TYR98      -0.0009
    106  CD2       13.8100    9.1150    0.3640 C.ar   98  TYR98      -0.0009
    107  CE1       15.3980   11.2100   -0.4890 C.ar   98  TYR98       0.0417
    108  CE2       13.4520   10.4160    0.6580 C.ar   98  TYR98       0.0417
    109  CZ        14.2440   11.4590    0.2280 C.ar   98  TYR98       0.1957
    110  OH        13.8850   12.7550    0.5290 O.3    98  TYR98      -0.2866
    111  N         14.7680    5.6850    1.9300 N.am   99  ASN99      -0.1974
    112  CA        13.9330    5.5480    3.1190 C.3    99  ASN99       0.1688
    113  C         14.6250    4.7320    4.2080 C.2    99  ASN99       0.2292
    114  O         15.8060    4.4180    4.0960 O.2    99  ASN99      -0.2864
    115  CB        12.5690    4.9710    2.7320 C.3    99  ASN99       0.1181
    116  CG        11.8390    5.8460    1.7070 C.2    99  ASN99       0.2629
    117  OD1       11.2740    6.8930    2.0570 O.2    99  ASN99      -0.2716
    118  ND2       11.8700    5.4370    0.4300 N.am   99  ASN99      -0.0877
    119  N          6.5700    2.8540    5.7540 N.3   104  ASP104     -0.1225
    120  CA         5.3970    2.3570    5.0170 C.3   104  ASP104      0.1805
    121  C          5.7890    2.0000    3.5790 C.2   104  ASP104      0.2597
    122  O          5.4340    0.9350    3.0640 O.2   104  ASP104     -0.2718
    123  CB         4.2550    3.3920    4.9810 C.3   104  ASP104      0.1424
    124  CG         3.8180    3.8560    6.3710 C.2   104  ASP104      0.3668
    125  OD1        3.8020    3.0270    7.3080 O.co2 104  ASP104     -0.2456
    126  OD2        3.4930    5.0600    6.5220 O.co2 104  ASP104     -0.2456
    127  N          6.5330    2.8890    2.9290 N.am  105  ILE105     -0.1980
    128  CA         6.8500    2.6910    1.5090 C.3   105  ILE105      0.1595
    129  C          7.8640    1.5680    1.3320 C.2   105  ILE105      0.2287
    130  O          7.8680    0.8770    0.3070 O.2   105  ILE105     -0.2864
    131  CB         7.3560    3.9900    0.8420 C.3   105  ILE105      0.0276
    132  CG1        7.4020    3.8390   -0.6930 C.3   105  ILE105      0.0022
    133  CG2        8.7450    4.3560    1.3870 C.3   105  ILE105      0.0022
    134  CD1        6.0700    3.5080   -1.3340 C.3   105  ILE105      0.0001
    135  N          5.9020   -1.6730    1.4450 N.3   108  MET108     -0.1245
    136  CA         5.2140   -1.7960    0.1600 C.3   108  MET108      0.1570
    137  C          6.1660   -2.3410   -0.8970 C.2   108  MET108      0.2261
    138  O          5.8310   -3.3020   -1.6110 O.2   108  MET108     -0.2867
    139  CB         4.6220   -0.4390   -0.2730 C.3   108  MET108      0.0387
    140  CG         3.4330    0.0110    0.6090 C.3   108  MET108      0.0595
    141  SD         2.8650    1.6830    0.2360 S.3   108  MET108     -0.1393
    142  CE         2.0840    1.4410   -1.3640 C.3   108  MET108      0.0692
@<TRIPOS>BOND
     1    56    57    1
     2    56    55    1
     3    57    51    1
     4    55    52    1
     5    46    43    1
     6    46    47    1
     7    51    52    1
     8    51    44   am
     9    43    44    1
    10    43    42    1
    11    52    53    1
    12    44    45    2
    13    47    48    1
    14    49    48    2
    15    34    33    2
    16    53    54    2
    17    53    58   am
    18    48    50   am
    19    33    32    1
    20    58    59    1
    21    61    60    2
    22    60    59    1
    23    59    62    1
    24    32    35    1
    25    32    31    1
    26    35    36    1
    27    13    12    2
    28    31    26   am
    29    62    64    1
    30    62    63    1
    31    11    12    1
    32    11    10    1
    33    11    14    1
    34    27    26    2
    35    12    24   am
    36    26    25    1
    37    14    15    1
    38    36    37   ar
    39    36    38   ar
    40    90    88   ar
    41    90    91   ar
    42    37    39   ar
    43    24    25    1
    44    24    30    1
    45    88    86   ar
    46    25    28    1
    47    92    91    1
    48    38    40   ar
    49    91    89   ar
    50    15    16   ar
    51    15    17   ar
    52     1     2    1
    53    39    41   ar
    54    30    29    1
    55    83    84    2
    56    83    82    1
    57    65    66    1
    58    86    85    1
    59    86    87   ar
    60    28    29    1
    61    71    70    1
    62    20    17   ar
    63    20    22   ar
    64    16    18   ar
    65     2     3    1
    66     2     5    1
    67    70    72    1
    68    70    69    1
    69    17    19   ar
    70    40    41   ar
    71    85    82    1
    72     3     4    2
    73    89    87   ar
    74    82    81    1
    75    76    75    2
    76    69    66    1
    77    66    67    1
    78    22    23   ar
    79    93    94    1
    80    18    19   ar
    81     5     6    1
    82    19    21   ar
    83    75    74    1
    84    67    68    2
    85    97    94    1
    86    97    98    1
    87    73    74    1
    88    77    74    1
    89    77    78    1
    90     6     7    1
    91    79    78    1
    92    94    95    1
    93    23    21   ar
    94    78    80    1
    95   138   137    2
    96   142   141    1
    97   134   132    1
    98   137   136    1
    99    95    96    2
   100     7     8    2
   101     7     9   am
   102   105   107   ar
   103   105   104   ar
   104   132   131    1
   105   103   104    1
   106   103   100    1
   107   107   109   ar
   108   104   106   ar
   109   139   136    1
   110   139   140    1
   111    99   100    1
   112   136   135    1
   113   109   110    1
   114   109   108   ar
   115   141   140    1
   116   130   129    2
   117   106   108   ar
   118   100   101    1
   119   118   116   am
   120   131   133    1
   121   131   128    1
   122   129   128    1
   123   128   127    1
   124   116   117    2
   125   116   115    1
   126   101   111   am
   127   101   102    2
   128   111   112    1
   129   115   112    1
   130   127   121   am
   131   122   121    2
   132   112   113    1
   133   121   120    1
   134   114   113    2
   135   123   120    1
   136   123   124    1
   137   120   119    1
   138   124   126   ar
   139   124   125   ar
