@<TRIPOS>MOLECULE
tmp/6cizC01.pdb
 160 148 0 0 0
SMALL
GASTEIGER

@<TRIPOS>ATOM
      1  N         -3.5750  165.6690   51.4860 N.3    79  ALA79      -0.1245
      2  CA        -4.0750  164.5210   52.2310 C.3    79  ALA79       0.1562
      3  C         -5.3220  163.9110   51.6070 C.2    79  ALA79       0.2260
      4  O         -5.5380  162.7000   51.7300 O.2    79  ALA79      -0.2867
      5  CB        -4.3740  164.9280   53.6740 C.3    79  ALA79       0.0290
      6  N        -14.6870  163.6850   54.1670 N.3    87  ALA87      -0.1231
      7  CA       -14.4770  164.6610   55.2320 C.3    87  ALA87       0.1694
      8  C        -14.0090  166.0020   54.6810 C.2    87  ALA87       0.2592
      9  O        -14.5180  167.0590   55.0700 O.2    87  ALA87      -0.2718
     10  CB       -13.4650  164.1220   56.2430 C.3    87  ALA87       0.0304
     11  N        -13.0270  165.9790   53.7870 N.am   88  PHE88      -0.1976
     12  CA       -12.4480  167.1960   53.2390 C.3    88  PHE88       0.1639
     13  C        -12.9930  167.5380   51.8610 C.2    88  PHE88       0.2290
     14  O        -12.6340  168.5820   51.3090 O.2    88  PHE88      -0.2864
     15  CB       -10.9270  167.0580   53.1840 C.3    88  PHE88       0.0560
     16  CG       -10.3090  166.7150   54.5090 C.ar   88  PHE88      -0.0200
     17  CD1      -10.7190  167.3610   55.6640 C.ar   88  PHE88      -0.0042
     18  CD2       -9.3280  165.7420   54.6030 C.ar   88  PHE88      -0.0042
     19  CE1      -10.1550  167.0500   56.8870 C.ar   88  PHE88      -0.0003
     20  CE2       -8.7600  165.4250   55.8250 C.ar   88  PHE88      -0.0003
     21  CZ        -9.1750  166.0800   56.9670 C.ar   88  PHE88      -0.0000
     22  N          2.3130  155.5870   58.9870 N.3   175  TYR175     -0.1227
     23  CA         1.9040  156.6610   58.0880 C.3   175  TYR175      0.1736
     24  C          0.6630  157.3810   58.6010 C.2   175  TYR175      0.2595
     25  O          0.4720  158.5630   58.2980 O.2   175  TYR175     -0.2718
     26  CB         1.7010  156.1320   56.6570 C.3   175  TYR175      0.0548
     27  CG         0.4310  155.3570   56.3480 C.ar  175  TYR175     -0.0200
     28  CD1       -0.8210  155.9550   56.4250 C.ar  175  TYR175     -0.0009
     29  CD2        0.4960  154.0420   55.9070 C.ar  175  TYR175     -0.0009
     30  CE1       -1.9690  155.2520   56.1250 C.ar  175  TYR175      0.0417
     31  CE2       -0.6490  153.3350   55.5910 C.ar  175  TYR175      0.0417
     32  CZ        -1.8780  153.9430   55.7050 C.ar  175  TYR175      0.1957
     33  OH        -3.0220  153.2420   55.3970 O.3   175  TYR175     -0.2866
     34  N         -0.1850  156.6980   59.3740 N.am  176  ASN176     -0.1974
     35  CA        -1.2520  157.3890   60.0900 C.3   176  ASN176      0.1688
     36  C         -0.6750  158.4740   60.9880 C.2   176  ASN176      0.2292
     37  O         -1.0490  159.6490   60.8960 O.2   176  ASN176     -0.2864
     38  CB        -2.0640  156.3930   60.9160 C.3   176  ASN176      0.1181
     39  CG        -3.1260  155.6900   60.1040 C.2   176  ASN176      0.2629
     40  OD1       -3.1800  155.8230   58.8820 O.2   176  ASN176     -0.2716
     41  ND2       -3.9800  154.9340   60.7810 N.am  176  ASN176     -0.0877
     42  N          0.9160  161.2870   58.7490 N.3   179  ILE179     -0.1231
     43  CA        -0.0340  162.2160   58.1420 C.3   179  ILE179      0.1692
     44  C         -0.6300  163.1360   59.2010 C.2   179  ILE179      0.2591
     45  O         -0.7670  164.3470   58.9840 O.2   179  ILE179     -0.2718
     46  CB        -1.1260  161.4350   57.3840 C.3   179  ILE179      0.0266
     47  CG1       -0.5530  160.8500   56.0900 C.3   179  ILE179      0.0019
     48  CG2       -2.3250  162.3290   57.0780 C.3   179  ILE179      0.0020
     49  CD1       -1.4280  159.7830   55.4560 C.3   179  ILE179      0.0001
     50  N         -0.9870  162.5830   60.3630 N.am  180  ILE180     -0.1980
     51  CA        -1.6190  163.3850   61.4060 C.3   180  ILE180      0.1595
     52  C         -0.6440  164.4150   61.9580 C.2   180  ILE180      0.2287
     53  O         -1.0190  165.5620   62.2290 O.2   180  ILE180     -0.2864
     54  CB        -2.1670  162.4760   62.5230 C.3   180  ILE180      0.0276
     55  CG1       -3.4140  161.7410   62.0280 C.3   180  ILE180      0.0022
     56  CG2       -2.4680  163.2860   63.7870 C.3   180  ILE180      0.0022
     57  CD1       -4.1050  160.8920   63.0770 C.3   180  ILE180      0.0001
     58  N         -0.0420  167.3420   59.3020 N.3   183  LEU183     -0.1245
     59  CA        -1.1630  168.0330   58.6790 C.3   183  LEU183      0.1561
     60  C         -1.4010  169.3980   59.3060 C.2   183  LEU183      0.2260
     61  O         -1.8700  170.3160   58.6260 O.2   183  LEU183     -0.2867
     62  CB        -2.4310  167.1890   58.7900 C.3   183  LEU183      0.0270
     63  CG        -3.2810  167.1120   57.5210 C.3   183  LEU183      0.0019
     64  CD1       -2.5290  166.3780   56.4240 C.3   183  LEU183      0.0001
     65  CD2       -4.6120  166.4340   57.7940 C.3   183  LEU183      0.0001
     66  N          0.5030  155.7740   52.0800 N.3   213  ARG213     -0.1245
     67  CA        -0.9250  155.5060   52.2030 C.3   213  ARG213      0.1563
     68  C         -1.5320  155.1580   50.8500 C.2   213  ARG213      0.2260
     69  O         -2.3350  154.2250   50.7420 O.2   213  ARG213     -0.2867
     70  CB        -1.6340  156.7190   52.8120 C.3   213  ARG213      0.0307
     71  CG        -3.0250  156.4270   53.3540 C.3   213  ARG213      0.0489
     72  CD        -4.1370  157.0040   52.4830 C.3   213  ARG213      0.2205
     73  NE        -4.3900  158.4150   52.7750 N.pl3 213  ARG213     -0.0865
     74  CZ        -4.1590  159.4260   51.9380 C.cat 213  ARG213      0.5346
     75  NH1       -3.6710  159.2140   50.7230 N.pl3 213  ARG213      0.1354
     76  NH2       -4.4290  160.6640   52.3250 N.pl3 213  ARG213      0.1354
     77  N         -9.8110  157.3780   47.7410 N.3   268  THR268     -0.1218
     78  CA        -9.8240  158.4400   48.7430 C.3   268  THR268      0.1862
     79  C        -10.9390  158.2270   49.7610 C.2   268  THR268      0.2287
     80  O        -10.7390  158.4490   50.9610 O.2   268  THR268     -0.2866
     81  CB        -9.9630  159.8030   48.0640 C.3   268  THR268      0.1770
     82  OG1       -8.9020  159.9800   47.1160 O.3   268  THR268     -0.2211
     83  CG2       -9.8940  160.9240   49.0920 C.3   268  THR268      0.0375
     84  N         -9.8730  155.4500   52.0780 N.3   271  GLY271     -0.1210
     85  CA        -8.8670  155.9660   52.9910 C.3   271  GLY271      0.1956
     86  C         -9.4570  156.8320   54.0860 C.2   271  GLY271      0.2611
     87  O         -9.0850  156.7070   55.2560 O.2   271  GLY271     -0.2717
     88  N        -10.3750  157.7320   53.7220 N.am  272  ASP272     -0.1973
     89  CA       -11.0650  158.5430   54.7210 C.3   272  ASP272      0.1709
     90  C        -11.6920  157.6580   55.7920 C.2   272  ASP272      0.2293
     91  O        -11.4840  157.8650   56.9930 O.2   272  ASP272     -0.2864
     92  CB       -12.1390  159.4050   54.0460 C.3   272  ASP272      0.1436
     93  CG       -11.7380  160.8740   53.9210 C.2   272  ASP272      0.3671
     94  OD1      -10.7040  161.2800   54.4930 O.co2 272  ASP272     -0.2456
     95  OD2      -12.4700  161.6290   53.2450 O.co2 272  ASP272     -0.2456
     96  N         -9.0970  155.7270   57.8360 N.3   275  GLY275     -0.1210
     97  CA        -8.3650  156.6020   58.7280 C.3   275  GLY275      0.1956
     98  C         -9.2020  157.0800   59.8950 C.2   275  GLY275      0.2611
     99  O         -8.7250  157.1300   61.0330 O.2   275  GLY275     -0.2717
    100  N        -10.4580  157.4390   59.6240 N.am  276  ALA276     -0.1979
    101  CA       -11.3430  157.8770   60.6950 C.3   276  ALA276      0.1597
    102  C        -11.6790  156.7270   61.6340 C.2   276  ALA276      0.2287
    103  O        -11.7700  156.9180   62.8530 O.2   276  ALA276     -0.2864
    104  CB       -12.6190  158.4760   60.1070 C.3   276  ALA276      0.0319
    105  N         -8.1960  156.2260   64.0090 N.3   279  GLU279     -0.1231
    106  CA        -7.5630  157.2510   64.8300 C.3   279  GLU279      0.1699
    107  C         -8.5280  157.9130   65.8050 C.2   279  GLU279      0.2592
    108  O         -8.1000  158.3650   66.8730 O.2   279  GLU279     -0.2718
    109  CB        -6.9120  158.2990   63.9260 C.3   279  GLU279      0.0402
    110  CG        -5.7300  157.7480   63.1390 C.3   279  GLU279      0.1161
    111  CD        -4.5970  157.2770   64.0380 C.2   279  GLU279      0.3649
    112  OE1       -4.1620  158.0590   64.9110 O.co2 279  GLU279     -0.2457
    113  OE2       -4.1480  156.1210   63.8820 O.co2 279  GLU279     -0.2457
    114  N         -9.8190  157.9810   65.4800 N.am  280  THR280     -0.1953
    115  CA       -10.7720  158.5710   66.4140 C.3   280  THR280      0.1897
    116  C        -11.0170  157.6410   67.5960 C.2   280  THR280      0.2313
    117  O        -10.8330  158.0240   68.7560 O.2   280  THR280     -0.2863
    118  CB       -12.0860  158.8930   65.7030 C.3   280  THR280      0.1794
    119  OG1      -12.6750  157.6820   65.2140 O.3   280  THR280     -0.2208
    120  CG2      -11.8520  159.8550   64.5390 C.3   280  THR280      0.0378
    121  N        -13.2880  164.6520   70.2770 N.3   340  VAL340     -0.1231
    122  CA       -12.4280  164.1840   69.1950 C.3   340  VAL340      0.1692
    123  C        -12.0970  165.3210   68.2420 C.2   340  VAL340      0.2591
    124  O        -10.9970  165.3710   67.6780 O.2   340  VAL340     -0.2718
    125  CB       -13.1080  163.0130   68.4560 C.3   340  VAL340      0.0266
    126  CG1      -12.2510  162.5280   67.2990 C.3   340  VAL340      0.0020
    127  CG2      -13.3950  161.8710   69.4160 C.3   340  VAL340      0.0020
    128  N        -13.0360  166.2430   68.0380 N.am  341  ALA341     -0.1980
    129  CA       -12.8650  167.3700   67.1220 C.3   341  ALA341      0.1597
    130  C        -13.2760  168.6430   67.8490 C.2   341  ALA341      0.2287
    131  O        -14.4010  169.1340   67.6820 O.2   341  ALA341     -0.2864
    132  CB       -13.6830  167.1640   65.8450 C.3   341  ALA341      0.0319
    133  N        -14.7760  170.1730   61.9370 N.3   345  ILE345     -0.1245
    134  CA       -13.9830  170.3580   60.7300 C.3   345  ILE345      0.1561
    135  C        -14.5010  171.6170   60.0550 C.2   345  ILE345      0.2260
    136  O        -15.7100  171.7390   59.8450 O.2   345  ILE345     -0.2867
    137  CB       -14.0710  169.1470   59.7800 C.3   345  ILE345      0.0252
    138  CG1      -13.5100  167.9050   60.4830 C.3   345  ILE345      0.0019
    139  CG2      -13.3240  169.4180   58.4810 C.3   345  ILE345      0.0019
    140  CD1      -13.6950  166.6150   59.7170 C.3   345  ILE345      0.0001
    141  N        -21.1260  163.2830   61.7610 N.3   416  CYS416     -0.1235
    142  CA       -20.3640  162.0450   61.7030 C.3   416  CYS416      0.1677
    143  C        -21.1920  160.9250   61.0860 C.2   416  CYS416      0.2270
    144  O        -22.3380  160.6940   61.4810 O.2   416  CYS416     -0.2867
    145  CB       -19.9150  161.6520   63.1100 C.3   416  CYS416      0.0956
    146  SG       -18.8710  160.1940   63.1640 S.3   416  CYS416     -0.0801
    147  N         -5.7820  167.1880   63.6800 N.3   456  VAL456     -0.1231
    148  CA        -7.0640  166.8360   63.0770 C.3   456  VAL456      0.1692
    149  C         -7.9220  166.1130   64.1050 C.2   456  VAL456      0.2591
    150  O         -9.1430  166.3030   64.1730 O.2   456  VAL456     -0.2718
    151  CB        -6.8420  165.9880   61.8120 C.3   456  VAL456      0.0266
    152  CG1       -8.0420  165.1060   61.5320 C.3   456  VAL456      0.0020
    153  CG2       -6.5780  166.8890   60.6240 C.3   456  VAL456      0.0020
    154  N         -7.2880  165.2770   64.9240 N.am  457  VAL457     -0.1980
    155  CA        -7.9110  164.6510   66.0810 C.3   457  VAL457      0.1595
    156  C         -7.2450  165.2090   67.3300 C.2   457  VAL457      0.2287
    157  O         -6.0460  165.5080   67.3360 O.2   457  VAL457     -0.2864
    158  CB        -7.7810  163.1150   66.0360 C.3   457  VAL457      0.0276
    159  CG1       -8.3960  162.4920   67.2780 C.3   457  VAL457      0.0022
    160  CG2       -8.4320  162.5640   64.7790 C.3   457  VAL457      0.0022
@<TRIPOS>BOND
     1    82    81    1
     2    77    78    1
     3    81    78    1
     4    81    83    1
     5    78    79    1
     6    79    80    2
     7    75    74    1
     8    69    68    2
     9    68    67    1
    10    14    13    2
    11     1     2    1
    12     3     4    2
    13     3     2    1
    14    13    12    1
    15    74    76    1
    16    74    73    2
    17    84    85    1
    18    66    67    1
    19    67    70    1
    20     2     5    1
    21    72    73    1
    22    72    71    1
    23    70    71    1
    24    85    86    1
    25    15    12    1
    26    15    16    1
    27    12    11    1
    28    95    93   ar
    29    88    86   am
    30    88    89    1
    31    11     8   am
    32    93    92    1
    33    93    94   ar
    34    92    89    1
    35    86    87    2
    36     6     7    1
    37    16    18   ar
    38    16    17   ar
    39    18    20   ar
    40     8     9    2
    41     8     7    1
    42    89    90    1
    43     7    10    1
    44    33    32    1
    45    49    47    1
    46    31    32   ar
    47    31    29   ar
    48    17    19   ar
    49    32    30   ar
    50    90    91    2
    51    20    21   ar
    52    29    27   ar
    53    47    46    1
    54    30    28   ar
    55    27    28   ar
    56    27    26    1
    57    64    63    1
    58    26    23    1
    59    19    21   ar
    60    48    46    1
    61    46    43    1
    62    63    65    1
    63    63    62    1
    64    96    97    1
    65    23    24    1
    66    23    22    1
    67    43    42    1
    68    43    44    1
    69    25    24    2
    70   139   137    1
    71    24    34   am
    72    61    60    2
    73    59    62    1
    74    59    58    1
    75    59    60    1
    76    97    98    1
    77    40    39    2
    78    45    44    2
    79    44    50   am
    80    34    35    1
    81   100    98   am
    82   100   101    1
    83   140   138    1
    84   137   138    1
    85   137   134    1
    86   136   135    2
    87    98    99    2
    88   135   134    1
    89    35    38    1
    90    35    36    1
    91    39    41   am
    92    39    38    1
    93   104   101    1
    94    50    51    1
    95   153   151    1
    96   101   102    1
    97   134   133    1
    98    37    36    2
    99   143   144    2
   100   143   142    1
   101    51    52    1
   102    51    54    1
   103   152   151    1
   104   102   103    2
   105   142   141    1
   106   142   145    1
   107   151   148    1
   108    52    53    2
   109    55    54    1
   110    55    57    1
   111    54    56    1
   112   148   147    1
   113   148   149    1
   114   145   146    1
   115   110   109    1
   116   110   111    1
   117   113   111   ar
   118   109   106    1
   119   105   106    1
   120   111   112   ar
   121   149   150    2
   122   149   154   am
   123   120   118    1
   124   160   158    1
   125   106   107    1
   126   154   155    1
   127   119   118    1
   128   114   107   am
   129   114   115    1
   130   118   115    1
   131   107   108    2
   132   132   129    1
   133   158   155    1
   134   158   159    1
   135   155   156    1
   136   115   116    1
   137   129   130    1
   138   129   128    1
   139   126   125    1
   140   156   157    2
   141   116   117    2
   142   124   123    2
   143   131   130    2
   144   128   123   am
   145   123   122    1
   146   125   122    1
   147   125   127    1
   148   122   121    1
