@<TRIPOS>MOLECULE
tmp/6cj2A00.pdb
 158 156 0 0 0
SMALL
GASTEIGER

@<TRIPOS>ATOM
      1  N         -1.1010   -6.5920    4.4090 N.3    34  TRP34      -0.1241
      2  CA        -0.4690   -5.2880    4.6000 C.3    34  TRP34       0.1605
      3  C          0.5800   -4.9910    3.5240 C.2    34  TRP34       0.2264
      4  O          0.8040   -3.8320    3.1720 O.2    34  TRP34      -0.2867
      5  CB         0.1670   -5.2470    5.9940 C.3    34  TRP34       0.0550
      6  CG         0.5880   -3.8960    6.5100 C.ar   34  TRP34       0.0003
      7  CD1        1.7820   -3.2730    6.2990 C.ar   34  TRP34       0.0946
      8  CD2       -0.1640   -3.0370    7.3780 C.ar   34  TRP34       0.0152
      9  NE1        1.8140   -2.0710    6.9670 N.ar   34  TRP34      -0.2442
     10  CE2        0.6310   -1.9030    7.6300 C.ar   34  TRP34       0.0810
     11  CE3       -1.4360   -3.1110    7.9470 C.ar   34  TRP34       0.0012
     12  CZ2        0.1900   -0.8510    8.4360 C.ar   34  TRP34       0.0191
     13  CZ3       -1.8680   -2.0670    8.7510 C.ar   34  TRP34       0.0001
     14  CH2       -1.0580   -0.9520    8.9820 C.ar   34  TRP34       0.0015
     15  N         -2.0960    0.1000    0.9190 N.3    40  TRP40      -0.1228
     16  CA        -1.7770    1.3660    1.5720 C.3    40  TRP40       0.1722
     17  C         -2.9750    2.2340    1.9860 C.2    40  TRP40       0.2437
     18  O         -2.9390    2.8350    3.0600 O.2    40  TRP40      -0.2733
     19  CB        -0.7570    2.1790    0.7590 C.3    40  TRP40       0.0563
     20  CG        -1.2040    2.5210   -0.6240 C.ar   40  TRP40       0.0003
     21  CD1       -1.0220    1.7760   -1.7530 C.ar   40  TRP40       0.0946
     22  CD2       -1.9060    3.7040   -1.0300 C.ar   40  TRP40       0.0152
     23  NE1       -1.5710    2.4200   -2.8390 N.ar   40  TRP40      -0.2442
     24  CE2       -2.1210    3.6070   -2.4190 C.ar   40  TRP40       0.0810
     25  CE3       -2.3740    4.8410   -0.3500 C.ar   40  TRP40       0.0012
     26  CZ2       -2.7810    4.5950   -3.1430 C.ar   40  TRP40       0.0191
     27  CZ3       -3.0320    5.8240   -1.0720 C.ar   40  TRP40       0.0001
     28  CH2       -3.2290    5.6920   -2.4550 C.ar   40  TRP40       0.0015
     29  N         -4.0270    2.3380    1.1430 N.am   41  PRO41      -0.2718
     30  CA        -5.1110    3.2530    1.5350 C.3    41  PRO41       0.1535
     31  C         -5.8330    2.7870    2.7950 C.2    41  PRO41       0.2599
     32  O         -6.5390    3.5630    3.4290 O.2    41  PRO41      -0.2715
     33  CB        -6.0780    3.1990    0.3400 C.3    41  PRO41       0.0310
     34  CG        -5.2670    2.6620   -0.8030 C.3    41  PRO41       0.0237
     35  CD        -4.2890    1.7040   -0.1630 C.3    41  PRO41       0.0939
     36  N         -5.6490    1.5190    3.1430 N.am   42  PHE42      -0.1960
     37  CA        -6.4100    0.8860    4.2160 C.3    42  PHE42       0.1771
     38  C         -5.5940    0.7530    5.4980 C.2    42  PHE42       0.2619
     39  O         -6.0560    0.1690    6.4750 O.2    42  PHE42      -0.2715
     40  CB        -6.9500   -0.4740    3.7390 C.3    42  PHE42       0.0574
     41  CG        -7.8060   -0.3570    2.5070 C.ar   42  PHE42      -0.0200
     42  CD1       -9.1220    0.0620    2.6100 C.ar   42  PHE42      -0.0042
     43  CD2       -7.2780   -0.5990    1.2380 C.ar   42  PHE42      -0.0042
     44  CE1       -9.9190    0.2040    1.4830 C.ar   42  PHE42      -0.0003
     45  CE2       -8.0690   -0.4450    0.0990 C.ar   42  PHE42      -0.0003
     46  CZ        -9.3870   -0.0420    0.2220 C.ar   42  PHE42      -0.0000
     47  N         -4.3900    1.3180    5.5000 N.am   43  GLN43      -0.1963
     48  CA        -3.4770    1.1620    6.6380 C.3    43  GLN43       0.1733
     49  C         -3.6930    2.1470    7.7840 C.2    43  GLN43       0.2616
     50  O         -3.0020    2.0720    8.8010 O.2    43  GLN43      -0.2715
     51  CB        -2.0160    1.2020    6.1750 C.3    43  GLN43       0.0408
     52  CG        -1.6440    0.0240    5.2790 C.3    43  GLN43       0.0908
     53  CD        -0.2460    0.1130    4.7060 C.2    43  GLN43       0.2608
     54  OE1        0.4050    1.1550    4.7730 O.2    43  GLN43      -0.2717
     55  NE2        0.2290   -0.9970    4.1340 N.am   43  GLN43      -0.0878
     56  N         -4.6500    3.0580    7.6260 N.am   44  GLN44      -0.1977
     57  CA        -4.9800    4.0230    8.6760 C.3    44  GLN44       0.1601
     58  C         -6.4200    4.4850    8.4900 C.2    44  GLN44       0.2287
     59  O         -7.0070    4.2670    7.4360 O.2    44  GLN44      -0.2864
     60  CB        -4.0410    5.2180    8.5820 C.3    44  GLN44       0.0394
     61  CG        -4.2350    5.9890    7.2900 C.3    44  GLN44       0.0908
     62  CD        -3.3090    7.1760    7.1870 C.2    44  GLN44       0.2608
     63  OE1       -2.2130    7.1710    7.7500 O.2    44  GLN44      -0.2717
     64  NE2       -3.7400    8.2060    6.4630 N.am   44  GLN44      -0.0878
     65  N         -9.5260    6.7370    7.4490 N.3    46  VAL46      -0.1231
     66  CA        -9.6710    7.6910    6.3600 C.3    46  VAL46       0.1692
     67  C         -9.5360    9.1000    6.9230 C.2    46  VAL46       0.2592
     68  O        -10.2870    9.4990    7.8190 O.2    46  VAL46      -0.2718
     69  CB       -11.0190    7.5370    5.6310 C.3    46  VAL46       0.0266
     70  CG1      -11.2370    8.6960    4.6630 C.3    46  VAL46       0.0020
     71  CG2      -11.0820    6.1910    4.9010 C.3    46  VAL46       0.0020
     72  N         -8.5540    9.8420    6.4280 N.am   47  ASP47      -0.1974
     73  CA        -8.3740   11.2310    6.8490 C.3    47  ASP47       0.1709
     74  C         -9.1910   12.1250    5.9200 C.2    47  ASP47       0.2293
     75  O         -8.7110   12.5510    4.8660 O.2    47  ASP47      -0.2864
     76  CB        -6.8890   11.6130    6.8220 C.3    47  ASP47       0.1436
     77  CG        -6.6010   12.9580    7.4970 C.2    47  ASP47       0.3671
     78  OD1       -7.5060   13.8160    7.5740 O.co2  47  ASP47      -0.2456
     79  OD2       -5.4510   13.1580    7.9460 O.co2  47  ASP47      -0.2456
     80  N         -7.6350   15.6790    5.1920 N.3    50  LYS50      -0.1231
     81  CA        -6.4660   15.6710    4.3250 C.3    50  LYS50       0.1693
     82  C         -6.8270   15.2930    2.8910 C.2    50  LYS50       0.2591
     83  O         -6.2870   15.8550    1.9430 O.2    50  LYS50      -0.2718
     84  CB        -5.3910   14.7270    4.8750 C.3    50  LYS50       0.0285
     85  CG        -4.0510   14.8450    4.1610 C.3    50  LYS50       0.0035
     86  CD        -3.0140   13.9050    4.7430 C.3    50  LYS50       0.0206
     87  CE        -1.8040   13.7560    3.8230 C.3    50  LYS50       0.1093
     88  NZ        -0.9610   14.9780    3.7560 N.3    50  LYS50      -0.1314
     89  N         -7.7530   14.3530    2.7360 N.am   51  LEU51      -0.1980
     90  CA        -8.1130   13.8530    1.4100 C.3    51  LEU51       0.1596
     91  C         -9.1520   14.7210    0.7100 C.2    51  LEU51       0.2287
     92  O         -9.5310   14.4310   -0.4210 O.2    51  LEU51      -0.2864
     93  CB        -8.6390   12.4180    1.5100 C.3    51  LEU51       0.0297
     94  CG        -7.6400   11.3370    1.9180 C.3    51  LEU51       0.0022
     95  CD1       -8.3840   10.0370    2.1950 C.3    51  LEU51       0.0001
     96  CD2       -6.5880   11.1420    0.8400 C.3    51  LEU51       0.0001
     97  N        -12.3350   15.0210    1.5230 N.3    53  LEU53      -0.1245
     98  CA       -13.5600   14.2280    1.4450 C.3    53  LEU53       0.1561
     99  C        -14.4610   14.6410    2.5940 C.2    53  LEU53       0.2260
    100  O        -14.7270   13.8390    3.4960 O.2    53  LEU53      -0.2867
    101  CB       -13.2420   12.7320    1.5710 C.3    53  LEU53       0.0270
    102  CG       -12.3340   12.0830    0.5200 C.3    53  LEU53       0.0019
    103  CD1      -11.9440   10.6600    0.9180 C.3    53  LEU53       0.0001
    104  CD2      -12.9790   12.1090   -0.8640 C.3    53  LEU53       0.0001
    105  N        -17.1540   12.3400    4.0810 N.3    56  TYR56      -0.1241
    106  CA       -16.8990   10.9140    4.3100 C.3    56  TYR56       0.1605
    107  C        -17.6070   10.3900    5.5580 C.2    56  TYR56       0.2264
    108  O        -18.3240    9.4050    5.5050 O.2    56  TYR56      -0.2867
    109  CB       -15.4100   10.5770    4.3810 C.3    56  TYR56       0.0534
    110  CG       -15.1870    9.0770    4.4810 C.ar   56  TYR56      -0.0201
    111  CD1      -15.1810    8.2770    3.3390 C.ar   56  TYR56      -0.0009
    112  CD2      -15.0200    8.4570    5.7100 C.ar   56  TYR56      -0.0009
    113  CE1      -14.9920    6.9010    3.4210 C.ar   56  TYR56       0.0417
    114  CE2      -14.8330    7.0790    5.8030 C.ar   56  TYR56       0.0417
    115  CZ       -14.8170    6.3080    4.6580 C.ar   56  TYR56       0.1957
    116  OH       -14.6360    4.9400    4.7710 O.3    56  TYR56      -0.2866
    117  N        -15.9710    1.0000    2.0690 N.3    95  CYS95      -0.1235
    118  CA       -15.3550    1.4650    0.8410 C.3    95  CYS95       0.1677
    119  C        -16.3720    1.3870   -0.2990 C.2    95  CYS95       0.2270
    120  O        -16.4870    2.3180   -1.1100 O.2    95  CYS95      -0.2867
    121  CB       -14.1030    0.6500    0.5170 C.3    95  CYS95       0.0956
    122  SG       -13.2140    1.3140   -0.9020 S.3    95  CYS95      -0.0801
    123  N        -19.2900    4.2050    0.2210 N.3    98  TYR98      -0.1227
    124  CA       -18.9450    5.6060   -0.0030 C.3    98  TYR98       0.1736
    125  C        -18.5970    5.9010   -1.4580 C.2    98  TYR98       0.2595
    126  O        -18.7930    7.0180   -1.9610 O.2    98  TYR98      -0.2718
    127  CB       -17.7940    6.0630    0.9000 C.3    98  TYR98       0.0548
    128  CG       -17.4410    7.5210    0.6500 C.ar   98  TYR98      -0.0200
    129  CD1      -18.2260    8.5450    1.1710 C.ar   98  TYR98      -0.0009
    130  CD2      -16.3500    7.8700   -0.1350 C.ar   98  TYR98      -0.0009
    131  CE1      -17.9210    9.8830    0.9230 C.ar   98  TYR98       0.0417
    132  CE2      -16.0390    9.1950   -0.3890 C.ar   98  TYR98       0.0417
    133  CZ       -16.8300   10.2000    0.1470 C.ar   98  TYR98       0.1957
    134  OH       -16.5330   11.5290   -0.1040 O.3    98  TYR98      -0.2866
    135  N        -18.0610    4.8920   -2.1270 N.am   99  ASN99      -0.1974
    136  CA       -17.5670    5.0630   -3.4800 C.3    99  ASN99       0.1688
    137  C        -18.4970    4.3990   -4.4990 C.2    99  ASN99       0.2292
    138  O        -19.5480    3.8860   -4.1390 O.2    99  ASN99      -0.2864
    139  CB       -16.1420    4.5150   -3.5820 C.3    99  ASN99       0.1181
    140  CG       -15.1720    5.2490   -2.6730 C.2    99  ASN99       0.2629
    141  OD1      -14.8000    6.3880   -2.9410 O.2    99  ASN99      -0.2716
    142  ND2      -14.7520    4.5890   -1.5940 N.am   99  ASN99      -0.0877
    143  N        -10.2830    3.0450   -6.0080 N.3   105  ILE105     -0.1245
    144  CA       -10.2080    2.5540   -4.6310 C.3   105  ILE105      0.1561
    145  C        -11.0860    1.3140   -4.4340 C.2   105  ILE105      0.2260
    146  O        -10.7560    0.4270   -3.6440 O.2   105  ILE105     -0.2867
    147  CB       -10.5620    3.6710   -3.6020 C.3   105  ILE105      0.0252
    148  CG1      -10.2350    3.2580   -2.1560 C.3   105  ILE105      0.0019
    149  CG2      -12.0250    4.0800   -3.7140 C.3   105  ILE105      0.0019
    150  CD1       -8.8020    2.8420   -1.9240 C.3   105  ILE105      0.0001
    151  N         -9.2990   -1.6030   -5.6390 N.3   108  MET108     -0.1245
    152  CA        -8.3160   -2.0170   -4.6460 C.3   108  MET108      0.1570
    153  C         -8.9540   -2.8540   -3.5420 C.2   108  MET108      0.2261
    154  O         -8.4290   -3.9100   -3.1800 O.2   108  MET108     -0.2867
    155  CB        -7.5920   -0.8080   -4.0620 C.3   108  MET108      0.0387
    156  CG        -6.8850    0.0040   -5.1400 C.3   108  MET108      0.0595
    157  SD        -6.2250    1.5890   -4.5690 S.3   108  MET108     -0.1393
    158  CE        -4.6480    1.0850   -3.9470 C.3   108  MET108      0.0692
@<TRIPOS>BOND
     1   143   144    1
     2   151   152    1
     3   156   157    1
     4   156   155    1
     5   152   155    1
     6   152   153    1
     7   144   145    1
     8   144   147    1
     9   157   158    1
    10   137   138    2
    11   137   136    1
    12   145   146    2
    13   149   147    1
    14   147   148    1
    15   139   136    1
    16   139   140    1
    17   153   154    2
    18   136   135    1
    19    26    28   ar
    20    26    24   ar
    21   141   140    2
    22    23    24   ar
    23    23    21   ar
    24   140   142   am
    25    28    27   ar
    26    24    22   ar
    27   148   150    1
    28   135   125   am
    29   126   125    2
    30    21    20   ar
    31   125   124    1
    32   120   119    2
    33    27    25   ar
    34    22    20   ar
    35    22    25   ar
    36   122   121    1
    37   104   102    1
    38    34    35    1
    39    34    33    1
    40    20    19    1
    41    92    91    2
    42   132   130   ar
    43   132   133   ar
    44   119   118    1
    45    35    29    1
    46   130   128   ar
    47   134   133    1
    48   124   123    1
    49   124   127    1
    50    45    46   ar
    51    45    43   ar
    52   133   131   ar
    53    46    44   ar
    54    33    30    1
    55   121   118    1
    56   102   103    1
    57   102   101    1
    58   128   127    1
    59   128   129   ar
    60    91    90    1
    61    19    16    1
    62    96    94    1
    63   118   117    1
    64    15    16    1
    65   131   129   ar
    66    29    30    1
    67    29    17   am
    68    43    41   ar
    69    90    93    1
    70    90    89    1
    71    98    97    1
    72    98   101    1
    73    98    99    1
    74    44    42   ar
    75    93    94    1
    76    30    31    1
    77    16    17    1
    78    94    95    1
    79    83    82    2
    80    17    18    2
    81    41    42   ar
    82    41    40    1
    83    99   100    2
    84    89    82   am
    85    31    36   am
    86    31    32    2
    87    82    81    1
    88    36    37    1
    89     4     3    2
    90   111   113   ar
    91   111   110   ar
    92   113   115   ar
    93     3     2    1
    94    40    37    1
    95    88    87    1
    96    87    86    1
    97   105   106    1
    98    55    53   am
    99    85    86    1
   100    85    84    1
   101    37    38    1
   102   106   109    1
   103   106   107    1
   104    81    84    1
   105    81    80    1
   106   109   110    1
   107     1     2    1
   108   110   112   ar
   109     2     5    1
   110   115   116    1
   111   115   114   ar
   112    70    69    1
   113    53    54    2
   114    53    52    1
   115    75    74    2
   116    71    69    1
   117    52    51    1
   118    38    47   am
   119    38    39    2
   120    47    48    1
   121   108   107    2
   122    69    66    1
   123   112   114   ar
   124    74    73    1
   125     5     6    1
   126    51    48    1
   127     7     6   ar
   128     7     9   ar
   129    66    67    1
   130    66    65    1
   131    72    73    1
   132    72    67   am
   133    64    62   am
   134     6     8   ar
   135    48    49    1
   136    76    73    1
   137    76    77    1
   138    67    68    2
   139     9    10   ar
   140    62    61    1
   141    62    63    2
   142    61    60    1
   143     8    10   ar
   144     8    11   ar
   145    59    58    2
   146    77    78   ar
   147    77    79   ar
   148    56    49   am
   149    56    57    1
   150    10    12   ar
   151    49    50    2
   152    11    13   ar
   153    12    14   ar
   154    58    57    1
   155    60    57    1
   156    13    14   ar
