@<TRIPOS>MOLECULE
tmp/6cj6D06.pdb
 117 110 0 0 0
SMALL
GASTEIGER

@<TRIPOS>ATOM
      1  N         12.6190  -17.9940  -43.8430 N.3    33  ALA33      -0.1231
      2  CA        12.4030  -17.9710  -42.4000 C.3    33  ALA33       0.1694
      3  C         11.5580  -16.7760  -41.9840 C.2    33  ALA33       0.2591
      4  O         10.7540  -16.8780  -41.0500 O.2    33  ALA33      -0.2718
      5  CB        13.7400  -17.9710  -41.6610 C.3    33  ALA33       0.0304
      6  N         11.7150  -15.6440  -42.6680 N.am   34  ILE34      -0.1980
      7  CA        10.9320  -14.4510  -42.3950 C.3    34  ILE34       0.1595
      8  C         10.3060  -13.9770  -43.6990 C.2    34  ILE34       0.2287
      9  O         10.7790  -14.2900  -44.7930 O.2    34  ILE34      -0.2864
     10  CB        11.7790  -13.3380  -41.7480 C.3    34  ILE34       0.0276
     11  CG1       10.9020  -12.4380  -40.8830 C.3    34  ILE34       0.0022
     12  CG2       12.4760  -12.5120  -42.8090 C.3    34  ILE34       0.0022
     13  CD1       11.6850  -11.6500  -39.8830 C.3    34  ILE34       0.0001
     14  N         22.3130  -16.6070  -44.4880 N.3    57  ASN57      -0.1225
     15  CA        22.6570  -15.8160  -43.3170 C.3    57  ASN57       0.1785
     16  C         22.6470  -14.3360  -43.6720 C.2    57  ASN57       0.2598
     17  O         22.8540  -13.9530  -44.8270 O.2    57  ASN57      -0.2718
     18  CB        24.0220  -16.2210  -42.7450 C.3    57  ASN57       0.1169
     19  CG        25.1320  -16.1370  -43.7740 C.2    57  ASN57       0.2627
     20  OD1       25.0080  -16.6560  -44.8850 O.2    57  ASN57      -0.2716
     21  ND2       26.2220  -15.4730  -43.4130 N.am   57  ASN57      -0.0877
     22  N         22.4000  -13.5080  -42.6580 N.am   58  SER58      -0.1938
     23  CA        22.3980  -12.0650  -42.8530 C.3    58  SER58       0.2055
     24  C         23.8010  -11.5010  -43.0450 C.2    58  SER58       0.2642
     25  O         23.9470  -10.4350  -43.6530 O.2    58  SER58      -0.2714
     26  CB        21.7050  -11.3830  -41.6740 C.3    58  SER58       0.2130
     27  OG        22.2400  -11.8380  -40.4450 O.3    58  SER58      -0.2179
     28  N         24.8300  -12.1850  -42.5380 N.am   59  ARG59      -0.1977
     29  CA        26.1980  -11.7100  -42.7220 C.3    59  ARG59       0.1597
     30  C         26.5550  -11.6120  -44.1980 C.2    59  ARG59       0.2287
     31  O         27.2220  -10.6590  -44.6230 O.2    59  ARG59      -0.2864
     32  CB        27.1790  -12.6310  -41.9960 C.3    59  ARG59       0.0334
     33  CG        27.2950  -12.3660  -40.5090 C.3    59  ARG59       0.0492
     34  CD        28.4950  -11.4820  -40.1780 C.3    59  ARG59       0.2205
     35  NE        28.3880  -10.1300  -40.7250 N.pl3  59  ARG59      -0.0865
     36  CZ        29.1980   -9.6320  -41.6540 C.cat  59  ARG59       0.5346
     37  NH1       30.1840  -10.3720  -42.1450 N.pl3  59  ARG59       0.1354
     38  NH2       29.0290   -8.3890  -42.0880 N.pl3  59  ARG59       0.1354
     39  N         24.7270   -2.7400  -39.6310 N.3   103  GLU103     -0.1245
     40  CA        24.4320   -4.1190  -39.2580 C.3   103  GLU103      0.1567
     41  C         24.2460   -4.2560  -37.7520 C.2   103  GLU103      0.2260
     42  O         23.3820   -5.0100  -37.2930 O.2   103  GLU103     -0.2867
     43  CB        25.5420   -5.0440  -39.7610 C.3   103  GLU103      0.0388
     44  CG        25.3680   -6.5050  -39.3750 C.3   103  GLU103      0.1160
     45  CD        26.2530   -7.4320  -40.1840 C.2   103  GLU103      0.3649
     46  OE1       27.0500   -6.9310  -41.0040 O.co2 103  GLU103     -0.2457
     47  OE2       26.1440   -8.6660  -40.0080 O.co2 103  GLU103     -0.2457
     48  N         20.9630   -5.4670  -36.1420 N.3   107  ASN107     -0.1240
     49  CA        21.0270   -6.6650  -35.3060 C.3   107  ASN107      0.1653
     50  C         20.2820   -6.4590  -33.9930 C.2   107  ASN107      0.2266
     51  O         19.5780   -7.3600  -33.5210 O.2   107  ASN107     -0.2867
     52  CB        22.4860   -7.0380  -35.0320 C.3   107  ASN107      0.1155
     53  CG        23.0730   -7.9540  -36.0940 C.2   107  ASN107      0.2627
     54  OD1       22.4010   -8.3310  -37.0540 O.2   107  ASN107     -0.2716
     55  ND2       24.3370   -8.3160  -35.9220 N.am  107  ASN107     -0.0877
     56  N         16.3300   -6.0230  -34.6780 N.3   110  ALA110     -0.1231
     57  CA        15.6070   -7.2790  -34.8380 C.3   110  ALA110      0.1694
     58  C         15.3780   -7.9610  -33.4950 C.2   110  ALA110      0.2591
     59  O         14.3210   -8.5640  -33.2710 O.2   110  ALA110     -0.2718
     60  CB        16.3620   -8.2040  -35.7920 C.3   110  ALA110      0.0304
     61  N         16.3530   -7.8720  -32.5900 N.am  111  GLU111     -0.1979
     62  CA        16.2100   -8.5130  -31.2870 C.3   111  GLU111      0.1602
     63  C         15.2000   -7.7760  -30.4160 C.2   111  GLU111      0.2287
     64  O         14.3100   -8.3950  -29.8220 O.2   111  GLU111     -0.2864
     65  CB        17.5670   -8.5890  -30.5880 C.3   111  GLU111      0.0415
     66  CG        17.4910   -9.1600  -29.1830 C.3   111  GLU111      0.1163
     67  CD        18.8580   -9.4030  -28.5800 C.2   111  GLU111      0.3649
     68  OE1       19.8310   -8.7770  -29.0510 O.co2 111  GLU111     -0.2457
     69  OE2       18.9590  -10.2230  -27.6420 O.co2 111  GLU111     -0.2457
     70  N         11.8020   -8.2390  -31.7330 N.3   114  ASN114     -0.1225
     71  CA        11.4140   -9.6470  -31.7980 C.3   114  ASN114      0.1785
     72  C         10.6560   -9.9440  -33.0910 C.2   114  ASN114      0.2597
     73  O          9.5360  -10.4610  -33.0870 O.2   114  ASN114     -0.2718
     74  CB        10.6160  -10.0670  -30.5600 C.3   114  ASN114      0.1169
     75  CG        10.5190  -11.5720  -30.4090 C.2   114  ASN114      0.2627
     76  OD1       11.4610  -12.2990  -30.7190 O.2   114  ASN114     -0.2716
     77  ND2        9.3740  -12.0470  -29.9330 N.am  114  ASN114     -0.0877
     78  N         11.2750   -9.5860  -34.2120 N.am  115  ILE115     -0.1966
     79  CA        10.6780   -9.7920  -35.5270 C.3   115  ILE115      0.1727
     80  C         10.8040  -11.2750  -35.8630 C.2   115  ILE115      0.2616
     81  O         11.8980  -11.7660  -36.1480 O.2   115  ILE115     -0.2715
     82  CB        11.3490   -8.9070  -36.5820 C.3   115  ILE115      0.0290
     83  CG1       11.4340   -7.4680  -36.0640 C.3   115  ILE115      0.0022
     84  CG2       10.5700   -8.9430  -37.8780 C.3   115  ILE115      0.0023
     85  CD1       11.9160   -6.4590  -37.0810 C.3   115  ILE115      0.0001
     86  N          9.6800  -11.9920  -35.8310 N.am  116  ILE116     -0.1977
     87  CA         9.6710  -13.4510  -35.7130 C.3   116  ILE116      0.1596
     88  C          9.2770  -14.1390  -37.0200 C.2   116  ILE116      0.2287
     89  O         10.0080  -14.9930  -37.5250 O.2   116  ILE116     -0.2864
     90  CB         8.7920  -13.9180  -34.5310 C.3   116  ILE116      0.0276
     91  CG1        9.5200  -13.6770  -33.2070 C.3   116  ILE116      0.0022
     92  CG2        8.4060  -15.3830  -34.6850 C.3   116  ILE116      0.0022
     93  CD1       10.9270  -14.2420  -33.1780 C.3   116  ILE116      0.0001
     94  N         15.3450  -13.0430  -46.1060 N.3   142  GLY142     -0.1210
     95  CA        15.1050  -14.1220  -45.1770 C.3   142  GLY142      0.1956
     96  C         15.4640  -13.8320  -43.7370 C.2   142  GLY142      0.2613
     97  O         15.2040  -14.6780  -42.8730 O.2   142  GLY142     -0.2717
     98  N         16.0470  -12.6740  -43.4470 N.am  143  SER143     -0.1938
     99  CA        16.3800  -12.3100  -42.0800 C.3   143  SER143      0.2055
    100  C         15.8550  -10.9170  -41.7720 C.2   143  SER143      0.2643
    101  O         15.8350  -10.0340  -42.6330 O.2   143  SER143     -0.2714
    102  CB        17.8870  -12.3550  -41.8210 C.3   143  SER143      0.2130
    103  OG        18.5320  -11.2380  -42.3960 O.3   143  SER143     -0.2179
    104  N         15.4210  -10.7350  -40.5240 N.am  144  ALA144     -0.1963
    105  CA        14.8860   -9.4470  -40.1050 C.3   144  ALA144      0.1728
    106  C         15.9600   -8.3700  -40.1300 C.2   144  ALA144      0.2616
    107  O         15.6880   -7.2210  -40.4970 O.2   144  ALA144     -0.2715
    108  CB        14.2790   -9.5680  -38.7100 C.3   144  ALA144      0.0334
    109  N         17.1900   -8.7240  -39.7490 N.am  145  GLU145     -0.1977
    110  CA        18.2540   -7.7290  -39.6560 C.3   145  GLU145      0.1602
    111  C         18.7180   -7.2710  -41.0330 C.2   145  GLU145      0.2287
    112  O         18.9780   -6.0800  -41.2390 O.2   145  GLU145     -0.2864
    113  CB        19.4160   -8.2470  -38.7990 C.3   145  GLU145      0.0415
    114  CG        19.6740   -9.7430  -38.8730 C.3   145  GLU145      0.1163
    115  CD        18.6980  -10.5600  -38.0380 C.2   145  GLU145      0.3649
    116  OE1       18.7050  -10.4350  -36.7940 O.co2 145  GLU145     -0.2457
    117  OE2       17.9120  -11.3210  -38.6360 O.co2 145  GLU145     -0.2457
@<TRIPOS>BOND
     1    94    95    1
     2    95    96    1
     3    20    19    2
     4    17    16    2
     5     9     8    2
     6    31    30    2
     7    14    15    1
     8    30    29    1
     9     1     2    1
    10    19    21   am
    11    19    18    1
    12    96    98   am
    13    96    97    2
    14     8     7    1
    15    16    15    1
    16    16    22   am
    17    25    24    2
    18    98    99    1
    19    15    18    1
    20    24    23    1
    21    24    28   am
    22    23    22    1
    23    23    26    1
    24    12    10    1
    25    29    28    1
    26    29    32    1
    27     6     7    1
    28     6     3   am
    29   101   100    2
    30     2     3    1
    31     2     5    1
    32   103   102    1
    33     7    10    1
    34    37    36    1
    35    38    36    1
    36    99   102    1
    37    99   100    1
    38    32    33    1
    39     3     4    2
    40   100   104   am
    41    10    11    1
    42    26    27    1
    43    36    35    2
    44   112   111    2
    45   111   110    1
    46    46    45   ar
    47    11    13    1
    48    35    34    1
    49   104   105    1
    50    33    34    1
    51   107   106    2
    52    45    47   ar
    53    45    44    1
    54   106   105    1
    55   106   109   am
    56   105   108    1
    57    43    44    1
    58    43    40    1
    59   109   110    1
    60   110   113    1
    61    39    40    1
    62    40    41    1
    63   114   113    1
    64   114   115    1
    65   117   115   ar
    66   115   116   ar
    67    84    82    1
    68    41    42    2
    69    89    88    2
    70    85    83    1
    71    54    53    2
    72    88    87    1
    73    82    83    1
    74    82    79    1
    75    81    80    2
    76    48    49    1
    77    53    55   am
    78    53    52    1
    79    80    86   am
    80    80    79    1
    81    86    87    1
    82    60    57    1
    83    87    90    1
    84    79    78    1
    85    49    52    1
    86    49    50    1
    87    57    56    1
    88    57    58    1
    89    92    90    1
    90    90    91    1
    91    78    72   am
    92    50    51    2
    93    58    59    2
    94    58    61   am
    95    91    93    1
    96    72    73    2
    97    72    71    1
    98    61    62    1
    99    71    70    1
   100    71    74    1
   101    62    65    1
   102    62    63    1
   103    76    75    2
   104    65    66    1
   105    74    75    1
   106    63    64    2
   107    75    77   am
   108    66    67    1
   109    68    67   ar
   110    67    69   ar
