@<TRIPOS>MOLECULE
tmp/6cj6C02.pdb
 88 83 0 0 0
SMALL
GASTEIGER

@<TRIPOS>ATOM
      1  N        -13.4380  -20.8890  -25.0900 N.3    29  THR29      -0.1218
      2  CA       -13.6400  -21.0810  -26.5210 C.3    29  THR29       0.1862
      3  C        -13.1400  -19.8950  -27.3410 C.2    29  THR29       0.2287
      4  O        -13.6340  -19.6460  -28.4450 O.2    29  THR29      -0.2866
      5  CB       -15.1130  -21.3550  -26.8280 C.3    29  THR29       0.1770
      6  OG1      -15.8850  -20.1630  -26.6190 O.3    29  THR29      -0.2211
      7  CG2      -15.6550  -22.4570  -25.9300 C.3    29  THR29       0.0375
      8  N        -11.9600  -17.6710  -29.8410 N.3    31  ALA31      -0.1231
      9  CA       -11.4670  -17.6700  -31.2080 C.3    31  ALA31       0.1694
     10  C        -10.5370  -16.4990  -31.4830 C.2    31  ALA31       0.2591
     11  O         -9.7870  -16.5400  -32.4630 O.2    31  ALA31      -0.2718
     12  CB       -12.6360  -17.6390  -32.1930 C.3    31  ALA31       0.0304
     13  N        -10.5690  -15.4650  -30.6440 N.am   32  ILE32      -0.1980
     14  CA        -9.7400  -14.2810  -30.8200 C.3    32  ILE32       0.1595
     15  C         -9.1650  -13.8870  -29.4660 C.2    32  ILE32       0.2287
     16  O         -9.7640  -14.1420  -28.4160 O.2    32  ILE32      -0.2864
     17  CB       -10.5390  -13.1160  -31.4490 C.3    32  ILE32       0.0276
     18  CG1       -9.6090  -12.1700  -32.2080 C.3    32  ILE32       0.0022
     19  CG2      -11.2950  -12.3410  -30.3890 C.3    32  ILE32       0.0022
     20  CD1       -9.7980  -12.2270  -33.7030 C.3    32  ILE32       0.0001
     21  N        -17.4790  -15.6040  -24.7860 N.3    53  MET53      -0.1230
     22  CA       -18.8390  -16.0730  -24.9570 C.3    53  MET53       0.1702
     23  C        -18.9640  -16.8360  -26.2690 C.2    53  MET53       0.2593
     24  O        -18.1240  -16.7280  -27.1640 O.2    53  MET53      -0.2718
     25  CB       -19.7950  -14.8820  -24.9550 C.3    53  MET53       0.0401
     26  CG       -19.4970  -13.8800  -23.8550 C.3    53  MET53       0.0596
     27  SD       -19.8510  -14.5450  -22.2200 S.3    53  MET53      -0.1393
     28  CE       -21.6280  -14.3440  -22.1880 C.3    53  MET53       0.0692
     29  N        -20.0410  -17.6130  -26.3780 N.am   54  SER54      -0.1938
     30  CA       -20.1830  -18.5090  -27.5200 C.3    54  SER54       0.2055
     31  C        -20.5210  -17.7550  -28.7990 C.2    54  SER54       0.2643
     32  O        -20.2180  -18.2370  -29.8950 O.2    54  SER54      -0.2714
     33  CB       -21.2260  -19.5840  -27.2270 C.3    54  SER54       0.2130
     34  OG       -22.5070  -19.0110  -27.0370 O.3    54  SER54      -0.2179
     35  N        -21.1390  -16.5820  -28.6900 N.am   55  ASN55      -0.1957
     36  CA       -21.5080  -15.8290  -29.8790 C.3    55  ASN55       0.1819
     37  C        -21.5120  -14.3400  -29.5630 C.2    55  ASN55       0.2622
     38  O        -21.7690  -13.9270  -28.4270 O.2    55  ASN55      -0.2715
     39  CB       -22.8590  -16.2790  -30.4550 C.3    55  ASN55       0.1195
     40  CG       -24.0200  -16.0200  -29.5130 C.2    55  ASN55       0.2630
     41  OD1      -24.8960  -15.2060  -29.8020 O.2    55  ASN55      -0.2716
     42  ND2      -24.0420  -16.7250  -28.3850 N.am   55  ASN55      -0.0877
     43  N        -21.2220  -13.5370  -30.5890 N.am   56  SER56      -0.1950
     44  CA       -21.1530  -12.0930  -30.3990 C.3    56  SER56       0.1924
     45  C        -22.5320  -11.4790  -30.1850 C.2    56  SER56       0.2314
     46  O        -22.6470  -10.4510  -29.5100 O.2    56  SER56      -0.2863
     47  CB       -20.4300  -11.4370  -31.5760 C.3    56  SER56       0.2116
     48  OG       -21.1280  -11.6380  -32.7900 O.3    56  SER56      -0.2180
     49  N        -10.0550   -9.5230  -38.9550 N.3   113  ILE113     -0.1231
     50  CA        -9.5850   -9.7890  -37.5980 C.3   113  ILE113      0.1692
     51  C         -9.8300  -11.2650  -37.3020 C.2   113  ILE113      0.2591
     52  O        -10.9740  -11.6910  -37.1260 O.2   113  ILE113     -0.2718
     53  CB       -10.2860   -8.8870  -36.5780 C.3   113  ILE113      0.0266
     54  CG1      -10.2810   -7.4370  -37.0660 C.3   113  ILE113      0.0019
     55  CG2       -9.5950   -8.9780  -35.2290 C.3   113  ILE113      0.0020
     56  CD1      -10.9200   -6.4630  -36.0990 C.3   113  ILE113      0.0001
     57  N         -8.7520  -12.0510  -37.2340 N.am  114  ILE114     -0.1980
     58  CA        -8.8380  -13.5030  -37.3110 C.3   114  ILE114      0.1595
     59  C         -8.3260  -14.1940  -36.0510 C.2   114  ILE114      0.2287
     60  O         -8.9460  -15.1510  -35.5720 O.2   114  ILE114     -0.2864
     61  CB        -8.1460  -14.0510  -38.5810 C.3   114  ILE114      0.0276
     62  CG1       -9.1130  -13.9870  -39.7670 C.3   114  ILE114      0.0022
     63  CG2       -7.6310  -15.4700  -38.3690 C.3   114  ILE114      0.0022
     64  CD1       -8.5750  -14.6030  -41.0370 C.3   114  ILE114      0.0001
     65  N        -14.0890  -13.0500  -26.9520 N.3   140  GLY140     -0.1210
     66  CA       -13.8600  -14.1090  -27.9070 C.3   140  GLY140      0.1956
     67  C        -14.1840  -13.7730  -29.3430 C.2   140  GLY140      0.2613
     68  O        -13.8320  -14.5560  -30.2350 O.2   140  GLY140     -0.2717
     69  N        -14.8360  -12.6430  -29.6040 N.am  141  SER141     -0.1938
     70  CA       -15.1910  -12.2640  -30.9620 C.3   141  SER141      0.2055
     71  C        -14.6210  -10.8940  -31.2960 C.2   141  SER141      0.2643
     72  O        -14.6130   -9.9900  -30.4570 O.2   141  SER141     -0.2714
     73  CB       -16.7110  -12.2930  -31.1930 C.3   141  SER141      0.2130
     74  OG       -17.3670  -11.2180  -30.5460 O.3   141  SER141     -0.2179
     75  N        -14.1270  -10.7570  -32.5290 N.am  142  ALA142     -0.1963
     76  CA       -13.6420   -9.4640  -32.9940 C.3   142  ALA142      0.1728
     77  C        -14.7650   -8.4420  -33.0500 C.2   142  ALA142      0.2616
     78  O        -14.5330   -7.2470  -32.8260 O.2   142  ALA142     -0.2715
     79  CB       -13.0160   -9.6170  -34.3780 C.3   142  ALA142      0.0334
     80  N        -15.9820   -8.8930  -33.3510 N.am  143  GLU143     -0.1977
     81  CA       -17.1210   -7.9870  -33.4440 C.3   143  GLU143      0.1602
     82  C        -17.4540   -7.3850  -32.0850 C.2   143  GLU143      0.2287
     83  O        -17.6000   -6.1630  -31.9540 O.2   143  GLU143     -0.2864
     84  CB       -18.3290   -8.7310  -34.0200 C.3   143  GLU143      0.0415
     85  CG       -18.1360   -9.2500  -35.4430 C.3   143  GLU143      0.1163
     86  CD       -17.3220  -10.5330  -35.5130 C.2   143  GLU143      0.3649
     87  OE1      -16.9250  -11.0570  -34.4530 O.co2 143  GLU143     -0.2457
     88  OE2      -17.0780  -11.0180  -36.6360 O.co2 143  GLU143     -0.2457
@<TRIPOS>BOND
     1    64    62    1
     2    62    61    1
     3    49    50    1
     4    61    63    1
     5    61    58    1
     6    50    51    1
     7    50    53    1
     8    58    57    1
     9    58    59    1
    10    51    57   am
    11    51    52    2
    12    54    53    1
    13    54    56    1
    14    88    86   ar
    15    53    55    1
    16    59    60    2
    17    86    85    1
    18    86    87   ar
    19    85    84    1
    20    79    76    1
    21    84    81    1
    22    20    18    1
    23    81    80    1
    24    81    82    1
    25    80    77   am
    26    77    76    1
    27    77    78    2
    28    76    75    1
    29    48    47    1
    30    75    71   am
    31    11    10    2
    32    18    17    1
    33    12     9    1
    34    82    83    2
    35    47    44    1
    36    10     9    1
    37    10    13   am
    38    17    14    1
    39    17    19    1
    40    71    70    1
    41    71    72    2
    42     9     8    1
    43    73    70    1
    44    73    74    1
    45    70    69    1
    46    14    13    1
    47    14    15    1
    48    43    44    1
    49    43    37   am
    50    39    36    1
    51    39    40    1
    52    44    45    1
    53    68    67    2
    54    45    46    2
    55    32    31    2
    56    36    37    1
    57    36    35    1
    58    41    40    2
    59    69    67   am
    60    37    38    2
    61    40    42   am
    62    15    16    2
    63    67    66    1
    64    31    35   am
    65    31    30    1
    66     4     3    2
    67    66    65    1
    68    30    33    1
    69    30    29    1
    70     3     2    1
    71    33    34    1
    72    24    23    2
    73     5     6    1
    74     5     2    1
    75     5     7    1
    76     2     1    1
    77    29    23   am
    78    23    22    1
    79    22    25    1
    80    22    21    1
    81    25    26    1
    82    26    27    1
    83    27    28    1
