@<TRIPOS>MOLECULE
tmp/6cjfB02.pdb
 188 179 0 0 0
SMALL
GASTEIGER

@<TRIPOS>ATOM
      1  N         28.4390   -3.1760    9.3360 N.3     3  TYR3       -0.1241
      2  CA        29.4850   -2.7090    8.4320 C.3     3  TYR3        0.1605
      3  C         30.0300   -1.3670    8.8910 C.2     3  TYR3        0.2264
      4  O         31.2470   -1.1650    8.9560 O.2     3  TYR3       -0.2867
      5  CB        28.9530   -2.6070    7.0000 C.3     3  TYR3        0.0534
      6  CG        28.8590   -3.9280    6.2890 C.ar    3  TYR3       -0.0201
      7  CD1       27.7710   -4.7650    6.4780 C.ar    3  TYR3       -0.0009
      8  CD2       29.8610   -4.3430    5.4230 C.ar    3  TYR3       -0.0009
      9  CE1       27.6890   -5.9820    5.8290 C.ar    3  TYR3        0.0417
     10  CE2       29.7860   -5.5570    4.7710 C.ar    3  TYR3        0.0417
     11  CZ        28.6990   -6.3710    4.9780 C.ar    3  TYR3        0.1957
     12  OH        28.6100   -7.5820    4.3360 O.3     3  TYR3       -0.2866
     13  N         33.8580   -2.4250    8.5090 N.3     8  MET8       -0.1245
     14  CA        34.7000   -1.5600    7.6890 C.3     8  MET8        0.1570
     15  C         35.8150   -0.9120    8.5070 C.2     8  MET8        0.2261
     16  O         36.9510   -0.8380    8.0310 O.2     8  MET8       -0.2867
     17  CB        33.8590   -0.4950    6.9710 C.3     8  MET8        0.0387
     18  CG        32.7650   -1.0740    6.0860 C.3     8  MET8        0.0595
     19  SD        33.2800   -2.3370    4.9000 S.3     8  MET8       -0.1393
     20  CE        34.1740   -1.3590    3.6820 C.3     8  MET8        0.0692
     21  N         38.5960   -3.5450    8.8160 N.3    11  LEU11      -0.1231
     22  CA        39.3840   -3.6630    7.5910 C.3    11  LEU11       0.1693
     23  C         40.2970   -2.4560    7.3990 C.2    11  LEU11       0.2591
     24  O         41.4510   -2.5990    6.9710 O.2    11  LEU11      -0.2718
     25  CB        38.4570   -3.8280    6.3810 C.3    11  LEU11       0.0284
     26  CG        37.6440   -5.1150    6.2290 C.3    11  LEU11       0.0019
     27  CD1       36.6470   -4.9730    5.0690 C.3    11  LEU11       0.0001
     28  CD2       38.5490   -6.3180    5.9880 C.3    11  LEU11       0.0001
     29  N         39.7930   -1.2520    7.6910 N.am   12  GLN12      -0.1979
     30  CA        40.6120   -0.0610    7.5080 C.3    12  GLN12       0.1601
     31  C         41.7980   -0.0410    8.4650 C.2    12  GLN12       0.2287
     32  O         42.8770    0.4420    8.1040 O.2    12  GLN12      -0.2864
     33  CB        39.7470    1.1920    7.6670 C.3    12  GLN12       0.0394
     34  CG        38.7740    1.3870    6.5010 C.3    12  GLN12       0.0908
     35  CD        37.9150    2.6280    6.6480 C.2    12  GLN12       0.2608
     36  OE1       37.7150    3.1330    7.7530 O.2    12  GLN12      -0.2717
     37  NE2       37.4080    3.1330    5.5300 N.am   12  GLN12      -0.0878
     38  N         45.1210    1.3730    2.4080 N.3    17  PRO17      -0.2116
     39  CA        43.9640    1.4790    1.5020 C.3    17  PRO17       0.1372
     40  C         44.1500    0.8050    0.1440 C.2    17  PRO17       0.2244
     41  O         43.1830    0.2310   -0.3760 O.2    17  PRO17      -0.2868
     42  CB        43.7470    2.9950    1.3800 C.3    17  PRO17       0.0268
     43  CG        44.9110    3.6430    2.0190 C.3    17  PRO17       0.0207
     44  CD        45.5590    2.6720    2.9390 C.3    17  PRO17       0.0892
     45  N         43.5200   -2.8350    0.7250 N.3    20  ALA20      -0.1231
     46  CA        42.1000   -3.1040    0.9380 C.3    20  ALA20       0.1694
     47  C         41.3290   -2.9880   -0.3740 C.2    20  ALA20       0.2592
     48  O         40.4150   -3.7780   -0.6390 O.2    20  ALA20      -0.2718
     49  CB        41.5240   -2.1530    1.9830 C.3    20  ALA20       0.0304
     50  N         41.7030   -2.0170   -1.2090 N.am   21  HIS21      -0.1976
     51  CA        41.1200   -1.8880   -2.5430 C.3    21  HIS21       0.1656
     52  C         41.2910   -3.1760   -3.3560 C.2    21  HIS21       0.2291
     53  O         40.3300   -3.6880   -3.9480 O.2    21  HIS21      -0.2864
     54  CB        41.7780   -0.7070   -3.2560 C.3    21  HIS21       0.0771
     55  CG        41.1920   -0.3910   -4.5910 C.ar   21  HIS21       0.0820
     56  ND1       41.7510    0.5490   -5.4300 N.ar   21  HIS21      -0.2267
     57  CD2       40.1030   -0.8750   -5.2340 C.ar   21  HIS21       0.1154
     58  CE1       41.0260    0.6300   -6.5330 C.ar   21  HIS21       0.1986
     59  NE2       40.0240   -0.2250   -6.4410 N.ar   21  HIS21      -0.2212
     60  N         41.8920   -6.2520   -2.2750 N.3    23  LEU23      -0.1231
     61  CA        41.0690   -7.2950   -1.6730 C.3    23  LEU23       0.1693
     62  C         39.5970   -7.0990   -2.0050 C.2    23  LEU23       0.2591
     63  O         38.8920   -8.0660   -2.3290 O.2    23  LEU23      -0.2718
     64  CB        41.2820   -7.3120   -0.1620 C.3    23  LEU23       0.0284
     65  CG        40.7760   -8.5210    0.6160 C.3    23  LEU23       0.0019
     66  CD1       41.6290   -9.7530    0.3060 C.3    23  LEU23       0.0001
     67  CD2       40.7910   -8.1990    2.1010 C.3    23  LEU23       0.0001
     68  N         39.1220   -5.8500   -1.9550 N.am   24  ALA24      -0.1980
     69  CA        37.7130   -5.5740   -2.2250 C.3    24  ALA24       0.1597
     70  C         37.3330   -5.9810   -3.6380 C.2    24  ALA24       0.2287
     71  O         36.2600   -6.5550   -3.8530 O.2    24  ALA24      -0.2864
     72  CB        37.3990   -4.0920   -2.0030 C.3    24  ALA24       0.0319
     73  N         37.3790   -9.9220   -3.8300 N.3    27  PHE27      -0.1227
     74  CA        36.2360  -10.5100   -3.1460 C.3    27  PHE27       0.1736
     75  C         34.9470  -10.2580   -3.9130 C.2    27  PHE27       0.2596
     76  O         34.1070  -11.1570   -4.0370 O.2    27  PHE27      -0.2718
     77  CB        36.1070   -9.9730   -1.7290 C.3    27  PHE27       0.0547
     78  CG        35.0760  -10.6960   -0.9310 C.ar   27  PHE27      -0.0202
     79  CD1       35.4110  -11.8390   -0.2290 C.ar   27  PHE27      -0.0042
     80  CD2       33.7550  -10.2710   -0.9290 C.ar   27  PHE27      -0.0042
     81  CE1       34.4580  -12.5240    0.4930 C.ar   27  PHE27      -0.0003
     82  CE2       32.7960  -10.9540   -0.2090 C.ar   27  PHE27      -0.0003
     83  CZ        33.1490  -12.0840    0.5000 C.ar   27  PHE27      -0.0000
     84  N         34.7680   -9.0330   -4.4190 N.am   28  THR28      -0.1953
     85  CA        33.5640   -8.7040   -5.1800 C.3    28  THR28       0.1897
     86  C         33.4390   -9.5860   -6.4100 C.2    28  THR28       0.2313
     87  O         32.3290   -9.9870   -6.7870 O.2    28  THR28      -0.2863
     88  CB        33.5900   -7.2250   -5.5860 C.3    28  THR28       0.1794
     89  OG1       33.5930   -6.4100   -4.4120 O.3    28  THR28      -0.2208
     90  CG2       32.3830   -6.8730   -6.4570 C.3    28  THR28       0.0378
     91  N         37.1460    2.0580   -9.1930 N.3    56  PHE56      -0.1241
     92  CA        37.0470    0.9400   -8.2630 C.3    56  PHE56       0.1605
     93  C         37.4450   -0.3490   -8.9700 C.2    56  PHE56       0.2264
     94  O         38.3950   -1.0210   -8.5570 O.2    56  PHE56      -0.2867
     95  CB        35.6380    0.8040   -7.6680 C.3    56  PHE56       0.0534
     96  CG        35.5310   -0.3610   -6.7230 C.ar   56  PHE56      -0.0203
     97  CD1       36.0950   -0.2830   -5.4590 C.ar   56  PHE56      -0.0042
     98  CD2       34.9600   -1.5600   -7.1260 C.ar   56  PHE56      -0.0042
     99  CE1       36.0540   -1.3800   -4.5890 C.ar   56  PHE56      -0.0003
    100  CE2       34.8940   -2.6570   -6.2610 C.ar   56  PHE56      -0.0003
    101  CZ        35.4500   -2.5690   -4.9970 C.ar   56  PHE56      -0.0000
    102  N         25.7440   -6.3170   -6.2680 N.3    69  MET69      -0.1245
    103  CA        25.7180   -5.4440   -5.1030 C.3    69  MET69       0.1570
    104  C         24.5500   -4.4650   -5.1550 C.2    69  MET69       0.2261
    105  O         24.2160   -3.8530   -4.1340 O.2    69  MET69      -0.2867
    106  CB        27.0490   -4.6980   -5.0080 C.3    69  MET69       0.0387
    107  CG        27.4110   -4.2070   -3.6390 C.3    69  MET69       0.0595
    108  SD        29.0930   -3.5570   -3.6980 S.3    69  MET69      -0.1393
    109  CE        30.0270   -5.0490   -4.0170 C.3    69  MET69       0.0692
    110  N         47.5720    6.0010   -2.1750 N.3    92  VAL92      -0.1245
    111  CA        46.1910    6.1170   -1.7070 C.3    92  VAL92       0.1561
    112  C         46.2350    6.4010   -0.2110 C.2    92  VAL92       0.2260
    113  O         46.9850    5.7480    0.5260 O.2    92  VAL92      -0.2867
    114  CB        45.3710    4.8370   -1.9780 C.3    92  VAL92       0.0252
    115  CG1       43.8920    5.0800   -1.6280 C.3    92  VAL92       0.0019
    116  CG2       45.5330    4.3640   -3.4100 C.3    92  VAL92       0.0019
    117  N         43.8660    7.5290    3.3950 N.3    94  ARG94      -0.1245
    118  CA        42.5790    7.6300    4.0590 C.3    94  ARG94       0.1563
    119  C         42.5130    8.8750    4.9370 C.2    94  ARG94       0.2260
    120  O         43.4740    9.2140    5.6300 O.2    94  ARG94      -0.2867
    121  CB        42.3480    6.3740    4.9080 C.3    94  ARG94       0.0307
    122  CG        40.9140    5.8770    4.9620 C.3    94  ARG94       0.0489
    123  CD        40.7910    4.6210    5.8360 C.3    94  ARG94       0.2205
    124  NE        41.2410    3.3950    5.1730 N.pl3  94  ARG94      -0.0865
    125  CZ        42.3120    2.6830    5.5280 C.cat  94  ARG94       0.5346
    126  NH1       43.0840    3.0790    6.5360 N.pl3  94  ARG94       0.1354
    127  NH2       42.6210    1.5690    4.8790 N.pl3  94  ARG94       0.1354
    128  N         39.0030   10.2910    0.9270 N.3   101  VAL101     -0.1245
    129  CA        40.1980    9.6130    0.4380 C.3   101  VAL101      0.1561
    130  C         40.9480   10.5860   -0.4610 C.2   101  VAL101      0.2260
    131  O         40.3460   11.4310   -1.1300 O.2   101  VAL101     -0.2867
    132  CB        39.8450    8.3150   -0.3270 C.3   101  VAL101      0.0252
    133  CG1       41.0550    7.7710   -1.0920 C.3   101  VAL101      0.0019
    134  CG2       39.3120    7.2460    0.6480 C.3   101  VAL101      0.0019
    135  N         43.8160   10.1420   -3.5460 N.3   103  ASN103     -0.1240
    136  CA        44.5580    9.1760   -4.3450 C.3   103  ASN103      0.1653
    137  C         45.3690    9.8570   -5.4380 C.2   103  ASN103      0.2266
    138  O         44.9780   10.8950   -5.9850 O.2   103  ASN103     -0.2867
    139  CB        43.6320    8.1320   -4.9910 C.3   103  ASN103      0.1155
    140  CG        43.0670    8.6060   -6.3030 C.2   103  ASN103      0.2627
    141  OD1       43.6830    8.4080   -7.3610 O.2   103  ASN103     -0.2716
    142  ND2       41.9030    9.2670   -6.2490 N.am  103  ASN103     -0.0877
    143  N         46.8490    7.4940   -7.9080 N.3   105  TYR105     -0.1241
    144  CA        47.1690    6.2150   -8.5380 C.3   105  TYR105      0.1605
    145  C         47.9950    6.4070   -9.8080 C.2   105  TYR105      0.2264
    146  O         48.9210    5.6320  -10.0710 O.2   105  TYR105     -0.2867
    147  CB        45.8790    5.4450   -8.8580 C.3   105  TYR105      0.0534
    148  CG        45.5040    4.3380   -7.8980 C.ar  105  TYR105     -0.0201
    149  CD1       46.3490    3.2510   -7.6920 C.ar  105  TYR105     -0.0009
    150  CD2       44.2720    4.3490   -7.2370 C.ar  105  TYR105     -0.0009
    151  CE1       45.9870    2.2130   -6.8300 C.ar  105  TYR105      0.0417
    152  CE2       43.9020    3.3170   -6.3760 C.ar  105  TYR105      0.0417
    153  CZ        44.7620    2.2600   -6.1720 C.ar  105  TYR105      0.1957
    154  OH        44.4100    1.2370   -5.3290 O.3   105  TYR105     -0.2866
    155  N         31.6160    6.1160   -5.0330 N.3   306  TYR306     -0.1241
    156  CA        32.7810    5.2600   -4.8660 C.3   306  TYR306      0.1605
    157  C         33.2060    5.3120   -3.4060 C.2   306  TYR306      0.2264
    158  O         33.1290    4.3010   -2.6940 O.2   306  TYR306     -0.2867
    159  CB        33.9010    5.7090   -5.8210 C.3   306  TYR306      0.0534
    160  CG        35.1850    4.9040   -5.8120 C.ar  306  TYR306     -0.0201
    161  CD1       35.4760    3.9710   -4.8150 C.ar  306  TYR306     -0.0009
    162  CD2       36.1320    5.1050   -6.8080 C.ar  306  TYR306     -0.0009
    163  CE1       36.6840    3.2550   -4.8340 C.ar  306  TYR306      0.0417
    164  CE2       37.3270    4.4150   -6.8220 C.ar  306  TYR306      0.0417
    165  CZ        37.5990    3.4930   -5.8430 C.ar  306  TYR306      0.1957
    166  OH        38.8030    2.7980   -5.8750 O.3   306  TYR306     -0.2866
    167  N         31.4740    3.5740   -0.4580 N.3   309  LEU309     -0.1231
    168  CA        31.5720    2.1230   -0.3300 C.3   309  LEU309      0.1693
    169  C         32.7110    1.7230    0.5960 C.2   309  LEU309      0.2592
    170  O         32.6190    0.7010    1.2870 O.2   309  LEU309     -0.2718
    171  CB        31.7430    1.5020   -1.7210 C.3   309  LEU309      0.0284
    172  CG        31.8880   -0.0120   -1.8810 C.3   309  LEU309      0.0019
    173  CD1       30.5900   -0.7210   -1.5200 C.3   309  LEU309      0.0001
    174  CD2       32.2840   -0.3420   -3.3300 C.3   309  LEU309      0.0001
    175  N         33.7770    2.5300    0.6500 N.am  310  THR310     -0.1953
    176  CA        34.9310    2.1920    1.4810 C.3   310  THR310      0.1897
    177  C         34.6760    2.4160    2.9700 C.2   310  THR310      0.2313
    178  O         35.3850    1.8310    3.7980 O.2   310  THR310     -0.2863
    179  CB        36.1640    3.0010    1.0490 C.3   310  THR310      0.1794
    180  OG1       36.0520    4.3540    1.5140 O.3   310  THR310     -0.2208
    181  CG2       36.3250    2.9920   -0.4760 C.3   310  THR310      0.0378
    182  N         29.0020   -2.6000    1.2040 N.3   314  PRO314     -0.2116
    183  CA        27.9770   -2.8520    0.1770 C.3   314  PRO314      0.1372
    184  C         26.5870   -2.3910    0.5860 C.2   314  PRO314      0.2244
    185  O         25.7880   -2.0310   -0.2930 O.2   314  PRO314     -0.2868
    186  CB        28.0320   -4.3760   -0.0050 C.3   314  PRO314      0.0268
    187  CG        29.4810   -4.7070    0.2780 C.3   314  PRO314      0.0207
    188  CD        29.9160   -3.7530    1.3710 C.3   314  PRO314      0.0892
@<TRIPOS>BOND
     1   146   145    2
     2   145   144    1
     3    91    92    1
     4    93    94    2
     5    93    92    1
     6   147   144    1
     7   147   148    1
     8   144   143    1
     9    92    95    1
    10   148   149   ar
    11   148   150   ar
    12   149   151   ar
    13    95    96    1
    14   141   140    2
    15   150   152   ar
    16    98    96   ar
    17    98   100   ar
    18   151   153   ar
    19   164   162   ar
    20   164   165   ar
    21   162   160   ar
    22    87    86    2
    23    96    97   ar
    24    58    59   ar
    25    58    56   ar
    26    90    88    1
    27    59    57   ar
    28    86    85    1
    29   152   153   ar
    30   140   142   am
    31   140   139    1
    32   102   103    1
    33   100   101   ar
    34   153   154    1
    35   138   137    2
    36   166   165    1
    37   165   163   ar
    38   159   160    1
    39   159   156    1
    40   160   161   ar
    41    88    85    1
    42    88    89    1
    43    97    99   ar
    44   137   136    1
    45    56    55   ar
    46    57    55   ar
    47    85    84    1
    48   104   103    1
    49   104   105    2
    50   103   106    1
    51   155   156    1
    52   106   107    1
    53   101    99   ar
    54   139   136    1
    55   156   157    1
    56   163   161   ar
    57    55    54    1
    58    84    75   am
    59   136   135    1
    60    76    75    2
    61   109   108    1
    62    53    52    2
    63    75    74    1
    64    71    70    2
    65    73    74    1
    66   108   107    1
    67    70    69    1
    68   116   114    1
    69   157   158    2
    70    52    51    1
    71   174   172    1
    72    54    51    1
    73    74    77    1
    74    51    50    1
    75    63    62    2
    76    60    61    1
    77    69    72    1
    78    69    68    1
    79   110   111    1
    80    62    68   am
    81    62    61    1
    82   114   111    1
    83   114   115    1
    84   172   171    1
    85   172   173    1
    86    77    78    1
    87   171   168    1
    88   111   112    1
    89    61    64    1
    90    50    47   am
    91   131   130    2
    92   133   132    1
    93    78    80   ar
    94    78    79   ar
    95    80    82   ar
    96    48    47    2
    97   181   179    1
    98   130   129    1
    99   167   168    1
   100    41    40    2
   101    47    46    1
   102   168   169    1
   103   132   129    1
   104   132   134    1
   105   185   184    2
   106    79    81   ar
   107   112   113    2
   108    82    83   ar
   109    64    65    1
   110   186   183    1
   111   186   187    1
   112    40    39    1
   113   183   184    1
   114   183   182    1
   115   187   188    1
   116    66    65    1
   117   129   128    1
   118    81    83   ar
   119   169   175   am
   120   169   170    2
   121    65    67    1
   122   175   176    1
   123    45    46    1
   124    46    49    1
   125   179   176    1
   126   179   180    1
   127   182   188    1
   128    42    39    1
   129    42    43    1
   130   176   177    1
   131    39    38    1
   132    43    44    1
   133    38    44    1
   134   177   178    2
   135   117   118    1
   136    20    19    1
   137   118   121    1
   138   118   119    1
   139    12    11    1
   140    10    11   ar
   141    10     8   ar
   142   127   125    1
   143    19    18    1
   144   121   122    1
   145   119   120    2
   146   122   123    1
   147    11     9   ar
   148    27    26    1
   149   124   125    2
   150   124   123    1
   151     8     6   ar
   152   125   126    1
   153    37    35   am
   154     9     7   ar
   155    28    26    1
   156    18    17    1
   157    26    25    1
   158     6     7   ar
   159     6     5    1
   160    25    22    1
   161    34    35    1
   162    34    33    1
   163    35    36    2
   164    17    14    1
   165    24    23    2
   166     5     2    1
   167    23    22    1
   168    23    29   am
   169    30    33    1
   170    30    29    1
   171    30    31    1
   172    22    21    1
   173    14    15    1
   174    14    13    1
   175    16    15    2
   176    32    31    2
   177     2     3    1
   178     2     1    1
   179     3     4    2
