@<TRIPOS>MOLECULE
tmp/6cjgA03.pdb
 92 90 0 0 0
SMALL
GASTEIGER

@<TRIPOS>ATOM
      1  N         -7.8740   18.0710   -5.3690 N.3     1  ASP1       -0.1239
      2  CA        -8.3880   19.0900   -4.4460 C.3     1  ASP1        0.1674
      3  C         -7.3240   20.1390   -4.1010 C.2     1  ASP1        0.2266
      4  O         -7.5700   21.3370   -4.1910 O.2     1  ASP1       -0.2867
      5  CB        -8.9160   18.4450   -3.1570 C.3     1  ASP1        0.1410
      6  CG        -9.7630   19.4130   -2.3050 C.2     1  ASP1        0.3668
      7  OD1      -10.7070   20.0460   -2.8400 O.co2   1  ASP1       -0.2456
      8  OD2       -9.4810   19.5410   -1.0910 O.co2   1  ASP1       -0.2456
      9  N         -6.2920   20.8530   -7.5960 N.3     4  PHE4       -0.1227
     10  CA        -7.2600   21.6970   -8.2920 C.3     4  PHE4        0.1736
     11  C         -7.0170   23.1760   -8.0210 C.2     4  PHE4        0.2595
     12  O         -7.1420   24.0070   -8.9290 O.2     4  PHE4       -0.2718
     13  CB        -8.6890   21.3330   -7.8860 C.3     4  PHE4        0.0547
     14  CG        -9.7230   22.2660   -8.4520 C.ar    4  PHE4       -0.0202
     15  CD1       -9.9880   22.2760   -9.8200 C.ar    4  PHE4       -0.0042
     16  CD2      -10.4160   23.1410   -7.6360 C.ar    4  PHE4       -0.0042
     17  CE1      -10.9340   23.1370  -10.3600 C.ar    4  PHE4       -0.0003
     18  CE2      -11.3670   24.0150   -8.1710 C.ar    4  PHE4       -0.0003
     19  CZ       -11.6240   24.0100   -9.5340 C.ar    4  PHE4       -0.0000
     20  N         -6.7070   23.5260   -6.7700 N.am    5  TYR5       -0.1976
     21  CA        -6.5010   24.9260   -6.4270 C.3     5  TYR5        0.1639
     22  C         -5.2240   25.4530   -7.0580 C.2     5  TYR5        0.2290
     23  O         -5.2300   26.5000   -7.7150 O.2     5  TYR5       -0.2864
     24  CB        -6.4600   25.0970   -4.9120 C.3     5  TYR5        0.0560
     25  CG        -7.8200   25.2270   -4.2660 C.ar    5  TYR5       -0.0198
     26  CD1       -8.6250   24.1130   -4.0670 C.ar    5  TYR5       -0.0009
     27  CD2       -8.2940   26.4660   -3.8400 C.ar    5  TYR5       -0.0009
     28  CE1       -9.8630   24.2220   -3.4710 C.ar    5  TYR5        0.0417
     29  CE2       -9.5320   26.5890   -3.2370 C.ar    5  TYR5        0.0417
     30  CZ       -10.3150   25.4660   -3.0640 C.ar    5  TYR5        0.1957
     31  OH       -11.5500   25.5880   -2.4760 O.3     5  TYR5       -0.2866
     32  N         -8.0610   26.7600   -9.9640 N.3     9  LEU9       -0.1245
     33  CA        -8.8710   27.8170   -9.3690 C.3     9  LEU9        0.1561
     34  C         -8.0030   29.0230   -8.9860 C.2     9  LEU9        0.2260
     35  O         -8.3380   30.1690   -9.3110 O.2     9  LEU9       -0.2867
     36  CB        -9.6460   27.2990   -8.1580 C.3     9  LEU9        0.0270
     37  CG       -10.1720   28.4810   -7.3390 C.3     9  LEU9        0.0019
     38  CD1      -11.3980   29.0530   -7.9800 C.3     9  LEU9        0.0001
     39  CD2      -10.5430   28.0860   -5.9600 C.3     9  LEU9        0.0001
     40  N         -8.3790   32.9850  -10.5270 N.3    13  LEU13      -0.1245
     41  CA        -8.6610   34.1750   -9.7270 C.3    13  LEU13       0.1561
     42  C         -7.6060   35.2480   -9.9400 C.2    13  LEU13       0.2260
     43  O         -7.9300   36.4270  -10.1100 O.2    13  LEU13      -0.2867
     44  CB        -8.7340   33.8160   -8.2500 C.3    13  LEU13       0.0270
     45  CG       -10.0010   33.1050   -7.8000 C.3    13  LEU13       0.0019
     46  CD1       -9.8050   32.5420   -6.3960 C.3    13  LEU13       0.0001
     47  CD2      -11.1830   34.0770   -7.8740 C.3    13  LEU13       0.0001
     48  N        -14.5680   35.1740    1.5590 N.3    29  PHE29      -0.1241
     49  CA       -14.8260   33.7370    1.4870 C.3    29  PHE29       0.1605
     50  C        -14.4960   33.0580    2.8040 C.2    29  PHE29       0.2264
     51  O        -15.2490   32.2050    3.2910 O.2    29  PHE29      -0.2867
     52  CB       -14.0110   33.1040    0.3660 C.3    29  PHE29       0.0534
     53  CG       -14.5600   33.3660   -0.9920 C.ar   29  PHE29      -0.0203
     54  CD1      -15.8210   33.9310   -1.1470 C.ar   29  PHE29      -0.0042
     55  CD2      -13.8130   33.0720   -2.1220 C.ar   29  PHE29      -0.0042
     56  CE1      -16.3340   34.1880   -2.4080 C.ar   29  PHE29      -0.0003
     57  CE2      -14.3250   33.3230   -3.3910 C.ar   29  PHE29      -0.0003
     58  CZ       -15.5860   33.8820   -3.5310 C.ar   29  PHE29      -0.0000
     59  N        -16.5430   29.4610    3.3340 N.3    34  LEU34      -0.1231
     60  CA       -16.5230   28.7850    2.0360 C.3    34  LEU34       0.1693
     61  C        -15.1060   28.3090    1.7540 C.2    34  LEU34       0.2592
     62  O        -14.3380   28.9350    1.0210 O.2    34  LEU34      -0.2718
     63  CB       -17.0370   29.6930    0.9290 C.3    34  LEU34       0.0284
     64  CG       -18.5420   29.9300    0.8490 C.3    34  LEU34       0.0019
     65  CD1      -19.0930   30.5950    2.1010 C.3    34  LEU34       0.0001
     66  CD2      -18.8800   30.7450   -0.3780 C.3    34  LEU34       0.0001
     67  N        -14.7730   27.1630    2.3390 N.am   35  LEU35      -0.1966
     68  CA       -13.4330   26.6080    2.2880 C.3    35  LEU35       0.1713
     69  C        -13.4830   25.1500    1.8660 C.2    35  LEU35       0.2458
     70  O        -14.4830   24.4660    2.0930 O.2    35  LEU35      -0.2730
     71  CB       -12.7450   26.6980    3.6570 C.3    35  LEU35       0.0310
     72  CG       -12.6100   28.0730    4.3040 C.3    35  LEU35       0.0022
     73  CD1      -12.5380   27.9420    5.8270 C.3    35  LEU35       0.0001
     74  CD2      -11.3690   28.7420    3.7330 C.3    35  LEU35       0.0001
     75  N        -12.4150   24.6410    1.2750 N.am   36  PRO36      -0.2716
     76  CA       -12.3060   23.1850    1.1070 C.3    36  PRO36       0.1536
     77  C        -12.0940   22.4900    2.4500 C.2    36  PRO36       0.2598
     78  O        -12.1930   23.1340    3.5000 O.2    36  PRO36      -0.2715
     79  CB       -11.1050   23.0280    0.1620 C.3    36  PRO36       0.0310
     80  CG       -10.3330   24.2900    0.2840 C.3    36  PRO36       0.0237
     81  CD       -11.3090   25.3740    0.6330 C.3    36  PRO36       0.0939
     82  N        -11.7950   21.1900    2.4370 N.am   37  ARG37      -0.1978
     83  CA       -11.7140   20.4070    3.6720 C.3    37  ARG37       0.1597
     84  C        -10.2770   20.2260    4.1940 C.2    37  ARG37       0.2287
     85  O        -10.0130   20.3080    5.4100 O.2    37  ARG37      -0.2864
     86  CB       -12.3760   19.0420    3.4530 C.3    37  ARG37       0.0334
     87  CG       -13.8050   19.0860    2.9090 C.3    37  ARG37       0.0492
     88  CD       -14.8470   19.0560    4.0210 C.3    37  ARG37       0.2205
     89  NE       -14.8360   20.2700    4.8320 N.pl3  37  ARG37      -0.0865
     90  CZ       -15.3680   21.4240    4.4600 C.cat  37  ARG37       0.5346
     91  NH1      -15.9670   21.5300    3.2840 N.pl3  37  ARG37       0.1354
     92  NH2      -15.3310   22.4690    5.2720 N.pl3  37  ARG37       0.1354
@<TRIPOS>BOND
     1    40    41    1
     2    17    15   ar
     3    17    19   ar
     4    43    42    2
     5    32    33    1
     6    42    41    1
     7    15    14   ar
     8    41    44    1
     9    19    18   ar
    10    33    34    1
    11    33    36    1
    12    35    34    2
    13    12    11    2
    14    14    13    1
    15    14    16   ar
    16    10    11    1
    17    10    13    1
    18    10     9    1
    19    44    45    1
    20    18    16   ar
    21    36    37    1
    22    11    20   am
    23    38    37    1
    24    47    45    1
    25    45    46    1
    26    23    22    2
    27    37    39    1
    28    22    21    1
    29    20    21    1
    30    21    24    1
    31     1     2    1
    32    24    25    1
    33     2     3    1
    34     2     5    1
    35    25    26   ar
    36    25    27   ar
    37     4     3    2
    38    26    28   ar
    39    27    29   ar
    40    58    57   ar
    41    58    56   ar
    42    28    30   ar
    43    57    55   ar
    44    29    30   ar
    45     5     6    1
    46    30    31    1
    47     7     6   ar
    48    56    54   ar
    49     6     8   ar
    50    55    53   ar
    51    54    53   ar
    52    53    52    1
    53    66    64    1
    54    79    80    1
    55    79    76    1
    56    80    81    1
    57    52    49    1
    58    81    75    1
    59    64    63    1
    60    64    65    1
    61    63    60    1
    62    62    61    2
    63    76    75    1
    64    76    77    1
    65    75    69   am
    66    49    48    1
    67    49    50    1
    68    61    60    1
    69    61    67   am
    70    69    70    2
    71    69    68    1
    72    60    59    1
    73    68    67    1
    74    68    71    1
    75    82    77   am
    76    82    83    1
    77    77    78    2
    78    50    51    2
    79    87    86    1
    80    87    88    1
    81    91    90    1
    82    86    83    1
    83    71    72    1
    84    83    84    1
    85    74    72    1
    86    88    89    1
    87    84    85    2
    88    72    73    1
    89    90    89    2
    90    90    92    1
