@<TRIPOS>MOLECULE
tmp/6cjgA02.pdb
 222 215 0 0 0
SMALL
GASTEIGER

@<TRIPOS>ATOM
      1  N         -6.7070   23.5260   -6.7700 N.3     5  TYR5       -0.1241
      2  CA        -6.5010   24.9260   -6.4270 C.3     5  TYR5        0.1605
      3  C         -5.2240   25.4530   -7.0580 C.2     5  TYR5        0.2264
      4  O         -5.2300   26.5000   -7.7150 O.2     5  TYR5       -0.2867
      5  CB        -6.4600   25.0970   -4.9120 C.3     5  TYR5        0.0534
      6  CG        -7.8200   25.2270   -4.2660 C.ar    5  TYR5       -0.0201
      7  CD1       -8.6250   24.1130   -4.0670 C.ar    5  TYR5       -0.0009
      8  CD2       -8.2940   26.4660   -3.8400 C.ar    5  TYR5       -0.0009
      9  CE1       -9.8630   24.2220   -3.4710 C.ar    5  TYR5        0.0417
     10  CE2       -9.5320   26.5890   -3.2370 C.ar    5  TYR5        0.0417
     11  CZ       -10.3150   25.4660   -3.0640 C.ar    5  TYR5        0.1957
     12  OH       -11.5500   25.5880   -2.4760 O.3     5  TYR5       -0.2866
     13  N         -8.0610   26.7600   -9.9640 N.3     9  LEU9       -0.1231
     14  CA        -8.8710   27.8170   -9.3690 C.3     9  LEU9        0.1693
     15  C         -8.0030   29.0230   -8.9860 C.2     9  LEU9        0.2591
     16  O         -8.3380   30.1690   -9.3110 O.2     9  LEU9       -0.2718
     17  CB        -9.6460   27.2990   -8.1580 C.3     9  LEU9        0.0284
     18  CG       -10.1720   28.4810   -7.3390 C.3     9  LEU9        0.0019
     19  CD1      -11.3980   29.0530   -7.9800 C.3     9  LEU9        0.0001
     20  CD2      -10.5430   28.0860   -5.9600 C.3     9  LEU9        0.0001
     21  N         -6.8600   28.7950   -8.3180 N.am   10  MET10      -0.1979
     22  CA        -6.0230   29.9270   -7.9140 C.3    10  MET10       0.1605
     23  C         -5.4550   30.6960   -9.1000 C.2    10  MET10       0.2287
     24  O         -5.5560   31.9360   -9.1000 O.2    10  MET10      -0.2864
     25  CB        -4.9270   29.4450   -6.9640 C.3    10  MET10       0.0413
     26  CG        -5.4610   28.9580   -5.6310 C.3    10  MET10       0.0598
     27  SD        -6.4840   30.1980   -4.7890 S.3    10  MET10      -0.1393
     28  CE        -5.2880   31.3570   -4.1360 C.3    10  MET10       0.0692
     29  N         -8.3790   32.9850  -10.5270 N.3    13  LEU13      -0.1231
     30  CA        -8.6610   34.1750   -9.7270 C.3    13  LEU13       0.1693
     31  C         -7.6060   35.2480   -9.9400 C.2    13  LEU13       0.2591
     32  O         -7.9300   36.4270  -10.1100 O.2    13  LEU13      -0.2718
     33  CB        -8.7340   33.8160   -8.2500 C.3    13  LEU13       0.0284
     34  CG       -10.0010   33.1050   -7.8000 C.3    13  LEU13       0.0019
     35  CD1       -9.8050   32.5420   -6.3960 C.3    13  LEU13       0.0001
     36  CD2      -11.1830   34.0770   -7.8740 C.3    13  LEU13       0.0001
     37  N         -6.3320   34.8500   -9.9210 N.am   14  GLN14      -0.1979
     38  CA        -5.2510   35.7960  -10.1830 C.3    14  GLN14       0.1601
     39  C         -5.3820   36.4180  -11.5610 C.2    14  GLN14       0.2287
     40  O         -5.1620   37.6240  -11.7320 O.2    14  GLN14      -0.2864
     41  CB        -3.8970   35.1060  -10.0500 C.3    14  GLN14       0.0394
     42  CG        -3.4680   34.8970   -8.6240 C.3    14  GLN14       0.0908
     43  CD        -2.1250   34.2340   -8.5340 C.2    14  GLN14       0.2608
     44  OE1       -1.6180   33.7100   -9.5250 O.2    14  GLN14      -0.2717
     45  NE2       -1.5260   34.2620   -7.3470 N.am   14  GLN14      -0.0878
     46  N         -4.5470   42.0860   -7.2870 N.3    19  PRO19      -0.2116
     47  CA        -4.2230   41.4140   -6.0110 C.3    19  PRO19       0.1372
     48  C         -4.9600   41.9410   -4.7870 C.2    19  PRO19       0.2244
     49  O         -5.4450   41.1340   -3.9870 O.2    19  PRO19      -0.2868
     50  CB        -2.7020   41.6100   -5.8930 C.3    19  PRO19       0.0268
     51  CG        -2.3080   42.5100   -7.0140 C.3    19  PRO19       0.0207
     52  CD        -3.3330   42.3340   -8.0760 C.3    19  PRO19       0.0892
     53  N         -8.4420   40.6300   -4.9400 N.3    22  ALA22      -0.1231
     54  CA        -8.4300   39.2000   -4.6370 C.3    22  ALA22       0.1694
     55  C         -8.1680   38.9380   -3.1640 C.2    22  ALA22       0.2592
     56  O         -8.6660   37.9450   -2.6050 O.2    22  ALA22      -0.2718
     57  CB        -7.3730   38.4860   -5.4730 C.3    22  ALA22       0.0304
     58  N         -7.3670   39.8010   -2.5290 N.am   23  HIS23      -0.1976
     59  CA        -7.1850   39.7300   -1.0850 C.3    23  HIS23       0.1656
     60  C         -8.5200   39.9330   -0.3680 C.2    23  HIS23       0.2291
     61  O         -8.8820   39.1650    0.5350 O.2    23  HIS23      -0.2864
     62  CB        -6.1440   40.7730   -0.6490 C.3    23  HIS23       0.0771
     63  CG        -5.8010   40.7240    0.8120 C.ar   23  HIS23       0.0820
     64  ND1       -4.9480   41.6280    1.4070 N.ar   23  HIS23      -0.2267
     65  CD2       -6.1980   39.8810    1.7990 C.ar   23  HIS23       0.1154
     66  CE1       -4.8370   41.3480    2.6950 C.ar   23  HIS23       0.1986
     67  NE2       -5.5880   40.2930    2.9590 N.ar   23  HIS23      -0.2212
     68  N        -11.5630   39.4960   -1.4600 N.3    25  LEU25      -0.1231
     69  CA       -12.4890   38.3950   -1.6900 C.3    25  LEU25       0.1693
     70  C        -12.1140   37.1690   -0.8640 C.2    25  LEU25       0.2591
     71  O        -12.9860   36.5160   -0.2730 O.2    25  LEU25      -0.2718
     72  CB       -12.5230   38.0530   -3.1760 C.3    25  LEU25       0.0284
     73  CG       -13.7290   37.1850   -3.5300 C.3    25  LEU25       0.0019
     74  CD1      -15.0310   37.9840   -3.3350 C.3    25  LEU25       0.0001
     75  CD2      -13.5950   36.6290   -4.9410 C.3    25  LEU25       0.0001
     76  N        -10.8220   36.8350   -0.8310 N.am   26  ALA26      -0.1980
     77  CA       -10.3330   35.7850    0.0520 C.3    26  ALA26       0.1597
     78  C        -10.8380   35.9760    1.4770 C.2    26  ALA26       0.2287
     79  O        -11.3820   35.0460    2.0840 O.2    26  ALA26      -0.2864
     80  CB        -8.8110   35.7730    0.0210 C.3    26  ALA26       0.0319
     81  N        -14.5680   35.1740    1.5590 N.3    29  PHE29      -0.1227
     82  CA       -14.8260   33.7370    1.4870 C.3    29  PHE29       0.1736
     83  C        -14.4960   33.0580    2.8040 C.2    29  PHE29       0.2596
     84  O        -15.2490   32.2050    3.2910 O.2    29  PHE29      -0.2718
     85  CB       -14.0110   33.1040    0.3660 C.3    29  PHE29       0.0547
     86  CG       -14.5600   33.3660   -0.9920 C.ar   29  PHE29      -0.0202
     87  CD1      -15.8210   33.9310   -1.1470 C.ar   29  PHE29      -0.0042
     88  CD2      -13.8130   33.0720   -2.1220 C.ar   29  PHE29      -0.0042
     89  CE1      -16.3340   34.1880   -2.4080 C.ar   29  PHE29      -0.0003
     90  CE2      -14.3250   33.3230   -3.3910 C.ar   29  PHE29      -0.0003
     91  CZ       -15.5860   33.8820   -3.5310 C.ar   29  PHE29      -0.0000
     92  N        -13.3570   33.4180    3.3880 N.am   30  THR30      -0.1953
     93  CA       -12.9430   32.8070    4.6390 C.3    30  THR30       0.1897
     94  C        -13.8910   33.1920    5.7690 C.2    30  THR30       0.2313
     95  O        -14.2380   32.3580    6.6130 O.2    30  THR30      -0.2863
     96  CB       -11.5100   33.2280    4.9440 C.3    30  THR30       0.1794
     97  OG1      -10.7450   33.1880    3.7340 O.3    30  THR30      -0.2208
     98  CG2      -10.8820   32.2920    5.9560 C.3    30  THR30       0.0378
     99  N        -16.5430   29.4610    3.3340 N.3    34  LEU34      -0.1231
    100  CA       -16.5230   28.7850    2.0360 C.3    34  LEU34       0.1693
    101  C        -15.1060   28.3090    1.7540 C.2    34  LEU34       0.2592
    102  O        -14.3380   28.9350    1.0210 O.2    34  LEU34      -0.2718
    103  CB       -17.0370   29.6930    0.9290 C.3    34  LEU34       0.0284
    104  CG       -18.5420   29.9300    0.8490 C.3    34  LEU34       0.0019
    105  CD1      -19.0930   30.5950    2.1010 C.3    34  LEU34       0.0001
    106  CD2      -18.8800   30.7450   -0.3780 C.3    34  LEU34       0.0001
    107  N        -14.7730   27.1630    2.3390 N.am   35  LEU35      -0.1966
    108  CA       -13.4330   26.6080    2.2880 C.3    35  LEU35       0.1713
    109  C        -13.4830   25.1500    1.8660 C.2    35  LEU35       0.2458
    110  O        -14.4830   24.4660    2.0930 O.2    35  LEU35      -0.2730
    111  CB       -12.7450   26.6980    3.6570 C.3    35  LEU35       0.0310
    112  CG       -12.6100   28.0730    4.3040 C.3    35  LEU35       0.0022
    113  CD1      -12.5380   27.9420    5.8270 C.3    35  LEU35       0.0001
    114  CD2      -11.3690   28.7420    3.7330 C.3    35  LEU35       0.0001
    115  N        -12.4150   24.6410    1.2750 N.am   36  PRO36      -0.2727
    116  CA       -12.3060   23.1850    1.1070 C.3    36  PRO36       0.1402
    117  C        -12.0940   22.4900    2.4500 C.2    36  PRO36       0.2269
    118  O        -12.1930   23.1340    3.5000 O.2    36  PRO36      -0.2865
    119  CB       -11.1050   23.0280    0.1620 C.3    36  PRO36       0.0296
    120  CG       -10.3330   24.2900    0.2840 C.3    36  PRO36       0.0237
    121  CD       -11.3090   25.3740    0.6330 C.3    36  PRO36       0.0939
    122  N         -2.7890   39.2130    6.5810 N.3    63  PHE63      -0.1241
    123  CA        -3.8660   38.6500    5.7810 C.3    63  PHE63       0.1605
    124  C         -5.2360   39.0340    6.3420 C.2    63  PHE63       0.2264
    125  O         -6.1240   39.4740    5.5920 O.2    63  PHE63      -0.2867
    126  CB        -3.7400   37.1260    5.6780 C.3    63  PHE63       0.0534
    127  CG        -4.8670   36.4950    4.9080 C.ar   63  PHE63      -0.0203
    128  CD1       -4.9300   36.6200    3.5170 C.ar   63  PHE63      -0.0042
    129  CD2       -5.9070   35.8400    5.5740 C.ar   63  PHE63      -0.0042
    130  CE1       -5.9910   36.0660    2.8010 C.ar   63  PHE63      -0.0003
    131  CE2       -6.9800   35.2810    4.8620 C.ar   63  PHE63      -0.0003
    132  CZ        -7.0170   35.3920    3.4760 C.ar   63  PHE63      -0.0000
    133  N         -9.3800   26.4720    8.2380 N.3    76  MET76      -0.1245
    134  CA        -8.4480   26.1190    7.1770 C.3    76  MET76       0.1570
    135  C         -7.3760   25.1420    7.6410 C.2    76  MET76       0.2261
    136  O         -6.6840   24.5650    6.7970 O.2    76  MET76      -0.2867
    137  CB        -7.7690   27.3720    6.6410 C.3    76  MET76       0.0387
    138  CG        -8.5070   28.1270    5.5780 C.3    76  MET76       0.0595
    139  SD        -7.2970   29.0870    4.6480 S.3    76  MET76      -0.1393
    140  CE        -8.2480   30.5510    4.2720 C.3    76  MET76       0.0692
    141  N         -0.5280   46.7400   -3.9600 N.3    99  VAL99      -0.1245
    142  CA        -0.1290   45.3460   -3.8580 C.3    99  VAL99       0.1561
    143  C          0.2010   44.8810   -5.2610 C.2    99  VAL99       0.2260
    144  O         -0.5620   45.1400   -6.1960 O.2    99  VAL99      -0.2867
    145  CB        -1.2320   44.4610   -3.2480 C.3    99  VAL99       0.0252
    146  CG1       -0.6440   43.1360   -2.8070 C.3    99  VAL99       0.0019
    147  CG2       -1.9010   45.1540   -2.0880 C.3    99  VAL99       0.0019
    148  N          1.9040   41.6680   -7.8300 N.3   101  ARG101     -0.1245
    149  CA         2.2080   40.2470   -8.0020 C.3   101  ARG101      0.1563
    150  C          3.5050   40.0690   -8.7780 C.2   101  ARG101      0.2260
    151  O          3.6740   40.6610   -9.8490 O.2   101  ARG101     -0.2867
    152  CB         1.0930   39.5270   -8.7550 C.3   101  ARG101      0.0307
    153  CG         0.0290   38.9320   -7.8960 C.3   101  ARG101      0.0489
    154  CD        -0.7530   37.8730   -8.6510 C.3   101  ARG101      0.2205
    155  NE        -2.1850   38.0210   -8.4280 N.pl3 101  ARG101     -0.0865
    156  CZ        -2.9720   38.7930   -9.1650 C.cat 101  ARG101      0.5346
    157  NH1       -2.4570   39.4870  -10.1770 N.pl3 101  ARG101      0.1354
    158  NH2       -4.2710   38.8710   -8.8930 N.pl3 101  ARG101      0.1354
    159  N          5.4150   38.5730   -3.6430 N.3   108  VAL108     -0.1245
    160  CA         4.5450   39.7440   -3.6700 C.3   108  VAL108      0.1561
    161  C          5.3320   40.9280   -3.1260 C.2   108  VAL108      0.2260
    162  O          6.2280   40.7610   -2.2920 O.2   108  VAL108     -0.2867
    163  CB         3.2380   39.5050   -2.8620 C.3   108  VAL108      0.0252
    164  CG1        2.4410   40.7990   -2.6380 C.3   108  VAL108      0.0019
    165  CG2        2.3700   38.4780   -3.5600 C.3   108  VAL108      0.0019
    166  N          0.7760   48.5790    1.6070 N.3   112  TYR112     -0.1241
    167  CA        -0.5380   48.8970    2.1680 C.3   112  TYR112      0.1605
    168  C         -0.4940   50.1480    3.0290 C.2   112  TYR112      0.2264
    169  O         -1.4240   50.9670    2.9950 O.2   112  TYR112     -0.2867
    170  CB        -1.0480   47.7300    3.0060 C.3   112  TYR112      0.0534
    171  CG        -1.9670   46.7990    2.2750 C.ar  112  TYR112     -0.0201
    172  CD1       -3.1860   47.2560    1.7630 C.ar  112  TYR112     -0.0009
    173  CD2       -1.6360   45.4530    2.1090 C.ar  112  TYR112     -0.0009
    174  CE1       -4.0420   46.4050    1.0940 C.ar  112  TYR112      0.0417
    175  CE2       -2.4840   44.5900    1.4470 C.ar  112  TYR112      0.0417
    176  CZ        -3.6830   45.0740    0.9370 C.ar  112  TYR112      0.1957
    177  OH        -4.5250   44.2280    0.2660 O.3   112  TYR112     -0.2866
    178  N          2.0860   33.2820    4.5780 N.3   315  TYR315     -0.1241
    179  CA         1.0650   34.1450    3.9970 C.3   315  TYR315      0.1605
    180  C          1.0950   33.9830    2.4780 C.2   315  TYR315      0.2264
    181  O          0.1190   33.5060    1.8920 O.2   315  TYR315     -0.2867
    182  CB         1.2770   35.6080    4.4510 C.3   315  TYR315      0.0534
    183  CG         0.1830   36.6360    4.1000 C.ar  315  TYR315     -0.0201
    184  CD1       -0.7170   36.4200    3.0520 C.ar  315  TYR315     -0.0009
    185  CD2        0.0880   37.8510    4.7900 C.ar  315  TYR315     -0.0009
    186  CE1       -1.6720   37.3450    2.7150 C.ar  315  TYR315      0.0417
    187  CE2       -0.8900   38.7980    4.4590 C.ar  315  TYR315      0.0417
    188  CZ        -1.7650   38.5280    3.4130 C.ar  315  TYR315      0.1957
    189  OH        -2.7420   39.4260    3.0300 O.3   315  TYR315     -0.2866
    190  N         -0.2190   31.1390    0.4590 N.3   318  LEU318     -0.1231
    191  CA        -1.6620   31.0060    0.3840 C.3   318  LEU318      0.1693
    192  C         -2.2150   31.6770   -0.8640 C.2   318  LEU318      0.2593
    193  O         -3.2060   31.2030   -1.4280 O.2   318  LEU318     -0.2718
    194  CB        -2.2920   31.5840    1.6420 C.3   318  LEU318      0.0284
    195  CG        -3.7860   31.3670    1.7800 C.3   318  LEU318      0.0019
    196  CD1       -4.0630   29.8830    1.9110 C.3   318  LEU318      0.0001
    197  CD2       -4.2890   32.1630    2.9900 C.3   318  LEU318      0.0001
    198  N         -1.5740   32.7530   -1.3270 N.am  319  THR319     -0.1939
    199  CA        -2.0690   33.4690   -2.5020 C.3   319  THR319      0.2028
    200  C         -1.8210   32.6980   -3.7930 C.2   319  THR319      0.2642
    201  O         -2.5010   32.9560   -4.7960 O.2   319  THR319     -0.2714
    202  CB        -1.4330   34.8640   -2.6070 C.3   319  THR319      0.1808
    203  OG1       -0.1210   34.7590   -3.1660 O.3   319  THR319     -0.2208
    204  CG2       -1.3130   35.4980   -1.2480 C.3   319  THR319      0.0379
    205  N         -0.8730   31.7540   -3.7900 N.am  320  PHE320     -0.1973
    206  CA        -0.5940   30.9060   -4.9470 C.3   320  PHE320      0.1639
    207  C         -1.2620   29.5350   -4.8660 C.2   320  PHE320      0.2290
    208  O         -1.8590   29.0800   -5.8470 O.2   320  PHE320     -0.2864
    209  CB         0.9140   30.7240   -5.1060 C.3   320  PHE320      0.0560
    210  CG         1.6440   31.9830   -5.4210 C.ar  320  PHE320     -0.0200
    211  CD1        1.6030   32.5190   -6.6990 C.ar  320  PHE320     -0.0042
    212  CD2        2.3800   32.6310   -4.4470 C.ar  320  PHE320     -0.0042
    213  CE1        2.2810   33.6890   -7.0050 C.ar  320  PHE320     -0.0003
    214  CE2        3.0690   33.8030   -4.7400 C.ar  320  PHE320     -0.0003
    215  CZ         3.0160   34.3340   -6.0220 C.ar  320  PHE320     -0.0000
    216  N         -6.1330   27.6170    0.0640 N.3   323  PRO323     -0.2116
    217  CA        -6.2420   27.0150    1.4030 C.3   323  PRO323      0.1372
    218  C         -5.6840   25.6000    1.4900 C.2   323  PRO323      0.2244
    219  O         -5.2750   25.1830    2.5870 O.2   323  PRO323     -0.2868
    220  CB        -7.7530   27.0460    1.6730 C.3   323  PRO323      0.0268
    221  CG        -8.2160   28.2600    0.9390 C.3   323  PRO323      0.0207
    222  CD        -7.3660   28.3370   -0.3100 C.3   323  PRO323      0.0892
@<TRIPOS>BOND
     1    40    39    2
     2    39    38    1
     3    29    30    1
     4    38    41    1
     5    38    37    1
     6   157   156    1
     7    32    31    2
     8    41    42    1
     9    13    14    1
    10    31    37   am
    11    31    30    1
    12   151   150    2
    13    30    33    1
    14    44    43    2
    15    14    15    1
    16    14    17    1
    17    16    15    2
    18   156   158    1
    19   156   155    2
    20    24    23    2
    21    23    22    1
    22    15    21   am
    23   150   149    1
    24   152   149    1
    25   152   153    1
    26   154   155    1
    27   154   153    1
    28    42    43    1
    29    43    45   am
    30    21    22    1
    31    33    34    1
    32    17    18    1
    33    52    46    1
    34    52    51    1
    35   149   148    1
    36    19    18    1
    37    22    25    1
    38    36    34    1
    39    34    35    1
    40     4     3    2
    41    18    20    1
    42    46    47    1
    43     3     2    1
    44    51    50    1
    45   213   211   ar
    46   213   215   ar
    47    25    26    1
    48     1     2    1
    49   211   210   ar
    50     2     5    1
    51   144   143    2
    52   215   214   ar
    53    47    50    1
    54    47    48    1
    55   208   207    2
    56    26    27    1
    57    57    54    1
    58   210   209    1
    59   210   212   ar
    60   143   142    1
    61   209   206    1
    62   206   207    1
    63   206   205    1
    64    75    73    1
    65    53    54    1
    66     5     6    1
    67   201   200    2
    68    27    28    1
    69    48    49    2
    70   214   212   ar
    71    54    55    1
    72     6     7   ar
    73     6     8   ar
    74     7     9   ar
    75   141   142    1
    76   142   145    1
    77     8    10   ar
    78   200   205   am
    79   200   199    1
    80   160   159    1
    81   160   161    1
    82   160   163    1
    83   165   163    1
    84    91    90   ar
    85    91    89   ar
    86    73    74    1
    87    73    72    1
    88     9    11   ar
    89    90    88   ar
    90   145   146    1
    91   145   147    1
    92    10    11   ar
    93    72    69    1
    94   203   202    1
    95    55    56    2
    96    55    58   am
    97   161   162    2
    98    11    12    1
    99   163   164    1
   100   202   199    1
   101   202   204    1
   102    58    59    1
   103   199   198    1
   104    89    87   ar
   105    88    86   ar
   106    69    68    1
   107    69    70    1
   108   193   192    2
   109   198   192   am
   110    87    86   ar
   111    59    62    1
   112    59    60    1
   113    86    85    1
   114   192   191    1
   115    70    76   am
   116    70    71    2
   117    76    77    1
   118    62    63    1
   119   106   104    1
   120    60    61    2
   121   222   216    1
   122   222   221    1
   123    80    77    1
   124    77    78    1
   125   216   217    1
   126   119   120    1
   127   119   116    1
   128   177   176    1
   129   120   121    1
   130    85    82    1
   131   191   190    1
   132   191   194    1
   133   121   115    1
   134    63    64   ar
   135    63    65   ar
   136   104   103    1
   137   104   105    1
   138   103   100    1
   139   176   174   ar
   140   176   175   ar
   141   221   220    1
   142   102   101    2
   143   174   172   ar
   144   116   115    1
   145   116   117    1
   146   115   109   am
   147   217   218    1
   148   217   220    1
   149    64    66   ar
   150   175   173   ar
   151    78    79    2
   152    82    81    1
   153    82    83    1
   154   218   219    2
   155   166   167    1
   156   194   195    1
   157   101   100    1
   158   101   107   am
   159   172   171   ar
   160   195   196    1
   161   195   197    1
   162    65    67   ar
   163   109   110    2
   164   109   108    1
   165   181   180    2
   166   100    99    1
   167   173   171   ar
   168   167   170    1
   169   167   168    1
   170   171   170    1
   171   108   107    1
   172   108   111    1
   173   117   118    2
   174   180   179    1
   175    66    67   ar
   176   186   184   ar
   177   186   188   ar
   178   130   132   ar
   179   130   128   ar
   180    83    84    2
   181    83    92   am
   182   169   168    2
   183   189   188    1
   184   184   183   ar
   185    92    93    1
   186   188   187   ar
   187   132   131   ar
   188   128   127   ar
   189   111   112    1
   190   114   112    1
   191    97    96    1
   192   179   182    1
   193   179   178    1
   194   183   182    1
   195   183   185   ar
   196   140   139    1
   197   112   113    1
   198   187   185   ar
   199    93    96    1
   200    93    94    1
   201   139   138    1
   202   131   129   ar
   203   127   129   ar
   204   127   126    1
   205    96    98    1
   206   138   137    1
   207   125   124    2
   208   126   123    1
   209    94    95    2
   210   123   124    1
   211   123   122    1
   212   137   134    1
   213   136   135    2
   214   134   135    1
   215   134   133    1
