@<TRIPOS>MOLECULE
tmp/6cjpB00.pdb
 155 143 0 0 0
SMALL
GASTEIGER

@<TRIPOS>ATOM
      1  N         11.6370   32.6490    8.1090 N.3    25  GLU25      -0.1231
      2  CA        11.3660   31.2870    7.6590 C.3    25  GLU25       0.1699
      3  C         10.9500   30.4050    8.8310 C.2    25  GLU25       0.2592
      4  O          9.9430   29.6920    8.7640 O.2    25  GLU25      -0.2718
      5  CB        12.6090   30.7050    6.9780 C.3    25  GLU25       0.0402
      6  CG        13.1010   31.4290    5.7310 C.3    25  GLU25       0.1161
      7  CD        12.4470   30.9400    4.4560 C.2    25  GLU25       0.3649
      8  OE1       11.7080   29.9340    4.5000 O.co2  25  GLU25      -0.2457
      9  OE2       12.6930   31.5620    3.4020 O.co2  25  GLU25      -0.2457
     10  N         11.7330   30.4310    9.9080 N.am   26  LEU26      -0.1980
     11  CA        11.4600   29.5670   11.0470 C.3    26  LEU26       0.1596
     12  C         10.0980   29.8800   11.6470 C.2    26  LEU26       0.2287
     13  O          9.2960   28.9760   11.9070 O.2    26  LEU26      -0.2864
     14  CB        12.5620   29.7240   12.0930 C.3    26  LEU26       0.0297
     15  CG        13.9330   29.1480   11.7290 C.3    26  LEU26       0.0022
     16  CD1       14.9560   29.5020   12.8000 C.3    26  LEU26       0.0001
     17  CD2       13.8630   27.6470   11.5150 C.3    26  LEU26       0.0001
     18  N          7.3750   28.5680    9.4350 N.3    29  ASN29      -0.1225
     19  CA         7.2240   27.1270    9.5970 C.3    29  ASN29       0.1785
     20  C          6.5020   26.7930   10.8980 C.2    29  ASN29       0.2597
     21  O          5.6130   25.9350   10.9210 O.2    29  ASN29      -0.2718
     22  CB         8.5920   26.4460    9.5640 C.3    29  ASN29       0.1169
     23  CG         9.2440   26.5100    8.1990 C.2    29  ASN29       0.2627
     24  OD1        8.5760   26.7210    7.1890 O.2    29  ASN29      -0.2716
     25  ND2       10.5580   26.3170    8.1630 N.am   29  ASN29      -0.0877
     26  N          6.8750   27.4620   11.9920 N.am   30  ALA30      -0.1979
     27  CA         6.2730   27.1640   13.2870 C.3    30  ALA30       0.1597
     28  C          4.7940   27.5270   13.3090 C.2    30  ALA30       0.2287
     29  O          3.9740   26.7770   13.8530 O.2    30  ALA30      -0.2864
     30  CB         7.0260   27.9040   14.3910 C.3    30  ALA30       0.0319
     31  N          2.7390   27.5100   10.7840 N.3    32  ASP32      -0.1225
     32  CA         2.0360   26.4760   10.0330 C.3    32  ASP32       0.1805
     33  C          1.8660   25.2160   10.8700 C.2    32  ASP32       0.2597
     34  O          0.7960   24.5960   10.8640 O.2    32  ASP32      -0.2718
     35  CB         2.7940   26.1590    8.7440 C.3    32  ASP32       0.1424
     36  CG         2.7790   27.3100    7.7580 C.2    32  ASP32       0.3668
     37  OD1        2.2450   28.3860    8.0990 O.co2  32  ASP32      -0.2456
     38  OD2        3.3160   27.1410    6.6430 O.co2  32  ASP32      -0.2456
     39  N          2.9120   24.8230   11.6010 N.am   33  ALA33      -0.1979
     40  CA         2.8140   23.6540   12.4670 C.3    33  ALA33       0.1597
     41  C          1.7620   23.8640   13.5480 C.2    33  ALA33       0.2287
     42  O          1.0170   22.9380   13.8920 O.2    33  ALA33      -0.2864
     43  CB         4.1740   23.3500   13.0920 C.3    33  ALA33       0.0319
     44  N         -1.7610   23.4530   12.1550 N.3    36  LYS36      -0.1245
     45  CA        -2.2040   22.0850   11.9060 C.3    36  LYS36       0.1561
     46  C         -2.7290   21.4250   13.1730 C.2    36  LYS36       0.2260
     47  O         -3.7420   20.7180   13.1310 O.2    36  LYS36      -0.2867
     48  CB        -1.0700   21.2510   11.3170 C.3    36  LYS36       0.0271
     49  CG        -0.7860   21.5440    9.8660 C.3    36  LYS36       0.0035
     50  CD        -0.0480   20.3850    9.2210 C.3    36  LYS36       0.0206
     51  CE         0.2440   20.6720    7.7450 C.3    36  LYS36       0.1093
     52  NZ         0.8070   22.0370    7.5010 N.3    36  LYS36      -0.1314
     53  N          8.5630   25.2980   19.0020 N.3    71  ASP71      -0.1239
     54  CA         7.1320   25.5040   18.8530 C.3    71  ASP71       0.1674
     55  C          6.3960   24.2790   19.3720 C.2    71  ASP71       0.2266
     56  O          6.9520   23.1830   19.4560 O.2    71  ASP71      -0.2867
     57  CB         6.7450   25.7830   17.3910 C.3    71  ASP71       0.1410
     58  CG         6.9520   24.5810   16.4850 C.2    71  ASP71       0.3668
     59  OD1        6.2090   23.5880   16.6320 O.co2  71  ASP71      -0.2456
     60  OD2        7.8470   24.6330   15.6130 O.co2  71  ASP71      -0.2456
     61  N          2.2320   20.5660   15.5950 N.3    74  ILE74      -0.1231
     62  CA         1.9040   19.1510   15.4720 C.3    74  ILE74       0.1692
     63  C          3.1360   18.2650   15.5760 C.2    74  ILE74       0.2593
     64  O          3.0100   17.0700   15.8710 O.2    74  ILE74      -0.2718
     65  CB         1.1620   18.8950   14.1460 C.3    74  ILE74       0.0266
     66  CG1        0.6350   17.4590   14.0950 C.3    74  ILE74       0.0019
     67  CG2        2.0740   19.1680   12.9680 C.3    74  ILE74       0.0020
     68  CD1       -0.2810   17.1790   12.9180 C.3    74  ILE74       0.0001
     69  N          4.3250   18.8040   15.3330 N.am   75  GLY75      -0.1942
     70  CA         5.5340   18.0070   15.4040 C.3    75  GLY75       0.2014
     71  C          5.6520   17.0670   14.2160 C.2    75  GLY75       0.2638
     72  O          4.8490   17.0770   13.2840 O.2    75  GLY75      -0.2714
     73  N          6.6890   16.2320   14.2690 N.am   76  MET76      -0.1976
     74  CA         7.0020   15.3030   13.1900 C.3    76  MET76       0.1605
     75  C          7.3240   13.9400   13.7770 C.2    76  MET76       0.2287
     76  O          8.1180   13.8340   14.7160 O.2    76  MET76      -0.2864
     77  CB         8.1860   15.7940   12.3450 C.3    76  MET76       0.0413
     78  CG         7.9120   17.0560   11.5520 C.3    76  MET76       0.0598
     79  SD         9.3870   17.7200   10.7460 S.3    76  MET76      -0.1393
     80  CE        10.2190   18.4880   12.1330 C.3    76  MET76       0.0692
     81  N          8.0870   11.4390    9.4300 N.3    80  ASP80      -0.1239
     82  CA         7.9590   12.8170    8.9680 C.3    80  ASP80       0.1674
     83  C          9.3120   13.5170    8.9260 C.2    80  ASP80       0.2266
     84  O          9.5890   14.2870    7.9990 O.2    80  ASP80      -0.2867
     85  CB         6.9870   13.5800    9.8690 C.3    80  ASP80       0.1410
     86  CG         5.5670   13.0540    9.7740 C.2    80  ASP80       0.3668
     87  OD1        5.1230   12.7300    8.6520 O.co2  80  ASP80      -0.2456
     88  OD2        4.8920   12.9690   10.8220 O.co2  80  ASP80      -0.2456
     89  N         10.6580   15.4210    5.4270 N.3    84  ASN84      -0.1225
     90  CA        10.8340   16.8650    5.3350 C.3    84  ASN84       0.1785
     91  C         12.3010   17.2530    5.2910 C.2    84  ASN84       0.2597
     92  O         12.6460   18.2800    4.6960 O.2    84  ASN84      -0.2718
     93  CB        10.1520   17.5710    6.5060 C.3    84  ASN84       0.1169
     94  CG         8.6480   17.6000    6.3710 C.2    84  ASN84       0.2627
     95  OD1        8.1020   18.4170    5.6290 O.2    84  ASN84      -0.2716
     96  ND2        7.9670   16.7200    7.0920 N.am   84  ASN84      -0.0877
     97  N         13.1760   16.4640    5.9100 N.am   85  LEU85      -0.1980
     98  CA        14.5840   16.8310    5.9970 C.3    85  LEU85       0.1596
     99  C         15.3530   16.0460    4.9430 C.2    85  LEU85       0.2287
    100  O         15.9480   14.9960    5.1830 O.2    85  LEU85      -0.2864
    101  CB        15.0960   16.6320    7.4190 C.3    85  LEU85       0.0297
    102  CG        14.4130   17.6930    8.2880 C.3    85  LEU85       0.0022
    103  CD1       14.4990   17.4080    9.7670 C.3    85  LEU85       0.0001
    104  CD2       15.0700   19.0520    7.9990 C.3    85  LEU85       0.0001
    105  N         13.9530   28.3150    2.0440 N.3    94  GLY94      -0.1210
    106  CA        14.0900   26.9320    2.4680 C.3    94  GLY94       0.1956
    107  C         15.2300   26.7090    3.4440 C.2    94  GLY94       0.2611
    108  O         15.8240   27.6370    4.0010 O.2    94  GLY94      -0.2717
    109  N         15.5460   25.4220    3.6300 N.am   95  PHE95      -0.1976
    110  CA        16.4570   25.0030    4.6930 C.3    95  PHE95       0.1639
    111  C         17.7880   25.7440    4.6680 C.2    95  PHE95       0.2290
    112  O         18.4100   25.9320    5.7200 O.2    95  PHE95      -0.2864
    113  CB        16.7180   23.4980    4.6030 C.3    95  PHE95       0.0560
    114  CG        17.5210   22.9570    5.7530 C.ar   95  PHE95      -0.0200
    115  CD1       16.9140   22.6790    6.9670 C.ar   95  PHE95      -0.0042
    116  CD2       18.8820   22.7310    5.6230 C.ar   95  PHE95      -0.0042
    117  CE1       17.6470   22.1840    8.0290 C.ar   95  PHE95      -0.0003
    118  CE2       19.6210   22.2350    6.6830 C.ar   95  PHE95      -0.0003
    119  CZ        19.0020   21.9620    7.8870 C.ar   95  PHE95      -0.0000
    120  N         18.5560   28.7920    4.2670 N.3    97  SER97      -0.1202
    121  CA        18.6380   30.0520    4.9960 C.3    97  SER97       0.2020
    122  C         19.2980   29.8630    6.3520 C.2    97  SER97       0.2618
    123  O         19.9640   30.7750    6.8540 O.2    97  SER97      -0.2717
    124  CB        17.2490   30.6350    5.1950 C.3    97  SER97       0.2103
    125  OG        16.4480   29.7040    5.9000 O.3    97  SER97      -0.2182
    126  N         19.1000   28.6990    6.9720 N.am   98  LEU98      -0.1979
    127  CA        19.7110   28.4330    8.2690 C.3    98  LEU98       0.1596
    128  C         21.2170   28.6330    8.2170 C.2    98  LEU98       0.2287
    129  O         21.8010   29.2450    9.1190 O.2    98  LEU98      -0.2864
    130  CB        19.3720   27.0110    8.7170 C.3    98  LEU98       0.0297
    131  CG        18.0600   26.8230    9.4810 C.3    98  LEU98       0.0022
    132  CD1       16.9790   27.7870    9.0190 C.3    98  LEU98       0.0001
    133  CD2       17.5840   25.3850    9.3310 C.3    98  LEU98       0.0001
    134  N         17.4810   19.1790   14.7320 N.3   107  VAL107     -0.1245
    135  CA        16.0220   19.2600   14.7220 C.3   107  VAL107      0.1561
    136  C         15.4850   18.1930   15.6660 C.2   107  VAL107      0.2260
    137  O         15.6210   16.9910   15.4000 O.2   107  VAL107     -0.2867
    138  CB        15.4390   19.0840   13.3130 C.3   107  VAL107      0.0252
    139  CG1       13.9120   19.1020   13.3630 C.3   107  VAL107      0.0019
    140  CG2       15.9450   20.1760   12.3900 C.3   107  VAL107      0.0019
    141  N          8.2300   20.9960   17.8620 N.3   142  THR142     -0.1218
    142  CA         9.5470   20.9080   17.2460 C.3   142  THR142      0.1862
    143  C         10.4570   21.9880   17.8110 C.2   142  THR142      0.2287
    144  O         10.0090   23.1020   18.0930 O.2   142  THR142     -0.2866
    145  CB         9.4590   21.0490   15.7220 C.3   142  THR142      0.1770
    146  OG1        8.6480   19.9930   15.1910 O.3   142  THR142     -0.2211
    147  CG2       10.8500   21.0070   15.0840 C.3   142  THR142      0.0375
    148  N         14.3130   23.6510   16.8360 N.3   144  LEU144     -0.1245
    149  CA        15.4970   23.7460   15.9960 C.3   144  LEU144      0.1561
    150  C         16.6090   24.4050   16.7970 C.2   144  LEU144      0.2260
    151  O         16.4230   25.4980   17.3420 O.2   144  LEU144     -0.2867
    152  CB        15.2120   24.5440   14.7240 C.3   144  LEU144      0.0270
    153  CG        14.2930   23.8460   13.7250 C.3   144  LEU144      0.0019
    154  CD1       12.8430   24.1970   14.0120 C.3   144  LEU144      0.0001
    155  CD2       14.6740   24.2140   12.2990 C.3   144  LEU144      0.0001
@<TRIPOS>BOND
     1   105   106    1
     2   106   107    1
     3     9     7   ar
     4   107   109   am
     5   107   108    2
     6   109   110    1
     7   120   121    1
     8     7     8   ar
     9     7     6    1
    10   113   110    1
    11   113   114    1
    12   111   110    1
    13   111   112    2
    14    92    91    2
    15    99   100    2
    16    99    98    1
    17   121   124    1
    18   121   122    1
    19   124   125    1
    20    91    90    1
    21    91    97   am
    22    90    89    1
    23    90    93    1
    24   116   114   ar
    25   116   118   ar
    26    95    94    2
    27     6     5    1
    28   114   115   ar
    29    97    98    1
    30    98   101    1
    31   122   123    2
    32   122   126   am
    33    94    93    1
    34    94    96   am
    35    38    36   ar
    36   118   119   ar
    37   115   117   ar
    38   126   127    1
    39     5     2    1
    40    24    23    2
    41   101   102    1
    42    52    51    1
    43     2     1    1
    44     2     3    1
    45    51    50    1
    46    36    37   ar
    47    36    35    1
    48   119   117   ar
    49   104   102    1
    50    84    83    2
    51    25    23   am
    52    23    22    1
    53   128   127    1
    54   128   129    2
    55   127   130    1
    56   102   103    1
    57    87    86   ar
    58   130   131    1
    59    35    32    1
    60     4     3    2
    61     3    10   am
    62    83    82    1
    63    82    81    1
    64    82    85    1
    65   132   131    1
    66    50    49    1
    67   133   131    1
    68    18    19    1
    69    22    19    1
    70    19    20    1
    71    86    85    1
    72    86    88   ar
    73    49    48    1
    74    10    11    1
    75    32    31    1
    76    32    33    1
    77    79    78    1
    78    79    80    1
    79    34    33    2
    80    33    39   am
    81    20    21    2
    82    20    26   am
    83    11    12    1
    84    11    14    1
    85    48    45    1
    86    17    15    1
    87    78    77    1
    88    39    40    1
    89    12    13    2
    90    15    14    1
    91    15    16    1
    92    45    44    1
    93    45    46    1
    94    26    27    1
    95   155   153    1
    96    77    74    1
    97   140   138    1
    98    40    43    1
    99    40    41    1
   100    68    66    1
   101    67    65    1
   102    47    46    2
   103    74    75    1
   104    74    73    1
   105    72    71    2
   106    27    28    1
   107    27    30    1
   108    28    29    2
   109   138   139    1
   110   138   135    1
   111    41    42    2
   112   153   154    1
   113   153   152    1
   114    75    76    2
   115    66    65    1
   116    65    62    1
   117    71    73   am
   118    71    70    1
   119   135   134    1
   120   135   136    1
   121   152   149    1
   122   147   145    1
   123   146   145    1
   124    69    70    1
   125    69    63   am
   126   137   136    2
   127    62    63    1
   128    62    61    1
   129    63    64    2
   130    60    58   ar
   131   145   142    1
   132   149   150    1
   133   149   148    1
   134    58    59   ar
   135    58    57    1
   136   150   151    2
   137   142   143    1
   138   142   141    1
   139    57    54    1
   140   143   144    2
   141    54    53    1
   142    54    55    1
   143    55    56    2
