@<TRIPOS>MOLECULE
tmp/6cjpA00.pdb
 166 154 0 0 0
SMALL
GASTEIGER

@<TRIPOS>ATOM
      1  N         12.8490   36.4380   52.7050 N.3    32  PHE32      -0.1241
      2  CA        12.9330   35.0230   52.3620 C.3    32  PHE32       0.1605
      3  C         13.9140   34.8120   51.2170 C.2    32  PHE32       0.2264
      4  O         14.6490   33.8170   51.1880 O.2    32  PHE32      -0.2867
      5  CB        11.5540   34.4850   51.9810 C.3    32  PHE32       0.0534
      6  CG        11.1960   34.7050   50.5370 C.ar   32  PHE32      -0.0203
      7  CD1       10.7240   35.9320   50.1020 C.ar   32  PHE32      -0.0042
      8  CD2       11.3520   33.6860   49.6090 C.ar   32  PHE32      -0.0042
      9  CE1       10.4000   36.1360   48.7690 C.ar   32  PHE32      -0.0003
     10  CE2       11.0320   33.8840   48.2760 C.ar   32  PHE32      -0.0003
     11  CZ        10.5580   35.1100   47.8550 C.ar   32  PHE32      -0.0000
     12  N         17.5910   34.9910   52.3640 N.3    35  GLU35      -0.1231
     13  CA        18.0270   33.7700   53.0320 C.3    35  GLU35       0.1699
     14  C         18.2870   32.6520   52.0290 C.2    35  GLU35       0.2592
     15  O         19.2500   31.8910   52.1770 O.2    35  GLU35      -0.2718
     16  CB        16.9790   33.3450   54.0600 C.3    35  GLU35       0.0402
     17  CG        16.7620   34.3680   55.1620 C.3    35  GLU35       0.1161
     18  CD        17.9190   34.4250   56.1410 C.2    35  GLU35       0.3649
     19  OE1       18.6490   33.4200   56.2620 O.co2  35  GLU35      -0.2457
     20  OE2       18.1010   35.4770   56.7870 O.co2  35  GLU35      -0.2457
     21  N         17.4420   32.5360   51.0020 N.am   36  LEU36      -0.1980
     22  CA        17.6880   31.5580   49.9450 C.3    36  LEU36       0.1596
     23  C         19.0450   31.7860   49.2900 C.2    36  LEU36       0.2287
     24  O         19.8320   30.8480   49.1190 O.2    36  LEU36      -0.2864
     25  CB        16.5790   31.6340   48.8960 C.3    36  LEU36       0.0297
     26  CG        15.2150   31.0840   49.2900 C.3    36  LEU36       0.0022
     27  CD1       14.1800   31.4060   48.2440 C.3    36  LEU36       0.0001
     28  CD2       15.3140   29.5820   49.4600 C.3    36  LEU36       0.0001
     29  N         21.7730   30.8820   51.6800 N.3    39  ASN39      -0.1225
     30  CA        21.9150   29.4310   51.7400 C.3    39  ASN39       0.1785
     31  C         22.6280   28.9050   50.5020 C.2    39  ASN39       0.2597
     32  O         23.5300   28.0640   50.6030 O.2    39  ASN39      -0.2718
     33  CB        20.5470   28.7700   51.8760 C.3    39  ASN39       0.1169
     34  CG        19.8940   29.0440   53.2140 C.2    39  ASN39       0.2627
     35  OD1       20.5610   29.4080   54.1830 O.2    39  ASN39      -0.2716
     36  ND2       18.5800   28.8610   53.2760 N.am   39  ASN39      -0.0877
     37  N         22.2470   29.4030   49.3230 N.am   40  ALA40      -0.1979
     38  CA        22.8500   28.9200   48.0880 C.3    40  ALA40       0.1597
     39  C         24.3290   29.2730   48.0280 C.2    40  ALA40       0.2287
     40  O         25.1500   28.4550   47.5980 O.2    40  ALA40      -0.2864
     41  CB        22.1100   29.4990   46.8820 C.3    40  ALA40       0.0319
     42  N         26.4000   29.5890   50.5200 N.3    42  ASP42      -0.1225
     43  CA        27.1100   28.6520   51.3820 C.3    42  ASP42       0.1805
     44  C         27.2560   27.2920   50.7090 C.2    42  ASP42       0.2597
     45  O         28.3090   26.6520   50.8060 O.2    42  ASP42      -0.2718
     46  CB        26.3840   28.5140   52.7210 C.3    42  ASP42       0.1424
     47  CG        26.4410   29.7850   53.5540 C.2    42  ASP42       0.3668
     48  OD1       26.9680   30.8050   53.0610 O.co2  42  ASP42      -0.2456
     49  OD2       25.9590   29.7610   54.7060 O.co2  42  ASP42      -0.2456
     50  N         26.2030   26.8300   50.0290 N.am   43  ALA43      -0.1979
     51  CA        26.2690   25.5500   49.3310 C.3    43  ALA43       0.1597
     52  C         27.3410   25.5680   48.2520 C.2    43  ALA43       0.2287
     53  O         28.0670   24.5840   48.0700 O.2    43  ALA43      -0.2864
     54  CB        24.9060   25.2150   48.7260 C.3    43  ALA43       0.0319
     55  N         30.8940   25.2480   49.7540 N.3    46  LYS46      -0.1245
     56  CA        31.3080   23.9330   50.2310 C.3    46  LYS46       0.1561
     57  C         31.8150   23.0570   49.0920 C.2    46  LYS46       0.2260
     58  O         32.8190   22.3530   49.2480 O.2    46  LYS46      -0.2867
     59  CB        30.1520   23.2570   50.9670 C.3    46  LYS46       0.0271
     60  CG        29.9120   23.8400   52.3480 C.3    46  LYS46       0.0035
     61  CD        29.1070   22.9040   53.2320 C.3    46  LYS46       0.0206
     62  CE        28.9170   23.4810   54.6290 C.3    46  LYS46       0.1093
     63  NZ        28.4650   24.8990   54.6100 N.3    46  LYS46      -0.1314
     64  N         20.5940   26.2800   42.7440 N.3    81  ASP81      -0.1239
     65  CA        22.0250   26.4740   42.8830 C.3    81  ASP81       0.1674
     66  C         22.7200   25.1580   42.5640 C.2    81  ASP81       0.2266
     67  O         22.1330   24.0780   42.6680 O.2    81  ASP81      -0.2867
     68  CB        22.4000   26.9540   44.2940 C.3    81  ASP81       0.1410
     69  CG        22.1510   25.9010   45.3590 C.2    81  ASP81       0.3668
     70  OD1       22.8730   24.8820   45.3700 O.co2  81  ASP81      -0.2456
     71  OD2       21.2450   26.0990   46.2000 O.co2  81  ASP81      -0.2456
     72  N         26.8290   22.0000   46.8820 N.3    84  ILE84      -0.1231
     73  CA        27.1800   20.6380   47.2700 C.3    84  ILE84       0.1692
     74  C         25.9710   19.7110   47.2760 C.2    84  ILE84       0.2593
     75  O         26.1360   18.4870   47.2200 O.2    84  ILE84      -0.2718
     76  CB        27.8650   20.6560   48.6510 C.3    84  ILE84       0.0266
     77  CG1       28.4260   19.2740   48.9960 C.3    84  ILE84       0.0019
     78  CG2       26.8880   21.1220   49.7290 C.3    84  ILE84       0.0020
     79  CD1       29.2880   19.2580   50.2480 C.3    84  ILE84       0.0001
     80  N         24.7610   20.2560   47.3440 N.am   85  GLY85      -0.1942
     81  CA        23.5600   19.4410   47.3720 C.3    85  GLY85       0.2014
     82  C         23.3420   18.7760   48.7210 C.2    85  GLY85       0.2638
     83  O         24.0870   18.9650   49.6810 O.2    85  GLY85      -0.2714
     84  N         22.2880   17.9640   48.7760 N.am   86  MET86      -0.1976
     85  CA        21.8540   17.3380   50.0180 C.3    86  MET86       0.1605
     86  C         21.4890   15.8840   49.7670 C.2    86  MET86       0.2287
     87  O         20.7610   15.5810   48.8180 O.2    86  MET86      -0.2864
     88  CB        20.6480   18.0840   50.5940 C.3    86  MET86       0.0413
     89  CG        20.9530   19.5120   50.9970 C.3    86  MET86       0.0598
     90  SD        19.4640   20.4410   51.3860 S.3    86  MET86      -0.1393
     91  CE        19.6250   20.6020   53.1510 C.3    86  MET86       0.0692
     92  N         20.5360   14.5480   54.7660 N.3    90  ASP90      -0.1239
     93  CA        20.7250   15.9890   54.8930 C.3    90  ASP90       0.1674
     94  C         19.4090   16.7330   54.7110 C.2    90  ASP90       0.2266
     95  O         19.1430   17.7130   55.4150 O.2    90  ASP90      -0.2867
     96  CB        21.7620   16.4740   53.8800 C.3    90  ASP90       0.1410
     97  CG        23.1470   15.9180   54.1500 C.2    90  ASP90       0.3668
     98  OD1       23.5410   15.8390   55.3330 O.co2  90  ASP90      -0.2456
     99  OD2       23.8440   15.5640   53.1760 O.co2  90  ASP90      -0.2456
    100  N         18.0340   19.3740   57.6770 N.3    94  ASN94      -0.1225
    101  CA        17.9850   20.8160   57.4670 C.3    94  ASN94       0.1785
    102  C         16.5700   21.3500   57.2640 C.2    94  ASN94       0.2597
    103  O         16.3030   22.5090   57.5960 O.2    94  ASN94      -0.2718
    104  CB        18.8500   21.1620   56.2640 C.3    94  ASN94       0.1169
    105  CG        20.3240   20.9550   56.5340 C.2    94  ASN94       0.2627
    106  OD1       20.9700   20.1280   55.8910 O.2    94  ASN94      -0.2716
    107  ND2       20.8640   21.6950   57.4930 N.am   94  ASN94      -0.0877
    108  N         15.6620   20.5440   56.7110 N.am   95  LEU95      -0.1980
    109  CA        14.3600   21.0220   56.2510 C.3    95  LEU95       0.1596
    110  C         13.2640   20.6890   57.2580 C.2    95  LEU95       0.2287
    111  O         12.9750   19.5130   57.5060 O.2    95  LEU95      -0.2864
    112  CB        14.0090   20.4330   54.8890 C.3    95  LEU95       0.0297
    113  CG        15.0010   20.7900   53.7800 C.3    95  LEU95       0.0022
    114  CD1       14.6790   19.9920   52.5270 C.3    95  LEU95       0.0001
    115  CD2       15.0690   22.2900   53.5000 C.3    95  LEU95       0.0001
    116  N         15.2380   30.1460   59.9740 N.3   125  GLY125     -0.1210
    117  CA        14.9680   30.7700   58.6890 C.3   125  GLY125      0.1956
    118  C         14.0970   29.9590   57.7490 C.2   125  GLY125      0.2611
    119  O         13.5170   30.5280   56.8180 O.2   125  GLY125     -0.2717
    120  N         13.9900   28.6440   57.9570 N.am  126  PHE126     -0.1976
    121  CA        13.1950   27.8230   57.0470 C.3   126  PHE126      0.1639
    122  C         11.7850   28.3740   56.8830 C.2   126  PHE126      0.2290
    123  O         11.2520   28.4200   55.7680 O.2   126  PHE126     -0.2864
    124  CB        13.1300   26.3790   57.5410 C.3   126  PHE126      0.0560
    125  CG        12.1330   25.5430   56.7950 C.ar  126  PHE126     -0.0200
    126  CD1       10.8620   25.3350   57.3050 C.ar  126  PHE126     -0.0042
    127  CD2       12.4560   24.9890   55.5690 C.ar  126  PHE126     -0.0042
    128  CE1        9.9390   24.5770   56.6130 C.ar  126  PHE126     -0.0003
    129  CE2       11.5380   24.2290   54.8730 C.ar  126  PHE126     -0.0003
    130  CZ        10.2780   24.0250   55.3950 C.ar  126  PHE126     -0.0000
    131  N         10.6460   31.3190   57.0550 N.3   128  SER128     -0.1202
    132  CA        10.4990   32.5350   56.2640 C.3   128  SER128      0.2020
    133  C          9.9710   32.2240   54.8720 C.2   128  SER128      0.2618
    134  O          9.4060   33.1080   54.2190 O.2   128  SER128     -0.2717
    135  CB        11.8320   33.2780   56.1640 C.3   128  SER128      0.2103
    136  OG        12.8310   32.4640   55.5820 O.3   128  SER128     -0.2182
    137  N         10.1430   30.9850   54.4080 N.am  129  LEU129     -0.1979
    138  CA         9.5470   30.5750   53.1430 C.3   129  LEU129      0.1596
    139  C          8.0380   30.7490   53.1650 C.2   129  LEU129      0.2287
    140  O          7.4330   31.1260   52.1550 O.2   129  LEU129     -0.2864
    141  CB         9.9050   29.1180   52.8440 C.3   129  LEU129      0.0297
    142  CG        11.3400   28.8460   52.4010 C.3   129  LEU129      0.0022
    143  CD1       11.5700   27.3530   52.2640 C.3   129  LEU129      0.0001
    144  CD2       11.6150   29.5560   51.0910 C.3   129  LEU129      0.0001
    145  N         11.5490   20.8990   47.6650 N.3   138  VAL138     -0.1245
    146  CA        13.0020   21.0160   47.6460 C.3   138  VAL138      0.1561
    147  C         13.5440   19.8240   46.8720 C.2   138  VAL138      0.2260
    148  O         13.4210   18.6760   47.3180 O.2   138  VAL138     -0.2867
    149  CB        13.6010   21.0790   49.0570 C.3   138  VAL138      0.0252
    150  CG1       15.1210   21.1490   48.9830 C.3   138  VAL138      0.0019
    151  CG2       13.0570   22.2790   49.8100 C.3   138  VAL138      0.0019
    152  N         20.7760   22.0630   44.4940 N.3   171  THR171     -0.1218
    153  CA        19.4530   22.1050   45.0900 C.3   171  THR171      0.1862
    154  C         18.5630   23.0730   44.3290 C.2   171  THR171      0.2287
    155  O         19.0210   24.1220   43.8750 O.2   171  THR171     -0.2866
    156  CB        19.5450   22.5390   46.5580 C.3   171  THR171      0.1770
    157  OG1       20.3560   21.6070   47.2810 O.3   171  THR171     -0.2211
    158  CG2       18.1730   22.6190   47.2040 C.3   171  THR171      0.0375
    159  N         14.7560   24.9280   44.9620 N.3   173  LEU173     -0.1245
    160  CA        13.5920   25.1770   45.7990 C.3   173  LEU173      0.1561
    161  C         12.4650   25.7200   44.9320 C.2   173  LEU173      0.2260
    162  O         12.6500   26.7100   44.2180 O.2   173  LEU173     -0.2867
    163  CB        13.9250   26.1570   46.9180 C.3   173  LEU173      0.0270
    164  CG        14.8550   25.6060   47.9970 C.3   173  LEU173      0.0019
    165  CD1       16.3090   25.8750   47.6430 C.3   173  LEU173      0.0001
    166  CD2       14.4960   26.1970   49.3430 C.3   173  LEU173      0.0001
@<TRIPOS>BOND
     1    66    67    2
     2    66    65    1
     3    64    65    1
     4    65    68    1
     5   155   154    2
     6   162   161    2
     7    68    69    1
     8   154   153    1
     9   152   153    1
    10   161   160    1
    11   159   160    1
    12   153   156    1
    13    69    70   ar
    14    69    71   ar
    15   160   163    1
    16   156   158    1
    17   156   157    1
    18   147   148    2
    19   147   146    1
    20    72    73    1
    21    41    38    1
    22   163   164    1
    23    75    74    2
    24    73    74    1
    25    73    76    1
    26    74    80   am
    27    80    81    1
    28    81    82    1
    29    40    39    2
    30   165   164    1
    31   146   145    1
    32   146   149    1
    33    11    10   ar
    34    11     9   ar
    35   164   166    1
    36    39    38    1
    37    53    52    2
    38    38    37    1
    39    27    26    1
    40    52    51    1
    41    10     8   ar
    42    76    77    1
    43    76    78    1
    44    82    84   am
    45    82    83    2
    46    54    51    1
    47     9     7   ar
    48    84    85    1
    49    87    86    2
    50    25    26    1
    51    25    22    1
    52   150   149    1
    53    77    79    1
    54   149   151    1
    55    57    58    2
    56    57    56    1
    57    24    23    2
    58    26    28    1
    59    23    22    1
    60    37    31   am
    61    51    50    1
    62     8     6   ar
    63    55    56    1
    64    86    85    1
    65    22    21    1
    66    85    88    1
    67    50    44   am
    68     7     6   ar
    69    56    59    1
    70    31    32    2
    71    31    30    1
    72    42    43    1
    73     6     5    1
    74    88    89    1
    75    44    45    2
    76    44    43    1
    77    59    60    1
    78    89    90    1
    79    21    14   am
    80   144   142    1
    81     4     3    2
    82     3     2    1
    83    43    46    1
    84    90    91    1
    85    29    30    1
    86    30    33    1
    87    33    34    1
    88     5     2    1
    89    14    15    2
    90    14    13    1
    91   140   139    2
    92   143   142    1
    93    60    61    1
    94     2     1    1
    95    12    13    1
    96   142   141    1
    97   114   113    1
    98    46    47    1
    99   141   138    1
   100    13    16    1
   101    48    47   ar
   102   138   139    1
   103   138   137    1
   104    99    97   ar
   105    34    36   am
   106    34    35    2
   107    61    62    1
   108   115   113    1
   109    47    49   ar
   110   113   112    1
   111    96    97    1
   112    96    93    1
   113    16    17    1
   114    97    98   ar
   115   134   133    2
   116   137   133   am
   117    63    62    1
   118    94    93    1
   119    94    95    2
   120    92    93    1
   121   133   132    1
   122   129   130   ar
   123   129   127   ar
   124   112   109    1
   125    17    18    1
   126   130   128   ar
   127   127   125   ar
   128   136   135    1
   129   123   122    2
   130   106   105    2
   131    18    19   ar
   132    18    20   ar
   133   135   132    1
   134   109   108    1
   135   109   110    1
   136   132   131    1
   137   104   105    1
   138   104   101    1
   139   105   107   am
   140   128   126   ar
   141   108   102   am
   142   125   126   ar
   143   125   124    1
   144   119   118    2
   145   122   121    1
   146   121   124    1
   147   121   120    1
   148   110   111    2
   149   102   101    1
   150   102   103    2
   151   101   100    1
   152   118   120   am
   153   118   117    1
   154   117   116    1
