@<TRIPOS>MOLECULE
tmp/6cjqC05.pdb
 123 113 0 0 0
SMALL
GASTEIGER

@<TRIPOS>ATOM
      1  N        143.1210  110.7650  116.1760 N.3    18  ALA18      -0.1245
      2  CA       142.7020  112.1190  115.8420 C.3    18  ALA18       0.1562
      3  C        143.4130  112.6500  114.6080 C.2    18  ALA18       0.2260
      4  O        142.8280  113.4300  113.8510 O.2    18  ALA18      -0.2867
      5  CB       142.9340  113.0390  117.0360 C.3    18  ALA18       0.0290
      6  N        140.0800  111.5040  110.1280 N.3    22  PRO22      -0.2116
      7  CA       139.5620  112.3750  109.0650 C.3    22  PRO22       0.1372
      8  C        140.4500  112.4320  107.8420 C.2    22  PRO22       0.2244
      9  O        139.9930  112.8880  106.7900 O.2    22  PRO22      -0.2868
     10  CB       139.4680  113.7410  109.7440 C.3    22  PRO22       0.0268
     11  CG       140.4830  113.7120  110.7470 C.3    22  PRO22       0.0207
     12  CD       140.5090  112.3370  111.2740 C.3    22  PRO22       0.0892
     13  N        139.0900  109.3160  105.9490 N.3    25  LEU25      -0.1231
     14  CA       137.7370  109.4970  105.4370 C.3    25  LEU25       0.1693
     15  C        137.7410  110.2140  104.0950 C.2    25  LEU25       0.2591
     16  O        136.8150  110.0440  103.2950 O.2    25  LEU25      -0.2718
     17  CB       136.8850  110.2590  106.4390 C.3    25  LEU25       0.0284
     18  CG       136.4560  109.4340  107.6370 C.3    25  LEU25       0.0019
     19  CD1      135.7960  110.3240  108.6400 C.3    25  LEU25       0.0001
     20  CD2      135.4930  108.3780  107.1590 C.3    25  LEU25       0.0001
     21  N        138.7660  111.0190  103.8270 N.am   26  VAL26      -0.1980
     22  CA       138.8520  111.6900  102.5360 C.3    26  VAL26       0.1595
     23  C        139.5010  110.7760  101.5080 C.2    26  VAL26       0.2287
     24  O        139.0170  110.6410  100.3780 O.2    26  VAL26      -0.2864
     25  CB       139.6150  113.0160  102.6700 C.3    26  VAL26       0.0276
     26  CG1      139.7460  113.6790  101.3230 C.3    26  VAL26       0.0022
     27  CG2      138.9030  113.9200  103.6310 C.3    26  VAL26       0.0022
     28  N        130.4300  108.8500  108.8650 N.3    83  LEU83      -0.1245
     29  CA       130.8800  109.8420  109.8310 C.3    83  LEU83       0.1561
     30  C        130.7670  109.3570  111.2760 C.2    83  LEU83       0.2260
     31  O        131.3980  109.9440  112.1630 O.2    83  LEU83      -0.2867
     32  CB       130.0880  111.1320  109.5940 C.3    83  LEU83       0.0270
     33  CG       130.4620  112.4860  110.1920 C.3    83  LEU83       0.0019
     34  CD1      130.0760  113.5610  109.2080 C.3    83  LEU83       0.0001
     35  CD2      129.7490  112.7350  111.5080 C.3    83  LEU83       0.0001
     36  N        133.8080  108.8910  113.5370 N.3    86  LEU86      -0.1245
     37  CA       134.2450  109.9550  114.4290 C.3    86  LEU86       0.1561
     38  C        134.0010  109.6700  115.9070 C.2    86  LEU86       0.2260
     39  O        134.4610  110.4630  116.7370 O.2    86  LEU86      -0.2867
     40  CB       133.5410  111.2600  114.0650 C.3    86  LEU86       0.0270
     41  CG       134.1390  112.2200  113.0410 C.3    86  LEU86       0.0019
     42  CD1      134.1160  111.6950  111.6330 C.3    86  LEU86       0.0001
     43  CD2      133.3660  113.5160  113.1180 C.3    86  LEU86       0.0001
     44  N        136.8650  109.7500  118.2540 N.3    89  LEU89      -0.1245
     45  CA       137.3000  111.0810  118.6540 C.3    89  LEU89       0.1561
     46  C        136.7190  111.5410  119.9810 C.2    89  LEU89       0.2260
     47  O        137.1480  112.5790  120.4880 O.2    89  LEU89      -0.2867
     48  CB       136.9360  112.0930  117.5730 C.3    89  LEU89       0.0270
     49  CG       137.6270  111.8130  116.2470 C.3    89  LEU89       0.0019
     50  CD1      137.2380  112.8280  115.1890 C.3    89  LEU89       0.0001
     51  CD2      139.1090  111.7940  116.4570 C.3    89  LEU89       0.0001
     52  N        139.2120  111.8550  123.5010 N.3    92  LEU92      -0.1245
     53  CA       139.9660  113.0140  123.9760 C.3    92  LEU92       0.1561
     54  C        139.3950  113.6260  125.2470 C.2    92  LEU92       0.2260
     55  O        140.1260  114.3210  125.9590 O.2    92  LEU92      -0.2867
     56  CB       140.0180  114.0810  122.8910 C.3    92  LEU92       0.0270
     57  CG       140.7840  113.6650  121.6440 C.3    92  LEU92       0.0019
     58  CD1      140.6490  114.7170  120.5700 C.3    92  LEU92       0.0001
     59  CD2      142.2380  113.4310  121.9850 C.3    92  LEU92       0.0001
     60  N        143.9420  121.2560  121.1230 N.3   120  PHE120     -0.1241
     61  CA       142.6660  120.9630  120.4810 C.3   120  PHE120      0.1605
     62  C        142.4060  121.8200  119.2530 C.2   120  PHE120      0.2264
     63  O        141.7710  121.3380  118.3170 O.2   120  PHE120     -0.2867
     64  CB       141.5020  121.1360  121.4580 C.3   120  PHE120      0.0534
     65  CG       140.1440  120.9190  120.8440 C.ar  120  PHE120     -0.0203
     66  CD1      139.6440  119.6410  120.6400 C.ar  120  PHE120     -0.0042
     67  CD2      139.3730  122.0030  120.4520 C.ar  120  PHE120     -0.0042
     68  CE1      138.4000  119.4530  120.0770 C.ar  120  PHE120     -0.0003
     69  CE2      138.1290  121.8180  119.8850 C.ar  120  PHE120     -0.0003
     70  CZ       137.6430  120.5440  119.6990 C.ar  120  PHE120     -0.0000
     71  N        144.5210  120.2900  116.4650 N.3   123  LEU123     -0.1231
     72  CA       144.0210  118.9580  116.1780 C.3   123  LEU123      0.1693
     73  C        142.6300  118.9890  115.5610 C.2   123  LEU123      0.2591
     74  O        142.2410  118.0280  114.8950 O.2   123  LEU123     -0.2718
     75  CB       144.0320  118.1600  117.4750 C.3   123  LEU123      0.0284
     76  CG       143.9080  116.6550  117.4580 C.3   123  LEU123      0.0019
     77  CD1      145.0800  116.1140  116.6910 C.3   123  LEU123      0.0001
     78  CD2      143.9460  116.1730  118.8830 C.3   123  LEU123      0.0001
     79  N        141.8840  120.0780  115.7560 N.am  124  ALA124     -0.1980
     80  CA       140.5990  120.2860  115.1120 C.3   124  ALA124      0.1597
     81  C        140.7040  121.0650  113.8170 C.2   124  ALA124      0.2287
     82  O        139.8300  120.9230  112.9590 O.2   124  ALA124     -0.2864
     83  CB       139.6450  121.0280  116.0500 C.3   124  ALA124      0.0319
     84  N        140.9690  118.4370  111.2680 N.3   127  GLY127     -0.1210
     85  CA       139.7010  117.8420  110.8770 C.3   127  GLY127      0.1956
     86  C        138.8580  118.7590  110.0120 C.2   127  GLY127      0.2611
     87  O        138.2140  118.3110  109.0600 O.2   127  GLY127     -0.2717
     88  N        138.8690  120.0560  110.3180 N.am  128  ILE128     -0.1979
     89  CA       138.1410  121.0180  109.5010 C.3   128  ILE128      0.1595
     90  C        138.7590  121.1270  108.1140 C.2   128  ILE128      0.2287
     91  O        138.0380  121.2350  107.1130 O.2   128  ILE128     -0.2864
     92  CB       138.0910  122.3680  110.2320 C.3   128  ILE128      0.0276
     93  CG1      137.2750  122.2350  111.5100 C.3   128  ILE128      0.0022
     94  CG2      137.4660  123.4290  109.3880 C.3   128  ILE128      0.0022
     95  CD1      137.4080  123.4050  112.4330 C.3   128  ILE128      0.0001
     96  N        140.3010  118.6630  106.5930 N.3   130  CYS130     -0.1221
     97  CA       139.8890  117.4480  105.9010 C.3   130  CYS130      0.1808
     98  C        138.4540  117.5480  105.4060 C.2   130  CYS130      0.2601
     99  O        138.1450  117.0810  104.3070 O.2   130  CYS130     -0.2717
    100  CB       140.0630  116.2380  106.8090 C.3   130  CYS130      0.0970
    101  SG       141.7760  115.8090  107.1190 S.3   130  CYS130     -0.0800
    102  N        137.5750  118.1890  106.1750 N.am  131  GLY131     -0.1957
    103  CA       136.2050  118.3710  105.7130 C.3   131  GLY131      0.1869
    104  C        136.1050  119.2980  104.5150 C.2   131  GLY131      0.2309
    105  O        135.3520  119.0360  103.5650 O.2   131  GLY131     -0.2863
    106  N        137.2390  117.5280  101.6210 N.3   134  SER134     -0.1217
    107  CA       136.2440  116.5360  101.2380 C.3   134  SER134      0.1889
    108  C        135.1860  117.1330  100.3280 C.2   134  SER134      0.2288
    109  O        134.8680  116.5620   99.2800 O.2   134  SER134     -0.2866
    110  CB       135.5900  115.9380  102.4780 C.3   134  SER134      0.2089
    111  OG       134.5480  115.0520  102.1130 O.3   134  SER134     -0.2183
    112  N        129.0990  125.3990  105.2640 N.3   176  TYR176     -0.1241
    113  CA       130.2420  124.9120  106.0290 C.3   176  TYR176      0.1605
    114  C        131.1670  126.0560  106.4150 C.2   176  TYR176      0.2264
    115  O        131.7150  126.0830  107.5240 O.2   176  TYR176     -0.2867
    116  CB       130.9750  123.8570  105.2050 C.3   176  TYR176      0.0534
    117  CG       132.1420  123.2070  105.8860 C.ar  176  TYR176     -0.0201
    118  CD1      131.9550  122.3310  106.9370 C.ar  176  TYR176     -0.0009
    119  CD2      133.4270  123.4280  105.4430 C.ar  176  TYR176     -0.0009
    120  CE1      133.0200  121.7280  107.5530 C.ar  176  TYR176      0.0417
    121  CE2      134.4940  122.8260  106.0460 C.ar  176  TYR176      0.0417
    122  CZ       134.2850  121.9800  107.0990 C.ar  176  TYR176      0.1957
    123  OH       135.3560  121.3770  107.7010 O.3   176  TYR176     -0.2866
@<TRIPOS>BOND
     1   109   108    2
     2   108   107    1
     3    24    23    2
     4   107   106    1
     5   107   110    1
     6    26    25    1
     7    23    22    1
     8   111   110    1
     9    22    25    1
    10    22    21    1
    11    25    27    1
    12    16    15    2
    13   105   104    2
    14    21    15   am
    15    15    14    1
    16    99    98    2
    17   104   103    1
    18   116   117    1
    19   116   113    1
    20   112   113    1
    21    98    97    1
    22    98   102   am
    23    14    13    1
    24    14    17    1
    25   119   117   ar
    26   119   121   ar
    27   103   102    1
    28   117   118   ar
    29    97    96    1
    30    97   100    1
    31   113   114    1
    32   121   122   ar
    33   114   115    2
    34    17    18    1
    35     9     8    2
    36   100   101    1
    37   118   120   ar
    38   122   120   ar
    39   122   123    1
    40    91    90    2
    41    20    18    1
    42    18    19    1
    43     8     7    1
    44    90    89    1
    45    28    29    1
    46    87    86    2
    47     7    10    1
    48     7     6    1
    49    34    33    1
    50    94    92    1
    51    89    92    1
    52    89    88    1
    53    32    29    1
    54    32    33    1
    55    10    11    1
    56    29    30    1
    57    86    88   am
    58    86    85    1
    59     6    12    1
    60    33    35    1
    61    92    93    1
    62    11    12    1
    63    85    84    1
    64    30    31    2
    65    93    95    1
    66    42    41    1
    67    82    81    2
    68    41    43    1
    69    41    40    1
    70    36    37    1
    71    81    80    1
    72     4     3    2
    73    40    37    1
    74    37    38    1
    75     3     2    1
    76    74    73    2
    77    80    79    1
    78    80    83    1
    79    50    49    1
    80    73    79   am
    81    73    72    1
    82     2     1    1
    83     2     5    1
    84    38    39    2
    85    72    71    1
    86    72    75    1
    87    49    51    1
    88    49    48    1
    89    77    76    1
    90    76    75    1
    91    76    78    1
    92    48    45    1
    93    44    45    1
    94    63    62    2
    95    45    46    1
    96    62    61    1
    97    70    69   ar
    98    70    68   ar
    99    69    67   ar
   100    46    47    2
   101    68    66   ar
   102    67    65   ar
   103    61    60    1
   104    61    64    1
   105    58    57    1
   106    66    65   ar
   107    65    64    1
   108    57    59    1
   109    57    56    1
   110    56    53    1
   111    52    53    1
   112    53    54    1
   113    54    55    2
