@<TRIPOS>MOLECULE
tmp/6cjqC03.pdb
 85 81 0 0 0
SMALL
GASTEIGER

@<TRIPOS>ATOM
      1  N        144.6560  112.2300  114.3670 N.3    19  ILE19      -0.1245
      2  CA       145.3120  112.6080  113.1200 C.3    19  ILE19       0.1561
      3  C        144.8900  111.7360  111.9430 C.2    19  ILE19       0.2260
      4  O        144.7270  112.2550  110.8280 O.2    19  ILE19      -0.2867
      5  CB       146.8370  112.6320  113.3440 C.3    19  ILE19       0.0252
      6  CG1      147.1940  113.8270  114.2250 C.3    19  ILE19       0.0019
      7  CG2      147.6220  112.7050  112.0510 C.3    19  ILE19       0.0019
      8  CD1      148.6460  113.9130  114.5720 C.3    19  ILE19       0.0001
      9  N        141.6940  111.9740  107.9300 N.3    23  LEU23      -0.1245
     10  CA       142.5360  111.9690  106.7450 C.3    23  LEU23       0.1561
     11  C        142.2320  110.7660  105.8680 C.2    23  LEU23       0.2260
     12  O        142.4030  110.8350  104.6470 O.2    23  LEU23      -0.2867
     13  CB       144.0080  111.9960  107.1540 C.3    23  LEU23       0.0270
     14  CG       145.0710  112.4640  106.1580 C.3    23  LEU23       0.0019
     15  CD1      146.1980  113.0850  106.9330 C.3    23  LEU23       0.0001
     16  CD2      145.6170  111.3560  105.2960 C.3    23  LEU23       0.0001
     17  N        140.5980  110.1230  101.8860 N.3    27  PHE27      -0.1241
     18  CA       141.3350  109.3010  100.9410 C.3    27  PHE27       0.1605
     19  C        141.0090  107.8360  101.1740 C.2    27  PHE27       0.2264
     20  O        141.3870  107.2810  102.2150 O.2    27  PHE27      -0.2867
     21  CB       142.8370  109.5430  101.0720 C.3    27  PHE27       0.0534
     22  CG       143.2460  110.9430  100.7510 C.ar   27  PHE27      -0.0203
     23  CD1      143.2860  111.3800   99.4430 C.ar   27  PHE27      -0.0042
     24  CD2      143.6140  111.8140  101.7580 C.ar   27  PHE27      -0.0042
     25  CE1      143.6690  112.6690   99.1480 C.ar   27  PHE27      -0.0003
     26  CE2      144.0010  113.1010  101.4680 C.ar   27  PHE27      -0.0003
     27  CZ       144.0280  113.5280  100.1630 C.ar   27  PHE27      -0.0000
     28  N        144.7400  123.0280  117.0430 N.3   122  LEU122     -0.1231
     29  CA       145.4750  122.4590  115.9120 C.3   122  LEU122      0.1693
     30  C        144.8870  121.1190  115.4870 C.2   122  LEU122      0.2591
     31  O        144.6970  120.8580  114.2860 O.2   122  LEU122     -0.2718
     32  CB       146.9480  122.3040  116.2580 C.3   122  LEU122      0.0284
     33  CG       147.6960  123.6150  116.4670 C.3   122  LEU122      0.0019
     34  CD1      149.1190  123.3400  116.8870 C.3   122  LEU122      0.0001
     35  CD2      147.6670  124.4490  115.2130 C.3   122  LEU122      0.0001
     36  N        144.5210  120.2900  116.4650 N.am  123  LEU123     -0.1980
     37  CA       144.0210  118.9580  116.1780 C.3   123  LEU123      0.1596
     38  C        142.6300  118.9890  115.5610 C.2   123  LEU123      0.2287
     39  O        142.2410  118.0280  114.8950 O.2   123  LEU123     -0.2864
     40  CB       144.0320  118.1600  117.4750 C.3   123  LEU123      0.0297
     41  CG       143.9080  116.6550  117.4580 C.3   123  LEU123      0.0022
     42  CD1      145.0800  116.1140  116.6910 C.3   123  LEU123      0.0001
     43  CD2      143.9460  116.1730  118.8830 C.3   123  LEU123      0.0001
     44  N        143.0140  120.3790  111.7470 N.3   126  HIS126     -0.1241
     45  CA       143.2320  119.2600  110.8330 C.3   126  HIS126      0.1621
     46  C        141.9200  118.6420  110.3570 C.2   126  HIS126      0.2264
     47  O        141.7500  118.3770  109.1610 O.2   126  HIS126     -0.2867
     48  CB       144.1010  118.2010  111.4890 C.3   126  HIS126      0.0745
     49  CG       144.2360  116.9620  110.6730 C.ar  126  HIS126      0.0817
     50  ND1      144.9310  116.9250  109.4860 N.ar  126  HIS126     -0.2268
     51  CD2      143.7640  115.7110  110.8720 C.ar  126  HIS126      0.1154
     52  CE1      144.8770  115.7050  108.9870 C.ar  126  HIS126      0.1986
     53  NE2      144.1770  114.9480  109.8100 N.ar  126  HIS126     -0.2212
     54  N        147.8860  114.8600   96.4000 N.3   143  ALA143     -0.1231
     55  CA       147.3550  114.8930   97.7550 C.3   143  ALA143      0.1694
     56  C        148.2120  115.6940   98.7250 C.2   143  ALA143      0.2592
     57  O        147.9370  115.6700   99.9260 O.2   143  ALA143     -0.2718
     58  CB       147.1800  113.4710   98.2860 C.3   143  ALA143      0.0304
     59  N        149.2440  116.3810   98.2540 N.am  144  GLY144     -0.1957
     60  CA       149.9480  117.3220   99.0900 C.3   144  GLY144      0.1869
     61  C        149.4130  118.7180   98.8740 C.2   144  GLY144      0.2309
     62  O        149.0850  119.4150   99.8350 O.2   144  GLY144     -0.2863
     63  N        145.7800  119.2330  100.1720 N.3   147  TYR147     -0.1241
     64  CA       145.6990  119.3620  101.6160 C.3   147  TYR147      0.1605
     65  C        146.3200  120.6450  102.1160 C.2   147  TYR147      0.2264
     66  O        145.8510  121.2030  103.1130 O.2   147  TYR147     -0.2867
     67  CB       146.3940  118.1860  102.2980 C.3   147  TYR147      0.0534
     68  CG       146.3420  118.2240  103.8030 C.ar  147  TYR147     -0.0201
     69  CD1      145.1960  117.8620  104.4840 C.ar  147  TYR147     -0.0009
     70  CD2      147.4440  118.6200  104.5420 C.ar  147  TYR147     -0.0009
     71  CE1      145.1500  117.8920  105.8510 C.ar  147  TYR147      0.0417
     72  CE2      147.4010  118.6590  105.9080 C.ar  147  TYR147      0.0417
     73  CZ       146.2540  118.2910  106.5530 C.ar  147  TYR147      0.1957
     74  OH       146.2100  118.3260  107.9210 O.3   147  TYR147     -0.2866
     75  N        144.4920  123.4180  104.4890 N.3   151  PHE151     -0.1241
     76  CA       144.9680  123.7890  105.8140 C.3   151  PHE151      0.1605
     77  C        145.2830  125.2750  105.8840 C.2   151  PHE151      0.2264
     78  O        145.0410  125.9080  106.9180 O.2   151  PHE151     -0.2867
     79  CB       146.1930  122.9760  106.1950 C.3   151  PHE151      0.0534
     80  CG       146.5040  123.0210  107.6490 C.ar  151  PHE151     -0.0203
     81  CD1      145.7900  122.2490  108.5290 C.ar  151  PHE151     -0.0042
     82  CD2      147.4940  123.8370  108.1390 C.ar  151  PHE151     -0.0042
     83  CE1      146.0620  122.2810  109.8700 C.ar  151  PHE151     -0.0003
     84  CE2      147.7670  123.8720  109.4840 C.ar  151  PHE151     -0.0003
     85  CZ       147.0490  123.0930  110.3450 C.ar  151  PHE151     -0.0000
@<TRIPOS>BOND
     1    54    55    1
     2    55    58    1
     3    55    56    1
     4    59    56   am
     5    59    60    1
     6    56    57    2
     7    61    60    1
     8    61    62    2
     9    25    23   ar
    10    25    27   ar
    11    23    22   ar
    12    27    26   ar
    13    63    64    1
    14    22    21    1
    15    22    24   ar
    16    18    21    1
    17    18    19    1
    18    18    17    1
    19    19    20    2
    20    26    24   ar
    21    64    65    1
    22    64    67    1
    23    65    66    2
    24    67    68    1
    25    68    69   ar
    26    68    70   ar
    27    69    71   ar
    28    75    76    1
    29    70    72   ar
    30    12    11    2
    31    16    14    1
    32    76    77    1
    33    76    79    1
    34    71    73   ar
    35    11    10    1
    36    77    78    2
    37    72    73   ar
    38    14    15    1
    39    14    13    1
    40    79    80    1
    41    73    74    1
    42    10    13    1
    43    10     9    1
    44    80    82   ar
    45    80    81   ar
    46    82    84   ar
    47    81    83   ar
    48    52    50   ar
    49    52    53   ar
    50    47    46    2
    51    84    85   ar
    52    50    49   ar
    53    53    51   ar
    54    83    85   ar
    55    46    45    1
    56    49    51   ar
    57    49    48    1
    58     4     3    2
    59    45    48    1
    60    45    44    1
    61     3     2    1
    62     7     5    1
    63     2     5    1
    64     2     1    1
    65     5     6    1
    66     6     8    1
    67    31    30    2
    68    39    38    2
    69    35    33    1
    70    30    29    1
    71    30    36   am
    72    38    37    1
    73    29    32    1
    74    29    28    1
    75    37    36    1
    76    37    40    1
    77    32    33    1
    78    33    34    1
    79    42    41    1
    80    41    40    1
    81    41    43    1
