@<TRIPOS>MOLECULE
tmp/6cjrA00.pdb
 187 176 0 0 0
SMALL
GASTEIGER

@<TRIPOS>ATOM
      1  N         21.0830  100.2380 -105.0690 N.3    32  LEU32      -0.1245
      2  CA        20.0020  101.0540 -104.4960 C.3    32  LEU32       0.1561
      3  C         19.4760  100.4560 -103.1880 C.2    32  LEU32       0.2260
      4  O         19.1390  101.2030 -102.2580 O.2    32  LEU32      -0.2867
      5  CB        18.8890  101.2620 -105.5470 C.3    32  LEU32       0.0270
      6  CG        19.3800  101.9310 -106.8630 C.3    32  LEU32       0.0019
      7  CD1       18.3280  102.0370 -107.9610 C.3    32  LEU32       0.0001
      8  CD2       19.9930  103.3420 -106.6240 C.3    32  LEU32       0.0001
      9  N         22.0000  101.5620 -100.5560 N.3    35  ASN35      -0.1225
     10  CA        21.6670  102.9290 -100.1430 C.3    35  ASN35       0.1785
     11  C         20.4960  102.9300  -99.1790 C.2    35  ASN35       0.2597
     12  O         20.5530  103.5380  -98.0990 O.2    35  ASN35      -0.2718
     13  CB        21.3360  103.7680 -101.3750 C.3    35  ASN35       0.1169
     14  CG        22.5770  104.1860 -102.1560 C.2    35  ASN35       0.2627
     15  OD1       23.6890  104.1860 -101.6220 O.2    35  ASN35      -0.2716
     16  ND2       22.3980  104.4940 -103.4320 N.am   35  ASN35      -0.0877
     17  N         19.4390  102.2110  -99.5470 N.am   36  ALA36      -0.1979
     18  CA        18.2930  102.0240  -98.6590 C.3    36  ALA36       0.1597
     19  C         18.6760  101.4180  -97.3130 C.2    36  ALA36       0.2287
     20  O         18.2380  101.9010  -96.2630 O.2    36  ALA36      -0.2864
     21  CB        17.2540  101.1480  -99.3590 C.3    36  ALA36       0.0319
     22  N         21.5390  101.3460  -95.7270 N.3    38  ASP38      -0.1225
     23  CA        22.3060  102.3090  -94.9440 C.3    38  ASP38       0.1805
     24  C         21.3910  103.3860  -94.3530 C.2    38  ASP38       0.2597
     25  O         21.5210  103.7440  -93.1760 O.2    38  ASP38      -0.2718
     26  CB        23.3920  102.9200  -95.8250 C.3    38  ASP38       0.1424
     27  CG        24.4270  101.9030  -96.2760 C.2    38  ASP38       0.3668
     28  OD1       24.4990  100.7820  -95.7020 O.co2  38  ASP38      -0.2456
     29  OD2       25.1690  102.2410  -97.2210 O.co2  38  ASP38      -0.2456
     30  N         20.4630  103.9210  -95.1670 N.am   39  ALA39      -0.1979
     31  CA        19.4850  104.9020  -94.6720 C.3    39  ALA39       0.1597
     32  C         18.6380  104.3280  -93.5440 C.2    39  ALA39       0.2287
     33  O         18.3040  105.0230  -92.5790 O.2    39  ALA39      -0.2864
     34  CB        18.5790  105.3490  -95.8140 C.3    39  ALA39       0.0319
     35  N         20.7160  104.1150  -90.4230 N.3    42  LYS42      -0.1245
     36  CA        20.8970  105.4310  -89.8050 C.3    42  LYS42       0.1561
     37  C         19.6940  105.8530  -88.9530 C.2    42  LYS42       0.2260
     38  O         19.8620  106.3340  -87.8210 O.2    42  LYS42      -0.2867
     39  CB        21.1880  106.4630  -90.9020 C.3    42  LYS42       0.0271
     40  CG        21.3400  107.8710  -90.3600 C.3    42  LYS42       0.0035
     41  CD        22.0790  108.7680  -91.3440 C.3    42  LYS42       0.0206
     42  CE        22.5360  110.1160  -90.7250 C.3    42  LYS42       0.1093
     43  NZ        23.3750  110.8690  -91.7070 N.3    42  LYS42      -0.1314
     44  N         11.9510  103.1980  -99.3000 N.3    77  ASP77      -0.1239
     45  CA        12.4290  102.7520  -98.0020 C.3    77  ASP77       0.1674
     46  C         11.9090  103.7310  -96.9680 C.2    77  ASP77       0.2266
     47  O         11.5760  104.8760  -97.2910 O.2    77  ASP77      -0.2867
     48  CB        13.9810  102.6740  -97.9210 C.3    77  ASP77       0.1410
     49  CG        14.6700  104.0530  -98.0490 C.2    77  ASP77       0.3668
     50  OD1       14.6690  104.8370  -97.0580 O.co2  77  ASP77      -0.2456
     51  OD2       15.2440  104.3020  -99.1420 O.co2  77  ASP77      -0.2456
     52  N         16.2950  107.0930  -92.9760 N.3    80  ILE80      -0.1231
     53  CA        16.4030  108.4470  -92.4330 C.3    80  ILE80       0.1692
     54  C         15.7590  109.5230  -93.3450 C.2    80  ILE80       0.2593
     55  O         15.2090  110.5200  -92.8520 O.2    80  ILE80      -0.2718
     56  CB        17.9040  108.7340  -92.1730 C.3    80  ILE80       0.0266
     57  CG1       18.1090  110.0680  -91.4440 C.3    80  ILE80       0.0019
     58  CG2       18.7220  108.6650  -93.4890 C.3    80  ILE80       0.0020
     59  CD1       17.7180  110.0060  -90.0160 C.3    80  ILE80       0.0001
     60  N         15.7710  109.3350  -94.6550 N.am   81  GLY81      -0.1942
     61  CA        15.3040  110.3600  -95.5630 C.3    81  GLY81       0.2014
     62  C         16.3340  111.4620  -95.7750 C.2    81  GLY81       0.2638
     63  O         17.3730  111.5380  -95.1060 O.2    81  GLY81      -0.2714
     64  N         16.0350  112.3490  -96.7230 N.am   82  MET82      -0.1976
     65  CA        16.9470  113.4340  -97.0750 C.3    82  MET82       0.1605
     66  C         16.2270  114.7670  -97.0650 C.2    82  MET82       0.2287
     67  O         15.1540  114.9040  -97.6470 O.2    82  MET82      -0.2864
     68  CB        17.5870  113.2150  -98.4320 C.3    82  MET82       0.0413
     69  CG        18.6600  112.1170  -98.4120 C.3    82  MET82       0.0598
     70  SD        19.2610  111.7390 -100.0500 S.3    82  MET82      -0.1393
     71  CE        17.9450  110.6640 -100.6710 C.3    82  MET82       0.0692
     72  N         20.2990  118.2640  -98.0510 N.3    86  ASP86      -0.1225
     73  CA        20.8960  117.0430  -98.5870 C.3    86  ASP86       0.1805
     74  C         20.7200  116.9240 -100.0980 C.2    86  ASP86       0.2597
     75  O         21.6600  116.5490 -100.8060 O.2    86  ASP86      -0.2718
     76  CB        20.2940  115.8300  -97.8890 C.3    86  ASP86       0.1424
     77  CG        20.6600  115.7540  -96.4300 C.2    86  ASP86       0.3668
     78  OD1       21.6900  116.3330  -96.0470 O.co2  86  ASP86      -0.2456
     79  OD2       19.9130  115.1130  -95.6510 O.co2  86  ASP86      -0.2456
     80  N         19.5170  117.2030 -100.6100 N.am   87  LEU87      -0.1979
     81  CA        19.2290  117.0070 -102.0330 C.3    87  LEU87       0.1596
     82  C         19.8770  118.0730 -102.9100 C.2    87  LEU87       0.2287
     83  O         20.3640  117.7680 -104.0100 O.2    87  LEU87      -0.2864
     84  CB        17.7130  116.9980 -102.2620 C.3    87  LEU87       0.0297
     85  CG        16.9450  115.8520 -101.6020 C.3    87  LEU87       0.0022
     86  CD1       15.4550  116.0990 -101.5980 C.3    87  LEU87       0.0001
     87  CD2       17.2520  114.5650 -102.3370 C.3    87  LEU87       0.0001
     88  N         23.5560  117.4520 -103.1950 N.3    90  ASN90      -0.1225
     89  CA        23.8850  116.0590 -103.4670 C.3    90  ASN90       0.1785
     90  C         24.7110  115.4770 -102.3230 C.2    90  ASN90       0.2597
     91  O         25.7080  114.7790 -102.5540 O.2    90  ASN90      -0.2718
     92  CB        24.6110  115.9400 -104.8120 C.3    90  ASN90       0.1169
     93  CG        23.6610  116.0760 -106.0110 C.2    90  ASN90       0.2627
     94  OD1       22.4400  115.9390 -105.8560 O.2    90  ASN90      -0.2716
     95  ND2       24.2200  116.3190 -107.2080 N.am   90  ASN90      -0.0877
     96  N         24.2960  115.7870 -101.0910 N.am   91  LEU91      -0.1980
     97  CA        24.8680  115.3000  -99.8310 C.3    91  LEU91       0.1596
     98  C         26.2240  115.9010  -99.4740 C.2    91  LEU91       0.2287
     99  O         26.8630  115.4410  -98.5130 O.2    91  LEU91      -0.2864
    100  CB        24.9800  113.7680  -99.8170 C.3    91  LEU91       0.0297
    101  CG        23.6350  113.0300  -99.7630 C.3    91  LEU91       0.0022
    102  CD1       23.8280  111.5210  -99.9590 C.3    91  LEU91       0.0001
    103  CD2       22.9320  113.3110  -98.4070 C.3    91  LEU91       0.0001
    104  N         30.6970  113.0740  -99.3160 N.3    95  ALA95      -0.1231
    105  CA        29.9510  111.9010  -99.7930 C.3    95  ALA95       0.1694
    106  C         30.3880  111.4650 -101.1900 C.2    95  ALA95       0.2591
    107  O         30.4020  110.2640 -101.4920 O.2    95  ALA95      -0.2718
    108  CB        28.4470  112.2000  -99.7880 C.3    95  ALA95       0.0304
    109  N         30.6790  112.4200 -102.0720 N.am   96  LYS96      -0.1980
    110  CA        31.1090  112.1500 -103.4410 C.3    96  LYS96       0.1596
    111  C         32.6300  112.2510 -103.6290 C.2    96  LYS96       0.2287
    112  O         33.1010  112.3120 -104.7750 O.2    96  LYS96      -0.2864
    113  CB        30.3800  113.1100 -104.3850 C.3    96  LYS96       0.0298
    114  CG        28.8850  113.1890 -104.0650 C.3    96  LYS96       0.0038
    115  CD        28.0500  113.9260 -105.1150 C.3    96  LYS96       0.0206
    116  CE        28.3370  115.4260 -105.1280 C.3    96  LYS96       0.1093
    117  NZ        28.0400  116.0860 -103.8120 N.3    96  LYS96      -0.1314
    118  N         31.4250  105.0800 -102.6730 N.3   119  GLY119     -0.1210
    119  CA        30.3370  105.8280 -102.0680 C.3   119  GLY119      0.1956
    120  C         29.3200  106.4260 -103.0160 C.2   119  GLY119      0.2611
    121  O         28.4670  107.1890 -102.5480 O.2   119  GLY119     -0.2717
    122  N         29.3790  106.1050 -104.3170 N.am  120  VAL120     -0.1979
    123  CA        28.5410  106.7010 -105.3610 C.3   120  VAL120      0.1595
    124  C         27.6850  105.6760 -106.1110 C.2   120  VAL120      0.2287
    125  O         27.3480  105.8860 -107.2830 O.2   120  VAL120     -0.2864
    126  CB        29.4180  107.4800 -106.3650 C.3   120  VAL120      0.0276
    127  CG1       29.9390  108.7650 -105.7330 C.3   120  VAL120      0.0022
    128  CG2       30.5960  106.6160 -106.8470 C.3   120  VAL120      0.0022
    129  N         24.5940  105.1390 -106.0360 N.3   122  PHE122     -0.1227
    130  CA        23.3180  105.6940 -106.4870 C.3   122  PHE122      0.1736
    131  C         23.2840  105.8610 -107.9910 C.2   122  PHE122      0.2595
    132  O         22.2740  105.5560 -108.6330 O.2   122  PHE122     -0.2718
    133  CB        23.0870  107.0550 -105.8070 C.3   122  PHE122      0.0547
    134  CG        21.9640  107.8770 -106.4230 C.ar  122  PHE122     -0.0202
    135  CD1       20.6320  107.5700 -106.1620 C.ar  122  PHE122     -0.0042
    136  CD2       22.2510  108.9650 -107.2440 C.ar  122  PHE122     -0.0042
    137  CE1       19.6250  108.2960 -106.7290 C.ar  122  PHE122     -0.0003
    138  CE2       21.2400  109.7160 -107.8170 C.ar  122  PHE122     -0.0003
    139  CZ        19.9200  109.3840 -107.5510 C.ar  122  PHE122     -0.0000
    140  N         24.4040  106.2940 -108.5800 N.am  123  TYR123     -0.1976
    141  CA        24.4400  106.6600 -109.9910 C.3   123  TYR123      0.1639
    142  C         24.4780  105.4550 -110.9110 C.2   123  TYR123      0.2290
    143  O         24.3360  105.6260 -112.1290 O.2   123  TYR123     -0.2864
    144  CB        25.6290  107.6060 -110.2470 C.3   123  TYR123      0.0560
    145  CG        25.3980  108.9680 -109.6100 C.ar  123  TYR123     -0.0198
    146  CD1       24.6940  109.9600 -110.3070 C.ar  123  TYR123     -0.0009
    147  CD2       25.8150  109.2490 -108.3040 C.ar  123  TYR123     -0.0009
    148  CE1       24.4190  111.2000 -109.7400 C.ar  123  TYR123      0.0417
    149  CE2       25.5520  110.4960 -107.7170 C.ar  123  TYR123      0.0417
    150  CZ        24.8590  111.4760 -108.4520 C.ar  123  TYR123      0.1957
    151  OH        24.5870  112.7290 -107.8990 O.3   123  TYR123     -0.2866
    152  N         13.7090  111.4760 -107.2920 N.3   134  VAL134     -0.1245
    153  CA        14.0250  111.0690 -105.9350 C.3   134  VAL134      0.1561
    154  C         13.1270  111.8670 -105.0160 C.2   134  VAL134      0.2260
    155  O         13.2590  113.0980 -104.9160 O.2   134  VAL134     -0.2867
    156  CB        15.5080  111.2980 -105.5700 C.3   134  VAL134      0.0252
    157  CG1       15.7540  111.0020 -104.0710 C.3   134  VAL134      0.0019
    158  CG2       16.4360  110.4600 -106.4590 C.3   134  VAL134      0.0019
    159  N         13.7040  115.5140 -106.0000 N.3   146  TRP146     -0.1241
    160  CA        14.8980  115.7370 -106.8080 C.3   146  TRP146      0.1605
    161  C         14.7060  115.0410 -108.1550 C.2   146  TRP146      0.2264
    162  O         14.1370  113.9560 -108.2120 O.2   146  TRP146     -0.2867
    163  CB        16.0870  115.1820 -106.0060 C.3   146  TRP146      0.0550
    164  CG        17.4950  115.1900 -106.5840 C.ar  146  TRP146      0.0003
    165  CD1       18.5190  116.0030 -106.1880 C.ar  146  TRP146      0.0946
    166  CD2       18.0590  114.3020 -107.5890 C.ar  146  TRP146      0.0152
    167  NE1       19.6740  115.6990 -106.8910 N.ar  146  TRP146     -0.2442
    168  CE2       19.4140  114.6670 -107.7570 C.ar  146  TRP146      0.0810
    169  CE3       17.5530  113.2530 -108.3630 C.ar  146  TRP146      0.0012
    170  CZ2       20.2540  114.0130 -108.6470 C.ar  146  TRP146      0.0191
    171  CZ3       18.3970  112.6180 -109.2610 C.ar  146  TRP146      0.0001
    172  CH2       19.7220  112.9990 -109.3910 C.ar  146  TRP146      0.0015
    173  N         12.6610  107.5550  -98.4210 N.3   169  THR169     -0.1218
    174  CA        12.9920  107.9570  -99.7760 C.3   169  THR169      0.1862
    175  C         12.3250  107.0000 -100.7490 C.2   169  THR169      0.2287
    176  O         12.2400  105.8040 -100.4790 O.2   169  THR169     -0.2866
    177  CB        14.5370  107.9490  -99.9720 C.3   169  THR169      0.1770
    178  OG1       15.1740  108.8320  -99.0230 O.3   169  THR169     -0.2211
    179  CG2       14.9510  108.3510 -101.3650 C.3   169  THR169      0.0375
    180  N         12.7650  106.1880 -104.9820 N.3   171  LEU171     -0.1245
    181  CA        13.3040  106.3740 -106.3200 C.3   171  LEU171      0.1561
    182  C         12.3070  105.8760 -107.3480 C.2   171  LEU171      0.2260
    183  O         11.6820  104.8330 -107.1660 O.2   171  LEU171     -0.2867
    184  CB        14.6350  105.6280 -106.4920 C.3   171  LEU171      0.0270
    185  CG        15.8970  106.3400 -105.9630 C.3   171  LEU171      0.0019
    186  CD1       15.8010  106.7040 -104.5200 C.3   171  LEU171      0.0001
    187  CD2       17.1370  105.5070 -106.1920 C.3   171  LEU171      0.0001
@<TRIPOS>BOND
     1   143   142    2
     2   142   141    1
     3   146   148   ar
     4   146   145   ar
     5   144   141    1
     6   144   145    1
     7   141   140    1
     8   148   150   ar
     9   145   147   ar
    10   172   171   ar
    11   172   170   ar
    12   171   169   ar
    13   170   168   ar
    14   132   131    2
    15   140   131   am
    16   150   151    1
    17   150   149   ar
    18   169   166   ar
    19   147   149   ar
    20   162   161    2
    21   161   160    1
    22   131   130    1
    23     7     6    1
    24   138   139   ar
    25   138   136   ar
    26   168   166   ar
    27   168   167   ar
    28   166   164   ar
    29   139   137   ar
    30   182   183    2
    31   182   181    1
    32   152   153    1
    33   125   124    2
    34   136   134   ar
    35    95    93   am
    36   167   165   ar
    37     6     8    1
    38     6     5    1
    39   128   126    1
    40   160   163    1
    41   160   159    1
    42   137   135   ar
    43   164   165   ar
    44   164   163    1
    45   184   181    1
    46   184   185    1
    47   130   129    1
    48   130   133    1
    49   158   156    1
    50   134   135   ar
    51   134   133    1
    52   126   127    1
    53   126   123    1
    54   181   180    1
    55   187   185    1
    56   124   123    1
    57    93    94    2
    58    93    92    1
    59   185   186    1
    60   153   156    1
    61   153   154    1
    62   156   157    1
    63     5     2    1
    64   123   122    1
    65   116   115    1
    66   116   117    1
    67   115   114    1
    68     1     2    1
    69   154   155    2
    70    92    89    1
    71   112   111    2
    72     2     3    1
    73   113   114    1
    74   113   110    1
    75   122   120   am
    76    83    82    2
    77   111   110    1
    78    89    88    1
    79    89    90    1
    80   110   109    1
    81    16    14   am
    82     3     4    2
    83   120   121    2
    84   120   119    1
    85    82    81    1
    86   118   119    1
    87    91    90    2
    88    87    85    1
    89    90    96   am
    90    84    81    1
    91    84    85    1
    92    14    15    2
    93    14    13    1
    94   109   106   am
    95    81    80    1
    96    85    86    1
    97   107   106    2
    98    13    10    1
    99   179   177    1
   100   106   105    1
   101    96    97    1
   102    75    74    2
   103   175   176    2
   104   175   174    1
   105    71    70    1
   106    80    74   am
   107     9    10    1
   108    10    11    1
   109    74    73    1
   110    70    69    1
   111   177   174    1
   112   177   178    1
   113   102   101    1
   114    97   100    1
   115    97    98    1
   116   100   101    1
   117   105   108    1
   118   105   104    1
   119   174   173    1
   120   101   103    1
   121    17    11   am
   122    17    18    1
   123    98    99    2
   124    21    18    1
   125    44    45    1
   126    11    12    2
   127    51    49   ar
   128    18    19    1
   129    73    72    1
   130    73    76    1
   131    68    69    1
   132    68    65    1
   133    49    48    1
   134    49    50   ar
   135    45    48    1
   136    45    46    1
   137    76    77    1
   138    67    66    2
   139    19    20    2
   140    47    46    2
   141    29    27   ar
   142    65    66    1
   143    65    64    1
   144    64    62   am
   145    77    78   ar
   146    77    79   ar
   147    27    26    1
   148    27    28   ar
   149    26    23    1
   150    34    31    1
   151    62    61    1
   152    62    63    2
   153    22    23    1
   154    61    60    1
   155    30    31    1
   156    30    24   am
   157    23    24    1
   158    31    32    1
   159    60    54   am
   160    24    25    2
   161    32    33    2
   162    58    56    1
   163    54    55    2
   164    54    53    1
   165    52    53    1
   166    53    56    1
   167    56    57    1
   168    43    42    1
   169    57    59    1
   170    41    42    1
   171    41    40    1
   172    39    40    1
   173    39    36    1
   174    35    36    1
   175    36    37    1
   176    37    38    2
