@<TRIPOS>MOLECULE
tmp/6cjsA00.pdb
 173 161 0 0 0
SMALL
GASTEIGER

@<TRIPOS>ATOM
      1  N         20.4950  -34.3500  -18.3870 N.3    37  LEU37      -0.1245
      2  CA        20.0710  -33.1390  -17.7010 C.3    37  LEU37       0.1561
      3  C         21.0990  -32.0320  -17.8770 C.2    37  LEU37       0.2260
      4  O         20.7520  -30.8540  -18.0020 O.2    37  LEU37      -0.2867
      5  CB        19.8770  -33.4170  -16.1980 C.3    37  LEU37       0.0270
      6  CG        18.6990  -34.2890  -15.7980 C.3    37  LEU37       0.0019
      7  CD1       18.9130  -34.9110  -14.4380 C.3    37  LEU37       0.0001
      8  CD2       17.4530  -33.4370  -15.7990 C.3    37  LEU37       0.0001
      9  N         20.8200  -30.5510  -21.3900 N.3    40  ASN40      -0.1225
     10  CA        19.7320  -29.5930  -21.5330 C.3    40  ASN40       0.1785
     11  C         20.0360  -28.2640  -20.8350 C.2    40  ASN40       0.2597
     12  O         19.7280  -27.1940  -21.3730 O.2    40  ASN40      -0.2718
     13  CB        18.4340  -30.2420  -21.0280 C.3    40  ASN40       0.1169
     14  CG        17.9620  -31.3830  -21.9910 C.2    40  ASN40       0.2627
     15  OD1       18.3650  -31.4130  -23.1560 O.2    40  ASN40      -0.2716
     16  ND2       17.1490  -32.3140  -21.4840 N.am   40  ASN40      -0.0877
     17  N         20.6300  -28.3040  -19.6470 N.am   41  ALA41      -0.1979
     18  CA        21.0660  -27.0710  -19.0040 C.3    41  ALA41       0.1597
     19  C         22.0610  -26.2960  -19.8740 C.2    41  ALA41       0.2287
     20  O         21.9720  -25.0660  -19.9950 O.2    41  ALA41      -0.2864
     21  CB        21.6900  -27.4100  -17.6390 C.3    41  ALA41       0.0319
     22  N         22.3000  -26.1630  -23.0680 N.3    43  ASP43      -0.1225
     23  CA        21.5890  -25.5140  -24.1640 C.3    43  ASP43       0.1805
     24  C         20.9080  -24.2340  -23.6890 C.2    43  ASP43       0.2597
     25  O         20.9560  -23.2060  -24.3720 O.2    43  ASP43      -0.2718
     26  CB        20.5530  -26.4780  -24.7750 C.3    43  ASP43       0.1424
     27  CG        21.2040  -27.6940  -25.5610 C.2    43  ASP43       0.3668
     28  OD1       22.4420  -27.6980  -25.7910 O.co2  43  ASP43      -0.2456
     29  OD2       20.4480  -28.6660  -25.8660 O.co2  43  ASP43      -0.2456
     30  N         20.2840  -24.2700  -22.5080 N.am   44  ALA44      -0.1979
     31  CA        19.6610  -23.0680  -21.9720 C.3    44  ALA44       0.1597
     32  C         20.6960  -22.0170  -21.5930 C.2    44  ALA44       0.2287
     33  O         20.4500  -20.8180  -21.7410 O.2    44  ALA44      -0.2864
     34  CB        18.8050  -23.4270  -20.7620 C.3    44  ALA44       0.0319
     35  N         21.6640  -20.1250  -24.7690 N.3    47  LYS47      -0.1245
     36  CA        20.6880  -19.1270  -25.2020 C.3    47  LYS47       0.1561
     37  C         20.8580  -17.8040  -24.4580 C.2    47  LYS47       0.2260
     38  O         20.8530  -16.7370  -25.0870 O.2    47  LYS47      -0.2867
     39  CB        19.2720  -19.6630  -25.0410 C.3    47  LYS47       0.0271
     40  CG        19.0330  -20.8700  -25.9290 C.3    47  LYS47       0.0035
     41  CD        17.6440  -21.4400  -25.7560 C.3    47  LYS47       0.0206
     42  CE        17.4110  -22.5580  -26.7850 C.3    47  LYS47       0.1093
     43  NZ        16.2850  -23.4400  -26.4410 N.3    47  LYS47      -0.1314
     44  N         20.4980  -24.6730  -13.0920 N.3    82  ASP82      -0.1239
     45  CA        21.3350  -23.9510  -14.0310 C.3    82  ASP82       0.1674
     46  C         20.8860  -22.5000  -14.0010 C.2    82  ASP82       0.2266
     47  O         19.7820  -22.1580  -13.5450 O.2    82  ASP82      -0.2867
     48  CB        21.2800  -24.5410  -15.4570 C.3    82  ASP82       0.1410
     49  CG        19.9020  -24.4390  -16.0850 C.2    82  ASP82       0.3668
     50  OD1       19.4340  -23.3070  -16.3040 O.co2  82  ASP82      -0.2456
     51  OD2       19.2820  -25.5190  -16.3280 O.co2  82  ASP82      -0.2456
     52  N         18.6820  -19.4610  -19.6380 N.3    85  ILE85      -0.1231
     53  CA        17.7020  -18.4370  -19.9830 C.3    85  ILE85       0.1692
     54  C         16.3870  -18.6040  -19.2300 C.2    85  ILE85       0.2593
     55  O         15.6580  -17.6330  -19.0130 O.2    85  ILE85      -0.2718
     56  CB        17.4480  -18.4530  -21.5000 C.3    85  ILE85       0.0266
     57  CG1       16.6140  -17.2200  -21.8800 C.3    85  ILE85       0.0019
     58  CG2       16.6770  -19.7190  -21.9210 C.3    85  ILE85       0.0020
     59  CD1       17.1350  -16.5330  -23.0800 C.3    85  ILE85       0.0001
     60  N         16.0280  -19.8140  -18.8790 N.am   86  GLY86      -0.1942
     61  CA        14.7880  -20.0470  -18.1730 C.3    86  GLY86       0.2014
     62  C         13.5760  -20.0370  -19.0850 C.2    86  GLY86       0.2638
     63  O         13.6510  -19.7770  -20.2940 O.2    86  GLY86      -0.2714
     64  N         12.4290  -20.3490  -18.4720 N.am   87  MET87      -0.1976
     65  CA        11.1700  -20.4610  -19.1960 C.3    87  MET87       0.1605
     66  C         10.0820  -19.6130  -18.5570 C.2    87  MET87       0.2287
     67  O          9.8340  -19.6900  -17.3490 O.2    87  MET87      -0.2864
     68  CB        10.6980  -21.9320  -19.2790 C.3    87  MET87       0.0413
     69  CG        11.5900  -22.8160  -20.1520 C.3    87  MET87       0.0598
     70  SD        11.1450  -24.5720  -20.0650 S.3    87  MET87      -0.1393
     71  CE        11.9490  -24.9990  -18.5000 C.3    87  MET87       0.0692
     72  N          6.3870  -20.5400  -22.0710 N.3    91  ASP91      -0.1225
     73  CA         7.4770  -21.4130  -22.5050 C.3    91  ASP91       0.1805
     74  C          7.3980  -22.7860  -21.8300 C.2    91  ASP91       0.2597
     75  O          7.6520  -23.8180  -22.4600 O.2    91  ASP91      -0.2718
     76  CB         8.8470  -20.7900  -22.1850 C.3    91  ASP91       0.1424
     77  CG         9.1380  -19.5100  -22.9650 C.2    91  ASP91       0.3668
     78  OD1        8.5720  -19.3330  -24.0670 O.co2  91  ASP91      -0.2456
     79  OD2        9.9750  -18.7070  -22.4870 O.co2  91  ASP91      -0.2456
     80  N          7.1500  -22.8150  -20.5200 N.am   92  LEU92      -0.1979
     81  CA         7.1060  -24.0870  -19.8090 C.3    92  LEU92       0.1596
     82  C          5.9610  -24.9550  -20.3190 C.2    92  LEU92       0.2287
     83  O          6.1470  -26.1550  -20.5670 O.2    92  LEU92      -0.2864
     84  CB         6.9950  -23.8120  -18.3050 C.3    92  LEU92       0.0297
     85  CG         7.1970  -24.9660  -17.3430 C.3    92  LEU92       0.0022
     86  CD1        8.4210  -25.7680  -17.6310 C.3    92  LEU92       0.0001
     87  CD2        7.2400  -24.3620  -15.9370 C.3    92  LEU92       0.0001
     88  N          7.0470  -26.1220  -23.9190 N.3    95  ASN95      -0.1225
     89  CA         8.1040  -27.1320  -23.8990 C.3    95  ASN95       0.1785
     90  C          7.6050  -28.4690  -23.3430 C.2    95  ASN95       0.2597
     91  O          7.9410  -29.5340  -23.8820 O.2    95  ASN95      -0.2718
     92  CB         9.2980  -26.6160  -23.0990 C.3    95  ASN95       0.1169
     93  CG        10.2670  -25.8260  -23.9550 C.2    95  ASN95       0.2627
     94  OD1       11.1060  -26.3930  -24.6510 O.2    95  ASN95      -0.2716
     95  ND2       10.1550  -24.5110  -23.9100 N.am   95  ASN95      -0.0877
     96  N          6.7580  -28.4430  -22.3070 N.am   96  LEU96      -0.1980
     97  CA         6.1960  -29.6970  -21.8280 C.3    96  LEU96       0.1596
     98  C          5.3120  -30.3300  -22.9070 C.2    96  LEU96       0.2287
     99  O          5.3270  -31.5540  -23.0800 O.2    96  LEU96      -0.2864
    100  CB         5.4350  -29.4750  -20.5100 C.3    96  LEU96       0.0297
    101  CG         6.3320  -29.0660  -19.3070 C.3    96  LEU96       0.0022
    102  CD1        5.5810  -28.7360  -18.0200 C.3    96  LEU96       0.0001
    103  CD2        7.3510  -30.1740  -19.0220 C.3    96  LEU96       0.0001
    104  N          7.5920  -31.9420  -25.4240 N.3    99  ILE99      -0.1245
    105  CA         8.1640  -33.1420  -24.8150 C.3    99  ILE99       0.1561
    106  C          7.1150  -34.2450  -24.7530 C.2    99  ILE99       0.2260
    107  O          7.3750  -35.4030  -25.1140 O.2    99  ILE99      -0.2867
    108  CB         8.7400  -32.8060  -23.4270 C.3    99  ILE99       0.0252
    109  CG1        9.9870  -31.9260  -23.5790 C.3    99  ILE99       0.0019
    110  CG2        9.0330  -34.0700  -22.6670 C.3    99  ILE99       0.0019
    111  CD1       10.3160  -31.2220  -22.2660 C.3    99  ILE99       0.0001
    112  N         14.5870  -37.5460  -30.1770 N.3   123  PHE123     -0.1227
    113  CA        14.1930  -36.2730  -29.5980 C.3   123  PHE123      0.1736
    114  C         13.3300  -36.4900  -28.3500 C.2   123  PHE123      0.2596
    115  O         12.3780  -37.2750  -28.3690 O.2   123  PHE123     -0.2718
    116  CB        13.3940  -35.4420  -30.6070 C.3   123  PHE123      0.0547
    117  CG        13.0220  -34.0710  -30.0860 C.ar  123  PHE123     -0.0202
    118  CD1       11.8750  -33.8830  -29.3290 C.ar  123  PHE123     -0.0042
    119  CD2       13.8400  -32.9790  -30.3250 C.ar  123  PHE123     -0.0042
    120  CE1       11.5550  -32.6110  -28.8440 C.ar  123  PHE123     -0.0003
    121  CE2       13.5080  -31.7150  -29.8590 C.ar  123  PHE123     -0.0003
    122  CZ        12.3590  -31.5360  -29.1290 C.ar  123  PHE123     -0.0000
    123  N         13.6650  -35.7840  -27.2640 N.am  124  GLY124     -0.1957
    124  CA        12.8710  -35.8080  -26.0540 C.3   124  GLY124      0.1869
    125  C         13.2070  -36.9210  -25.0870 C.2   124  GLY124      0.2309
    126  O         12.8950  -36.8020  -23.8910 O.2   124  GLY124     -0.2863
    127  N         15.9060  -37.6740  -23.7750 N.3   126  GLY126     -0.1210
    128  CA        16.7950  -37.1710  -22.7460 C.3   126  GLY126      0.1956
    129  C         16.0470  -36.6440  -21.5310 C.2   126  GLY126      0.2611
    130  O         16.4670  -36.8450  -20.3880 O.2   126  GLY126     -0.2717
    131  N         14.9270  -35.9660  -21.7590 N.am  127  PHE127     -0.1976
    132  CA        14.1380  -35.5140  -20.6350 C.3   127  PHE127      0.1639
    133  C         13.6300  -36.7040  -19.8380 C.2   127  PHE127      0.2290
    134  O         13.7760  -36.7570  -18.6110 O.2   127  PHE127     -0.2864
    135  CB        12.9560  -34.6690  -21.1050 C.3   127  PHE127      0.0560
    136  CG        11.9710  -34.3890  -20.0170 C.ar  127  PHE127     -0.0200
    137  CD1       12.2350  -33.4090  -19.0960 C.ar  127  PHE127     -0.0042
    138  CD2       10.8110  -35.1080  -19.9100 C.ar  127  PHE127     -0.0042
    139  CE1       11.3490  -33.1390  -18.0730 C.ar  127  PHE127     -0.0003
    140  CE2        9.9180  -34.8550  -18.8940 C.ar  127  PHE127     -0.0003
    141  CZ        10.1820  -33.8500  -17.9720 C.ar  127  PHE127     -0.0000
    142  N          9.7920  -29.2570  -12.0060 N.3   139  VAL139     -0.1245
    143  CA        10.5320  -28.4030  -12.9200 C.3   139  VAL139      0.1561
    144  C         10.2200  -26.9770  -12.5120 C.2   139  VAL139      0.2260
    145  O          9.0650  -26.5590  -12.5990 O.2   139  VAL139     -0.2867
    146  CB        10.1350  -28.6450  -14.3890 C.3   139  VAL139      0.0252
    147  CG1       10.8380  -27.6370  -15.2700 C.3   139  VAL139      0.0019
    148  CG2       10.4930  -30.0530  -14.8240 C.3   139  VAL139      0.0019
    149  N         12.4160  -16.9950  -15.9840 N.3   143  HIS143     -0.1241
    150  CA        12.8720  -16.2270  -17.1360 C.3   143  HIS143      0.1621
    151  C         12.8360  -14.7530  -16.7510 C.2   143  HIS143      0.2264
    152  O         12.0200  -14.3380  -15.9220 O.2   143  HIS143     -0.2867
    153  CB        11.9770  -16.5080  -18.3580 C.3   143  HIS143      0.0745
    154  CG        12.4820  -15.9260  -19.6450 C.ar  143  HIS143      0.0817
    155  ND1       12.4240  -14.5790  -19.9310 N.ar  143  HIS143     -0.2268
    156  CD2       13.0370  -16.5190  -20.7330 C.ar  143  HIS143      0.1154
    157  CE1       12.9250  -14.3640  -21.1350 C.ar  143  HIS143      0.1986
    158  NE2       13.3100  -15.5240  -21.6420 N.ar  143  HIS143     -0.2212
    159  N         16.7240  -22.6100  -14.4350 N.3   174  THR174     -0.1218
    160  CA        15.8450  -23.7520  -14.2380 C.3   174  THR174      0.1862
    161  C         16.4420  -24.7060  -13.2180 C.2   174  THR174      0.2287
    162  O         17.6570  -24.9110  -13.1760 O.2   174  THR174     -0.2866
    163  CB        15.5970  -24.4610  -15.5900 C.3   174  THR174      0.1770
    164  OG1       14.9060  -23.5530  -16.4600 O.3   174  THR174     -0.2211
    165  CG2       14.7720  -25.7360  -15.4390 C.3   174  THR174      0.0375
    166  N         15.5780  -28.6750  -11.8720 N.3   176  LEU176     -0.1245
    167  CA        14.8330  -29.9160  -11.7560 C.3   176  LEU176      0.1561
    168  C         15.1030  -30.5120  -10.3840 C.2   176  LEU176      0.2260
    169  O         16.2610  -30.6220   -9.9550 O.2   176  LEU176     -0.2867
    170  CB        15.2250  -30.9120  -12.8440 C.3   176  LEU176      0.0270
    171  CG        14.4330  -30.7260  -14.1470 C.3   176  LEU176      0.0019
    172  CD1       14.7490  -29.3480  -14.7320 C.3   176  LEU176      0.0001
    173  CD2       14.7830  -31.8160  -15.1350 C.3   176  LEU176      0.0001
@<TRIPOS>BOND
     1   116   117    1
     2   116   113    1
     3   119   117   ar
     4   119   121   ar
     5   112   113    1
     6   117   118   ar
     7   121   122   ar
     8   113   114    1
     9   118   120   ar
    10   122   120   ar
    11   115   114    2
    12   114   123   am
    13   123   124    1
    14    42    43    1
    15    42    41    1
    16   124   125    1
    17    40    41    1
    18    40    39    1
    19    29    27   ar
    20    28    27   ar
    21    27    26    1
    22   104   105    1
    23    36    39    1
    24    36    35    1
    25    36    37    1
    26   107   106    2
    27   125   126    2
    28    38    37    2
    29   105   106    1
    30   105   108    1
    31    26    23    1
    32    94    93    2
    33    25    24    2
    34    23    24    1
    35    23    22    1
    36    78    77   ar
    37    93    95   am
    38    93    92    1
    39    88    89    1
    40    89    90    1
    41    89    92    1
    42    91    90    2
    43   127   128    1
    44    24    30   am
    45   109   108    1
    46   109   111    1
    47   108   110    1
    48    90    96   am
    49    15    14    2
    50    59    57    1
    51    99    98    2
    52    77    79   ar
    53    77    76    1
    54    98    97    1
    55   128   129    1
    56    30    31    1
    57    73    76    1
    58    73    72    1
    59    73    74    1
    60    75    74    2
    61    96    97    1
    62    14    16   am
    63    14    13    1
    64    31    32    1
    65    31    34    1
    66    58    56    1
    67    57    56    1
    68    74    80   am
    69    97   100    1
    70   131   129   am
    71   131   132    1
    72    33    32    2
    73   158   157   ar
    74   158   156   ar
    75    10     9    1
    76    10    13    1
    77    10    11    1
    78   129   130    2
    79    56    53    1
    80    12    11    2
    81   157   155   ar
    82   135   132    1
    83   135   136    1
    84    11    17   am
    85   156   154   ar
    86   132   133    1
    87    83    82    2
    88    80    81    1
    89   100   101    1
    90    82    81    1
    91    63    62    2
    92    69    70    1
    93    69    68    1
    94    70    71    1
    95   136   138   ar
    96   136   137   ar
    97    20    19    2
    98    53    52    1
    99    53    54    1
   100   155   154   ar
   101   138   140   ar
   102    19    18    1
   103   133   134    2
   104    81    84    1
   105    17    18    1
   106   154   153    1
   107   101   103    1
   108   101   102    1
   109    68    65    1
   110    54    55    2
   111    54    60   am
   112    65    66    1
   113    65    64    1
   114   137   139   ar
   115    62    64   am
   116    62    61    1
   117    18    21    1
   118   140   141   ar
   119    60    61    1
   120    66    67    2
   121     1     2    1
   122   153   150    1
   123    84    85    1
   124   139   141   ar
   125     4     3    2
   126     3     2    1
   127     2     5    1
   128    86    85    1
   129    85    87    1
   130   150   151    1
   131   150   149    1
   132   151   152    2
   133   164   163    1
   134    51    49   ar
   135    50    49   ar
   136     5     6    1
   137    49    48    1
   138     8     6    1
   139     6     7    1
   140   163   165    1
   141   163   160    1
   142    48    45    1
   143   147   146    1
   144   173   171    1
   145   148   146    1
   146   172   171    1
   147   159   160    1
   148   146   143    1
   149   160   161    1
   150   171   170    1
   151    45    46    1
   152    45    44    1
   153    46    47    2
   154   161   162    2
   155   143   144    1
   156   143   142    1
   157   170   167    1
   158   145   144    2
   159   166   167    1
   160   167   168    1
   161   168   169    2
