@<TRIPOS>MOLECULE
tmp/6cjtC05.pdb
 150 140 0 0 0
SMALL
GASTEIGER

@<TRIPOS>ATOM
      1  N        143.1280  110.7980  115.9740 N.3    18  ALA18      -0.1245
      2  CA       142.7220  112.1650  115.6780 C.3    18  ALA18       0.1562
      3  C        143.4010  112.7060  114.4320 C.2    18  ALA18       0.2260
      4  O        142.8000  113.4920  113.6960 O.2    18  ALA18      -0.2867
      5  CB       143.0100  113.0620  116.8760 C.3    18  ALA18       0.0290
      6  N        139.9840  111.5060  109.9980 N.3    22  PRO22      -0.2116
      7  CA       139.4660  112.4020  108.9560 C.3    22  PRO22       0.1372
      8  C        140.3450  112.4730  107.7300 C.2    22  PRO22       0.2244
      9  O        139.8790  112.9210  106.6790 O.2    22  PRO22      -0.2868
     10  CB       139.3940  113.7580  109.6570 C.3    22  PRO22       0.0268
     11  CG       140.4120  113.6960  110.6580 C.3    22  PRO22       0.0207
     12  CD       140.3960  112.3150  111.1680 C.3    22  PRO22       0.0892
     13  N        139.0460  109.3880  105.7550 N.3    25  LEU25      -0.1231
     14  CA       137.7070  109.5440  105.1970 C.3    25  LEU25       0.1693
     15  C        137.7500  110.2200  103.8360 C.2    25  LEU25       0.2591
     16  O        136.9210  109.9290  102.9680 O.2    25  LEU25      -0.2718
     17  CB       136.8120  110.3300  106.1440 C.3    25  LEU25       0.0284
     18  CG       136.3550  109.5810  107.3800 C.3    25  LEU25       0.0019
     19  CD1      135.5430  110.5040  108.2220 C.3    25  LEU25       0.0001
     20  CD2      135.5250  108.4060  106.9550 C.3    25  LEU25       0.0001
     21  N        138.7030  111.1240  103.6270 N.am   26  VAL26      -0.1980
     22  CA       138.8170  111.7760  102.3290 C.3    26  VAL26       0.1595
     23  C        139.4860  110.8450  101.3310 C.2    26  VAL26       0.2287
     24  O        139.0330  110.6980  100.1910 O.2    26  VAL26      -0.2864
     25  CB       139.5830  113.1020  102.4580 C.3    26  VAL26       0.0276
     26  CG1      139.7350  113.7560  101.1020 C.3    26  VAL26       0.0022
     27  CG2      138.8740  114.0230  103.4100 C.3    26  VAL26       0.0022
     28  N        128.9920  108.2870  102.2720 N.3    86  SER86      -0.1203
     29  CA       129.3950  109.5420  102.8990 C.3    86  SER86       0.2005
     30  C        128.5420  110.0120  104.0850 C.2    86  SER86       0.2460
     31  O        129.1360  110.3880  105.1020 O.2    86  SER86      -0.2732
     32  CB       129.4800  110.6420  101.8330 C.3    86  SER86       0.2103
     33  OG       130.5100  110.3700  100.8970 O.3    86  SER86      -0.2182
     34  N        127.2000  110.0270  104.0600 N.am   87  PRO87      -0.2728
     35  CA       126.4860  110.4680  105.2660 C.3    87  PRO87       0.1401
     36  C        126.4620  109.4470  106.3880 C.2    87  PRO87       0.2269
     37  O        125.9600  109.7610  107.4720 O.2    87  PRO87      -0.2865
     38  CB       125.0650  110.7320  104.7550 C.3    87  PRO87       0.0296
     39  CG       124.9050  109.8070  103.6510 C.3    87  PRO87       0.0237
     40  CD       126.2290  109.7540  102.9740 C.3    87  PRO87       0.0939
     41  N        129.4010  107.1880  106.9780 N.3    89  SER89      -0.1202
     42  CA       130.7590  106.9210  107.4340 C.3    89  SER89       0.2020
     43  C        131.1490  107.7550  108.6440 C.2    89  SER89       0.2618
     44  O        132.0480  107.3540  109.3940 O.2    89  SER89      -0.2717
     45  CB       131.7360  107.2080  106.3040 C.3    89  SER89       0.2103
     46  OG       131.7520  108.5910  106.0240 O.3    89  SER89      -0.2182
     47  N        130.4680  108.8840  108.8600 N.am   90  LEU90      -0.1979
     48  CA       130.8930  109.9070  109.8060 C.3    90  LEU90       0.1596
     49  C        130.8770  109.4250  111.2530 C.2    90  LEU90       0.2287
     50  O        131.5720  110.0070  112.0920 O.2    90  LEU90      -0.2864
     51  CB       130.0070  111.1380  109.6150 C.3    90  LEU90       0.0297
     52  CG       130.3450  112.4950  110.2270 C.3    90  LEU90       0.0022
     53  CD1      129.8900  113.5760  109.2710 C.3    90  LEU90       0.0001
     54  CD2      129.6690  112.6970  111.5770 C.3    90  LEU90       0.0001
     55  N        133.9730  108.9940  113.4770 N.3    93  LEU93      -0.1245
     56  CA       134.4370  110.0570  114.3550 C.3    93  LEU93       0.1561
     57  C        134.1240  109.8250  115.8280 C.2    93  LEU93       0.2260
     58  O        134.5710  110.6310  116.6510 O.2    93  LEU93      -0.2867
     59  CB       133.8160  111.3890  113.9410 C.3    93  LEU93       0.0270
     60  CG       134.4470  112.2770  112.8750 C.3    93  LEU93       0.0019
     61  CD1      134.3380  111.6980  111.4980 C.3    93  LEU93       0.0001
     62  CD2      133.7440  113.6070  112.9260 C.3    93  LEU93       0.0001
     63  N        136.8690  109.8750  118.2840 N.3    96  LEU96      -0.1245
     64  CA       137.3040  111.1970  118.7100 C.3    96  LEU96       0.1561
     65  C        136.7100  111.6360  120.0400 C.2    96  LEU96       0.2260
     66  O        137.1490  112.6540  120.5810 O.2    96  LEU96      -0.2867
     67  CB       136.9520  112.2290  117.6440 C.3    96  LEU96       0.0270
     68  CG       137.6630  111.9750  116.3230 C.3    96  LEU96       0.0019
     69  CD1      137.2810  113.0110  115.2930 C.3    96  LEU96       0.0001
     70  CD2      139.1430  111.9650  116.5500 C.3    96  LEU96       0.0001
     71  N        139.1930  111.8330  123.4000 N.3    99  LEU99      -0.1245
     72  CA       139.9660  112.9990  123.8170 C.3    99  LEU99       0.1561
     73  C        139.4380  113.6400  125.0930 C.2    99  LEU99       0.2260
     74  O        140.1980  114.3260  125.7830 O.2    99  LEU99      -0.2867
     75  CB       139.9800  114.0340  122.6960 C.3    99  LEU99       0.0270
     76  CG       140.6660  113.5720  121.4130 C.3    99  LEU99       0.0019
     77  CD1      140.4910  114.6000  120.3250 C.3    99  LEU99       0.0001
     78  CD2      142.1320  113.3180  121.6660 C.3    99  LEU99       0.0001
     79  N        143.9320  121.2520  121.0330 N.3   127  PHE127     -0.1241
     80  CA       142.6380  120.9790  120.4210 C.3   127  PHE127      0.1605
     81  C        142.3560  121.8430  119.2020 C.2   127  PHE127      0.2264
     82  O        141.7090  121.3640  118.2720 O.2   127  PHE127     -0.2867
     83  CB       141.5110  121.1680  121.4310 C.3   127  PHE127      0.0534
     84  CG       140.1350  120.9740  120.8580 C.ar  127  PHE127     -0.0203
     85  CD1      139.6080  119.7050  120.6670 C.ar  127  PHE127     -0.0042
     86  CD2      139.3630  122.0740  120.5120 C.ar  127  PHE127     -0.0042
     87  CE1      138.3390  119.5400  120.1410 C.ar  127  PHE127     -0.0003
     88  CE2      138.0960  121.9160  119.9870 C.ar  127  PHE127     -0.0003
     89  CZ       137.5830  120.6480  119.8020 C.ar  127  PHE127     -0.0000
     90  N        144.4330  120.3840  116.3590 N.3   130  LEU130     -0.1231
     91  CA       143.9260  119.0590  116.0620 C.3   130  LEU130      0.1693
     92  C        142.5390  119.1060  115.4370 C.2   130  LEU130      0.2591
     93  O        142.1610  118.1700  114.7300 O.2   130  LEU130     -0.2718
     94  CB       143.9280  118.2490  117.3490 C.3   130  LEU130      0.0284
     95  CG       143.8080  116.7460  117.2670 C.3   130  LEU130      0.0019
     96  CD1      144.9910  116.2360  116.4870 C.3   130  LEU130      0.0001
     97  CD2      143.8180  116.2060  118.6760 C.3   130  LEU130      0.0001
     98  N        141.7900  120.1860  115.6640 N.am  131  ALA131     -0.1980
     99  CA       140.5250  120.4280  114.9910 C.3   131  ALA131      0.1597
    100  C        140.6840  121.1400  113.6640 C.2   131  ALA131      0.2287
    101  O        139.8460  120.9530  112.7780 O.2   131  ALA131     -0.2864
    102  CB       139.5990  121.2610  115.8790 C.3   131  ALA131      0.0319
    103  N        140.9420  118.4920  111.0770 N.3   134  GLY134     -0.1210
    104  CA       139.6880  117.8970  110.6440 C.3   134  GLY134      0.1956
    105  C        138.8560  118.8350  109.7930 C.2   134  GLY134      0.2611
    106  O        138.1960  118.4050  108.8420 O.2   134  GLY134     -0.2717
    107  N        138.8980  120.1290  110.1030 N.am  135  ILE135     -0.1979
    108  CA       138.1760  121.1010  109.2930 C.3   135  ILE135      0.1595
    109  C        138.8070  121.2250  107.9120 C.2   135  ILE135      0.2287
    110  O        138.0950  121.3640  106.9050 O.2   135  ILE135     -0.2864
    111  CB       138.1190  122.4400  110.0440 C.3   135  ILE135      0.0276
    112  CG1      137.2980  122.2810  111.3130 C.3   135  ILE135      0.0022
    113  CG2      137.4730  123.5040  109.2210 C.3   135  ILE135      0.0022
    114  CD1      137.4080  123.4400  112.2460 C.3   135  ILE135      0.0001
    115  N        140.2820  118.7250  106.4140 N.3   137  CYS137     -0.1221
    116  CA       139.8400  117.5150  105.7290 C.3   137  CYS137      0.1808
    117  C        138.4130  117.6540  105.2170 C.2   137  CYS137      0.2601
    118  O        138.0970  117.1740  104.1280 O.2   137  CYS137     -0.2717
    119  CB       139.9610  116.3100  106.6520 C.3   137  CYS137      0.0970
    120  SG       141.6540  115.8480  107.0290 S.3   137  CYS137     -0.0800
    121  N        137.5520  118.3460  105.9620 N.am  138  GLY138     -0.1957
    122  CA       136.1870  118.5480  105.4910 C.3   138  GLY138      0.1869
    123  C        136.1090  119.4580  104.2780 C.2   138  GLY138      0.2309
    124  O        135.3740  119.1820  103.3180 O.2   138  GLY138     -0.2863
    125  N        137.2190  117.6230  101.4370 N.3   141  SER141     -0.1202
    126  CA       136.2090  116.6520  101.0370 C.3   141  SER141      0.2020
    127  C        135.2010  117.2560  100.0770 C.2   141  SER141      0.2618
    128  O        135.0020  116.7390   98.9750 O.2   141  SER141     -0.2717
    129  CB       135.4940  116.0980  102.2620 C.3   141  SER141      0.2103
    130  OG       134.4200  115.2710  101.8660 O.3   141  SER141     -0.2182
    131  N        134.5550  118.3490  100.4630 N.am  142  LEU142     -0.1979
    132  CA       133.5150  118.8700   99.5690 C.3   142  LEU142      0.1596
    133  C        134.0400  119.9040   98.5700 C.2   142  LEU142      0.2287
    134  O        133.4740  120.9770   98.3920 O.2   142  LEU142     -0.2864
    135  CB       132.3340  119.3960  100.3830 C.3   142  LEU142      0.0297
    136  CG       132.4450  120.2450  101.6490 C.3   142  LEU142      0.0022
    137  CD1      132.5420  121.7170  101.4040 C.3   142  LEU142      0.0001
    138  CD2      131.2510  119.9660  102.5230 C.3   142  LEU142      0.0001
    139  N        129.0820  125.4310  105.1150 N.3   183  TYR183     -0.1241
    140  CA       130.2320  124.9490  105.8680 C.3   183  TYR183      0.1605
    141  C        131.1540  126.0970  106.2510 C.2   183  TYR183      0.2264
    142  O        131.7000  126.1280  107.3630 O.2   183  TYR183     -0.2867
    143  CB       130.9600  123.9040  105.0270 C.3   183  TYR183      0.0534
    144  CG       132.1750  123.2930  105.6540 C.ar  183  TYR183     -0.0201
    145  CD1      132.0670  122.3970  106.7000 C.ar  183  TYR183     -0.0009
    146  CD2      133.4290  123.5730  105.1630 C.ar  183  TYR183     -0.0009
    147  CE1      133.1830  121.8300  107.2600 C.ar  183  TYR183      0.0417
    148  CE2      134.5430  123.0120  105.7110 C.ar  183  TYR183      0.0417
    149  CZ       134.4160  122.1450  106.7550 C.ar  183  TYR183      0.1957
    150  OH       135.5430  121.5890  107.2930 O.3   183  TYR183     -0.2866
@<TRIPOS>BOND
     1   134   133    2
     2   133   132    1
     3   128   127    2
     4   132   135    1
     5   132   131    1
     6   127   131   am
     7   127   126    1
     8    24    23    2
     9   135   136    1
    10    33    32    1
    11   126   125    1
    12   126   129    1
    13    26    25    1
    14    23    22    1
    15   137   136    1
    16   136   138    1
    17    32    29    1
    18   130   129    1
    19    28    29    1
    20    22    25    1
    21    22    21    1
    22    25    27    1
    23    29    30    1
    24    16    15    2
    25    40    39    1
    26    40    34    1
    27   124   123    2
    28    21    15   am
    29    39    38    1
    30    15    14    1
    31    34    30   am
    32    34    35    1
    33    30    31    2
    34   118   117    2
    35   123   122    1
    36    38    35    1
    37   143   144    1
    38   143   140    1
    39   139   140    1
    40   146   144   ar
    41   146   148   ar
    42    14    13    1
    43    14    17    1
    44   117   116    1
    45   117   121   am
    46    35    36    1
    47   122   121    1
    48   144   145   ar
    49   148   149   ar
    50   116   115    1
    51   116   119    1
    52   140   141    1
    53    46    45    1
    54    17    18    1
    55   141   142    2
    56    45    42    1
    57    36    37    2
    58   119   120    1
    59     9     8    2
    60   145   147   ar
    61   149   147   ar
    62   149   150    1
    63   110   109    2
    64    20    18    1
    65    41    42    1
    66    18    19    1
    67    42    43    1
    68     8     7    1
    69   109   108    1
    70    43    47   am
    71    43    44    2
    72   106   105    2
    73    47    48    1
    74     7    10    1
    75     7     6    1
    76   113   111    1
    77    53    52    1
    78   108   111    1
    79   108   107    1
    80    51    48    1
    81    51    52    1
    82    10    11    1
    83   105   107   am
    84   105   104    1
    85    48    49    1
    86     6    12    1
    87   111   112    1
    88    52    54    1
    89   104   103    1
    90    11    12    1
    91    49    50    2
    92   112   114    1
    93    61    60    1
    94   101   100    2
    95    60    62    1
    96    60    59    1
    97    55    56    1
    98   100    99    1
    99     4     3    2
   100    59    56    1
   101    56    57    1
   102     3     2    1
   103    93    92    2
   104    99    98    1
   105    99   102    1
   106    69    68    1
   107    92    98   am
   108    92    91    1
   109     2     1    1
   110     2     5    1
   111    57    58    2
   112    91    90    1
   113    91    94    1
   114    68    70    1
   115    68    67    1
   116    96    95    1
   117    95    94    1
   118    95    97    1
   119    67    64    1
   120    82    81    2
   121    63    64    1
   122    64    65    1
   123    81    80    1
   124    89    88   ar
   125    89    87   ar
   126    88    86   ar
   127    65    66    2
   128    87    85   ar
   129    77    76    1
   130    80    79    1
   131    80    83    1
   132    86    84   ar
   133    85    84   ar
   134    84    83    1
   135    76    78    1
   136    76    75    1
   137    75    72    1
   138    71    72    1
   139    72    73    1
   140    73    74    2
