@<TRIPOS>MOLECULE
tmp/6cjtC02.pdb
 120 117 0 0 0
SMALL
GASTEIGER

@<TRIPOS>ATOM
      1  N        166.6660  150.6580  172.3200 N.3   313  ILE313     -0.1245
      2  CA       166.6290  150.8990  173.7560 C.3   313  ILE313      0.1561
      3  C        167.3410  152.2110  174.0340 C.2   313  ILE313      0.2260
      4  O        168.5140  152.3650  173.6820 O.2   313  ILE313     -0.2867
      5  CB       167.3100  149.7660  174.5390 C.3   313  ILE313      0.0252
      6  CG1      166.6160  148.4350  174.3070 C.3   313  ILE313      0.0019
      7  CG2      167.3110  150.0800  176.0100 C.3   313  ILE313      0.0019
      8  CD1      167.4300  147.2730  174.7940 C.3   313  ILE313      0.0001
      9  N        175.8240  148.7360  170.7560 N.3   332  VAL332     -0.1245
     10  CA       175.4830  149.1320  172.1140 C.3   332  VAL332      0.1561
     11  C        176.3280  150.3440  172.4660 C.2   332  VAL332      0.2260
     12  O        177.5620  150.2690  172.4730 O.2   332  VAL332     -0.2867
     13  CB       175.7130  147.9950  173.1130 C.3   332  VAL332      0.0252
     14  CG1      175.4230  148.4710  174.5140 C.3   332  VAL332      0.0019
     15  CG2      174.8450  146.8130  172.7680 C.3   332  VAL332      0.0019
     16  N        180.3630  150.2740  173.7500 N.3   341  TYR341     -0.1227
     17  CA       180.6610  149.1710  174.6570 C.3   341  TYR341      0.1736
     18  C        181.0540  147.9250  173.8790 C.2   341  TYR341      0.2595
     19  O        182.1820  147.4340  173.9990 O.2   341  TYR341     -0.2718
     20  CB       179.4630  148.8890  175.5610 C.3   341  TYR341      0.0548
     21  CG       179.2210  149.9400  176.6190 C.ar  341  TYR341     -0.0200
     22  CD1      180.2050  150.8600  176.9550 C.ar  341  TYR341     -0.0009
     23  CD2      178.0080  150.0100  177.2820 C.ar  341  TYR341     -0.0009
     24  CE1      179.9850  151.8170  177.9210 C.ar  341  TYR341      0.0417
     25  CE2      177.7780  150.9650  178.2480 C.ar  341  TYR341      0.0417
     26  CZ       178.7690  151.8650  178.5630 C.ar  341  TYR341      0.1957
     27  OH       178.5400  152.8180  179.5270 O.3   341  TYR341     -0.2866
     28  N        180.1450  147.4150  173.0580 N.am  342  ALA342     -0.1980
     29  CA       180.4120  146.2350  172.2480 C.3   342  ALA342      0.1597
     30  C        179.4880  146.2620  171.0390 C.2   342  ALA342      0.2287
     31  O        178.7080  147.2000  170.8490 O.2   342  ALA342     -0.2864
     32  CB       180.2330  144.9500  173.0620 C.3   342  ALA342      0.0319
     33  N        176.8740  143.5080  168.7340 N.3   344  LEU344     -0.1245
     34  CA       176.1990  142.2240  168.7700 C.3   344  LEU344      0.1561
     35  C        175.9040  141.7620  167.3510 C.2   344  LEU344      0.2260
     36  O        175.9770  142.5290  166.3890 O.2   344  LEU344     -0.2867
     37  CB       174.9160  142.3220  169.5930 C.3   344  LEU344      0.0270
     38  CG       175.1750  142.7890  171.0230 C.3   344  LEU344      0.0019
     39  CD1      173.8830  142.9870  171.7680 C.3   344  LEU344      0.0001
     40  CD2      176.0630  141.8170  171.7570 C.3   344  LEU344      0.0001
     41  N        171.6150  138.0790  171.9630 N.3   349  PHE349     -0.1227
     42  CA       170.4430  138.6520  172.5980 C.3   349  PHE349      0.1736
     43  C        170.9000  139.8030  173.4750 C.2   349  PHE349      0.2595
     44  O        172.0900  139.9400  173.7610 O.2   349  PHE349     -0.2718
     45  CB       169.6950  137.5940  173.4260 C.3   349  PHE349      0.0547
     46  CG       170.4720  137.0900  174.6120 C.ar  349  PHE349     -0.0202
     47  CD1      171.4200  136.0940  174.4630 C.ar  349  PHE349     -0.0042
     48  CD2      170.2280  137.5850  175.8830 C.ar  349  PHE349     -0.0042
     49  CE1      172.1390  135.6380  175.5410 C.ar  349  PHE349     -0.0003
     50  CE2      170.9430  137.1270  176.9670 C.ar  349  PHE349     -0.0003
     51  CZ       171.8990  136.1530  176.7960 C.ar  349  PHE349     -0.0000
     52  N        169.9460  140.6170  173.9140 N.am  350  PHE350     -0.1962
     53  CA       170.2270  141.6960  174.8470 C.3   350  PHE350      0.1771
     54  C        168.9460  142.0460  175.5860 C.2   350  PHE350      0.2620
     55  O        167.8430  141.7170  175.1480 O.2   350  PHE350     -0.2715
     56  CB       170.8390  142.9110  174.1390 C.3   350  PHE350      0.0574
     57  CG       170.0260  143.4350  172.9970 C.ar  350  PHE350     -0.0200
     58  CD1      170.2420  142.9690  171.7130 C.ar  350  PHE350     -0.0042
     59  CD2      169.0770  144.4180  173.1940 C.ar  350  PHE350     -0.0042
     60  CE1      169.5130  143.4520  170.6590 C.ar  350  PHE350     -0.0003
     61  CE2      168.3420  144.9030  172.1400 C.ar  350  PHE350     -0.0003
     62  CZ       168.5630  144.4180  170.8710 C.ar  350  PHE350     -0.0000
     63  N        169.1010  142.7200  176.7190 N.am  351  GLY351     -0.1940
     64  CA       167.9560  143.0850  177.5210 C.3   351  GLY351      0.2014
     65  C        167.4410  141.9970  178.4300 C.2   351  GLY351      0.2639
     66  O        166.2670  142.0210  178.7980 O.2   351  GLY351     -0.2714
     67  N        168.2870  141.0410  178.8160 N.am  352  GLU352     -0.1963
     68  CA       167.8100  139.9500  179.6540 C.3   352  GLU352      0.1733
     69  C        167.5900  140.3770  181.0950 C.2   352  GLU352      0.2616
     70  O        166.8780  139.6830  181.8250 O.2   352  GLU352     -0.2715
     71  CB       168.7810  138.7720  179.6090 C.3   352  GLU352      0.0429
     72  CG       170.0940  139.0010  180.3370 C.3   352  GLU352      0.1163
     73  CD       171.1710  139.6000  179.4550 C.2   352  GLU352      0.3649
     74  OE1      170.8490  140.0870  178.3520 O.co2 352  GLU352     -0.2457
     75  OE2      172.3490  139.5860  179.8700 O.co2 352  GLU352     -0.2457
     76  N        168.1620  141.5010  181.5200 N.am  353  MET353     -0.1977
     77  CA       167.9080  142.0300  182.8590 C.3   353  MET353      0.1605
     78  C        166.7290  143.0030  182.8250 C.2   353  MET353      0.2287
     79  O        166.8030  144.1640  183.2240 O.2   353  MET353     -0.2864
     80  CB       169.1690  142.6860  183.4180 C.3   353  MET353      0.0413
     81  CG       169.1670  142.9030  184.9410 C.3   353  MET353      0.0598
     82  SD       170.6130  143.7740  185.5840 S.3   353  MET353     -0.1393
     83  CE       171.8750  142.5100  185.4660 C.3   353  MET353      0.0692
     84  N        165.9820  150.4320  185.6210 N.3   360  PRO360     -0.2102
     85  CA       165.8460  151.1810  184.3710 C.3   360  PRO360      0.1504
     86  C        166.9640  150.8230  183.3960 C.2   360  PRO360      0.2576
     87  O        168.0080  150.3390  183.8250 O.2   360  PRO360     -0.2718
     88  CB       166.0040  152.6230  184.8290 C.3   360  PRO360      0.0282
     89  CG       166.9390  152.5290  185.9840 C.3   360  PRO360      0.0208
     90  CD       166.6570  151.2180  186.6650 C.3   360  PRO360      0.0893
     91  N        166.7570  151.0820  182.1070 N.am  361  ARG361     -0.1966
     92  CA       167.7510  150.7830  181.0700 C.3   361  ARG361      0.1729
     93  C        169.1450  151.3010  181.4080 C.2   361  ARG361      0.2617
     94  O        169.3040  152.4230  181.8850 O.2   361  ARG361     -0.2715
     95  CB       167.3080  151.3530  179.7240 C.3   361  ARG361      0.0348
     96  CG       166.0200  150.7570  179.1820 C.3   361  ARG361      0.0492
     97  CD       166.1840  149.2910  178.8360 C.3   361  ARG361      0.2205
     98  NE       164.9560  148.7260  178.2930 N.pl3 361  ARG361     -0.0865
     99  CZ       164.7460  147.4280  178.1220 C.cat 361  ARG361      0.5346
    100  NH1      165.6870  146.5560  178.4450 N.pl3 361  ARG361      0.1354
    101  NH2      163.5970  147.0040  177.6240 N.pl3 361  ARG361      0.1354
    102  N        170.1590  150.4950  181.1150 N.am  362  THR362     -0.1937
    103  CA       171.5330  150.8630  181.4360 C.3   362  THR362      0.2028
    104  C        172.4380  151.2670  180.2710 C.2   362  THR362      0.2642
    105  O        173.6210  151.5160  180.4870 O.2   362  THR362     -0.2714
    106  CB       172.2240  149.7350  182.2160 C.3   362  THR362      0.1808
    107  OG1      172.2150  148.5370  181.4340 O.3   362  THR362     -0.2208
    108  CG2      171.4990  149.4820  183.5230 C.3   362  THR362      0.0379
    109  N        171.8950  151.3320  179.0570 N.am  363  ALA363     -0.1977
    110  CA       172.6770  151.7190  177.8770 C.3   363  ALA363      0.1597
    111  C        171.7940  152.1590  176.7200 C.2   363  ALA363      0.2287
    112  O        170.5750  152.2100  176.8340 O.2   363  ALA363     -0.2864
    113  CB       173.5610  150.5690  177.4200 C.3   363  ALA363      0.0319
    114  N        170.9440  151.2240  172.7910 N.3   365  VAL365     -0.1245
    115  CA       171.0740  150.1590  171.8070 C.3   365  VAL365      0.1561
    116  C        170.5400  150.7020  170.4900 C.2   365  VAL365      0.2260
    117  O        169.3250  150.8120  170.2970 O.2   365  VAL365     -0.2867
    118  CB       170.3300  148.8940  172.2340 C.3   365  VAL365      0.0252
    119  CG1      170.5060  147.8190  171.1990 C.3   365  VAL365      0.0019
    120  CG2      170.8260  148.4250  173.5760 C.3   365  VAL365      0.0019
@<TRIPOS>BOND
     1    36    35    2
     2    35    34    1
     3    33    34    1
     4    34    37    1
     5    37    38    1
     6   117   116    2
     7   116   115    1
     8    60    62   ar
     9    60    58   ar
    10     9    10    1
    11    31    30    2
    12    62    61   ar
    13    38    40    1
    14    38    39    1
    15    30    29    1
    16   119   118    1
    17    58    57   ar
    18   115   118    1
    19   115   114    1
    20    41    42    1
    21    10    11    1
    22    10    13    1
    23    61    59   ar
    24   118   120    1
    25    29    28    1
    26    29    32    1
    27     1     2    1
    28    11    12    2
    29    42    45    1
    30    42    43    1
    31    15    13    1
    32    57    59   ar
    33    57    56    1
    34    28    18   am
    35    13    14    1
    36    45    46    1
    37    43    44    2
    38    43    52   am
    39     4     3    2
    40    16    17    1
    41     2     3    1
    42     2     5    1
    43    18    19    2
    44    18    17    1
    45    52    53    1
    46    56    53    1
    47     6     5    1
    48     6     8    1
    49    47    46   ar
    50    47    49   ar
    51     5     7    1
    52    46    48   ar
    53    17    20    1
    54    53    54    1
    55    55    54    2
    56    49    51   ar
    57    20    21    1
    58    54    63   am
    59    48    50   ar
    60    21    22   ar
    61    21    23   ar
    62    63    64    1
    63   111   112    2
    64   111   110    1
    65    51    50   ar
    66    22    24   ar
    67    23    25   ar
    68   113   110    1
    69    64    65    1
    70   101    99    1
    71   110   109    1
    72    24    26   ar
    73    99    98    2
    74    99   100    1
    75    25    26   ar
    76    98    97    1
    77    74    73   ar
    78    65    66    2
    79    65    67   am
    80    26    27    1
    81    67    68    1
    82    97    96    1
    83   109   104   am
    84    96    95    1
    85    73    75   ar
    86    73    72    1
    87    71    68    1
    88    71    72    1
    89    68    69    1
    90    95    92    1
    91   104   105    2
    92   104   103    1
    93    92    93    1
    94    92    91    1
    95    69    76   am
    96    69    70    2
    97   102    93   am
    98   102   103    1
    99    93    94    2
   100   107   106    1
   101   103   106    1
   102    76    77    1
   103    91    86   am
   104   106   108    1
   105    78    77    1
   106    78    79    2
   107    77    80    1
   108    86    87    2
   109    86    85    1
   110    80    81    1
   111    85    88    1
   112    85    84    1
   113    88    89    1
   114    81    82    1
   115    83    82    1
   116    84    90    1
   117    89    90    1
