@<TRIPOS>MOLECULE
tmp/6cjtC06.pdb
 120 111 0 0 0
SMALL
GASTEIGER

@<TRIPOS>ATOM
      1  N        147.7910  127.9840  132.4130 N.3   118  LEU118     -0.1245
      2  CA       148.7240  127.5870  131.3690 C.3   118  LEU118      0.1561
      3  C        148.3990  126.2060  130.8240 C.2   118  LEU118      0.2260
      4  O        148.5330  125.9720  129.6190 O.2   118  LEU118     -0.2867
      5  CB       150.1460  127.6240  131.9140 C.3   118  LEU118      0.0270
      6  CG       151.2870  127.3050  130.9600 C.3   118  LEU118      0.0019
      7  CD1      151.3260  128.3180  129.8490 C.3   118  LEU118      0.0001
      8  CD2      152.5870  127.3120  131.7220 C.3   118  LEU118      0.0001
      9  N        145.4210  126.6220  128.5480 N.3   121  LEU121     -0.1231
     10  CA       145.8300  127.2750  127.3090 C.3   121  LEU121      0.1693
     11  C        146.5580  126.3160  126.3750 C.2   121  LEU121      0.2591
     12  O        146.2880  126.2980  125.1680 O.2   121  LEU121     -0.2718
     13  CB       146.7090  128.4760  127.6250 C.3   121  LEU121      0.0284
     14  CG       147.2000  129.2560  126.4190 C.3   121  LEU121      0.0019
     15  CD1      146.0210  129.8000  125.6760 C.3   121  LEU121      0.0001
     16  CD2      148.0930  130.3740  126.8710 C.3   121  LEU121      0.0001
     17  N        147.4670  125.4990  126.9130 N.am  122  LEU122     -0.1980
     18  CA       148.1600  124.5270  126.0740 C.3   122  LEU122      0.1596
     19  C        147.2160  123.4480  125.5610 C.2   122  LEU122      0.2287
     20  O        147.3400  123.0180  124.4070 O.2   122  LEU122     -0.2864
     21  CB       149.3130  123.8940  126.8410 C.3   122  LEU122      0.0297
     22  CG       150.4350  124.8610  127.2010 C.3   122  LEU122      0.0022
     23  CD1      151.4730  124.1840  128.0730 C.3   122  LEU122      0.0001
     24  CD2      151.0690  125.4390  125.9540 C.3   122  LEU122      0.0001
     25  N        145.2920  125.0470  122.6810 N.3   125  VAL125     -0.1245
     26  CA       146.1140  125.1220  121.4700 C.3   125  VAL125      0.1561
     27  C        146.2180  123.7520  120.8060 C.2   125  VAL125      0.2260
     28  O        146.1260  123.6320  119.5720 O.2   125  VAL125     -0.2867
     29  CB       147.4970  125.7050  121.8090 C.3   125  VAL125      0.0252
     30  CG1      148.4580  125.5800  120.6450 C.3   125  VAL125      0.0019
     31  CG2      147.3500  127.1540  122.1760 C.3   125  VAL125      0.0019
     32  N        142.8680  123.0730  119.1560 N.3   128  ILE128     -0.1231
     33  CA       142.6170  123.9420  118.0120 C.3   128  ILE128      0.1692
     34  C        143.3950  123.4840  116.7900 C.2   128  ILE128      0.2591
     35  O        142.8450  123.4410  115.6860 O.2   128  ILE128     -0.2718
     36  CB       142.9090  125.4050  118.3830 C.3   128  ILE128      0.0266
     37  CG1      141.7230  125.9600  119.1560 C.3   128  ILE128      0.0019
     38  CG2      143.2260  126.2650  117.1740 C.3   128  ILE128      0.0020
     39  CD1      141.9780  127.2660  119.7600 C.3   128  ILE128      0.0001
     40  N        144.6670  123.1040  116.9580 N.am  129  LEU129     -0.1980
     41  CA       145.3930  122.5490  115.8150 C.3   129  LEU129      0.1596
     42  C        144.8070  121.2110  115.3850 C.2   129  LEU129      0.2287
     43  O        144.6330  120.9480  114.1810 O.2   129  LEU129     -0.2864
     44  CB       146.8710  122.3900  116.1440 C.3   129  LEU129      0.0297
     45  CG       147.6640  123.6760  116.3110 C.3   129  LEU129      0.0022
     46  CD1      149.0800  123.3510  116.7100 C.3   129  LEU129      0.0001
     47  CD2      147.6460  124.4500  115.0250 C.3   129  LEU129      0.0001
     48  N        140.1430  130.5330  110.7460 N.3   165  LEU165     -0.1231
     49  CA       140.0850  130.4530  112.2030 C.3   165  LEU165      0.1693
     50  C        140.8200  131.5960  112.8810 C.2   165  LEU165      0.2592
     51  O        140.3620  132.0900  113.9110 O.2   165  LEU165     -0.2718
     52  CB       140.6540  129.1260  112.6960 C.3   165  LEU165      0.0284
     53  CG       139.6910  127.9790  112.9770 C.3   165  LEU165      0.0019
     54  CD1      139.0440  127.4650  111.7330 C.3   165  LEU165      0.0001
     55  CD2      140.4280  126.8730  113.6760 C.3   165  LEU165      0.0001
     56  N        141.9380  132.0600  112.3540 N.am  166  THR166     -0.1953
     57  CA       142.6090  133.1570  113.0390 C.3   166  THR166      0.1897
     58  C        142.0360  134.4930  112.6200 C.2   166  THR166      0.2313
     59  O        142.6030  135.5290  112.8970 O.2   166  THR166     -0.2863
     60  CB       144.1160  133.1670  112.7980 C.3   166  THR166      0.1794
     61  OG1      144.3560  133.2770  111.4000 O.3   166  THR166     -0.2208
     62  CG2      144.7340  131.8970  113.3010 C.3   166  THR166      0.0378
     63  N        136.7570  130.0020  118.8930 N.3   194  MET194     -0.1230
     64  CA       138.0530  129.5120  119.3530 C.3   194  MET194      0.1702
     65  C        139.0310  130.6500  119.5800 C.2   194  MET194      0.2592
     66  O        139.8090  130.6250  120.5400 O.2   194  MET194     -0.2718
     67  CB       138.6380  128.5270  118.3510 C.3   194  MET194      0.0401
     68  CG       137.9150  127.2140  118.2750 C.3   194  MET194      0.0596
     69  SD       138.6370  126.1450  117.0260 S.3   194  MET194     -0.1393
     70  CE       137.4610  124.8030  117.0360 C.3   194  MET194      0.0692
     71  N        139.0000  131.6620  118.7220 N.am  195  TYR195     -0.1976
     72  CA       139.9130  132.7740  118.9040 C.3   195  TYR195      0.1639
     73  C        139.4990  133.6340  120.0890 C.2   195  TYR195      0.2290
     74  O        140.3670  134.1680  120.7920 O.2   195  TYR195     -0.2864
     75  CB       139.9900  133.5680  117.6080 C.3   195  TYR195      0.0560
     76  CG       141.0960  134.5760  117.5590 C.ar  195  TYR195     -0.0198
     77  CD1      142.4150  134.1790  117.6730 C.ar  195  TYR195     -0.0009
     78  CD2      140.8350  135.9020  117.2880 C.ar  195  TYR195     -0.0009
     79  CE1      143.4340  135.0900  117.6030 C.ar  195  TYR195      0.0417
     80  CE2      141.8490  136.8150  117.2050 C.ar  195  TYR195      0.0417
     81  CZ       143.1440  136.4020  117.3640 C.ar  195  TYR195      0.1957
     82  OH       144.1580  137.3120  117.2840 O.3   195  TYR195     -0.2866
     83  N        140.9420  131.7350  123.0300 N.3   198  VAL198     -0.1245
     84  CA       142.3840  131.9280  123.1630 C.3   198  VAL198      0.1561
     85  C        142.6990  133.2860  123.7750 C.2   198  VAL198      0.2260
     86  O        143.5290  133.3860  124.6900 O.2   198  VAL198     -0.2867
     87  CB       143.0720  131.7380  121.8040 C.3   198  VAL198      0.0252
     88  CG1      144.5010  132.1990  121.8510 C.3   198  VAL198      0.0019
     89  CG2      143.0630  130.3010  121.4580 C.3   198  VAL198      0.0019
     90  N        144.5110  133.9190  127.4480 N.3   202  ILE202     -0.1245
     91  CA       145.7300  134.7090  127.6050 C.3   202  ILE202      0.1561
     92  C        145.4780  135.8990  128.5240 C.2   202  ILE202      0.2260
     93  O        146.3290  136.2550  129.3500 O.2   202  ILE202     -0.2867
     94  CB       146.2730  135.1370  126.2330 C.3   202  ILE202      0.0252
     95  CG1      146.6580  133.9100  125.4270 C.3   202  ILE202      0.0019
     96  CG2      147.5070  135.9670  126.3780 C.3   202  ILE202      0.0019
     97  CD1      146.9510  134.2080  123.9950 C.3   202  ILE202      0.0001
     98  N        145.5830  134.5840  131.8610 N.3   205  LEU205     -0.1231
     99  CA       146.9060  134.1090  132.2330 C.3   205  LEU205      0.1693
    100  C        147.8260  135.2510  132.6250 C.2   205  LEU205      0.2591
    101  O        148.5830  135.1170  133.5890 O.2   205  LEU205     -0.2718
    102  CB       147.4970  133.2910  131.0800 C.3   205  LEU205      0.0284
    103  CG       148.7800  132.4620  131.1850 C.3   205  LEU205      0.0019
    104  CD1      150.0360  133.2490  130.8900 C.3   205  LEU205      0.0001
    105  CD2      148.8720  131.8580  132.5620 C.3   205  LEU205      0.0001
    106  N        147.7910  136.3700  131.9020 N.am  206  VAL206     -0.1980
    107  CA       148.7000  137.4700  132.2060 C.3   206  VAL206      0.1595
    108  C        148.1200  138.4570  133.1990 C.2   206  VAL206      0.2287
    109  O        148.8240  139.3970  133.5940 O.2   206  VAL206     -0.2864
    110  CB       149.1290  138.2400  130.9420 C.3   206  VAL206      0.0276
    111  CG1      149.7710  137.3120  129.9480 C.3   206  VAL206      0.0022
    112  CG2      147.9600  138.9550  130.3450 C.3   206  VAL206      0.0022
    113  N        149.6330  137.3440  136.6090 N.3   209  LEU209     -0.1245
    114  CA       151.0280  136.9690  136.4280 C.3   209  LEU209      0.1561
    115  C        151.9220  137.6280  137.4670 C.2   209  LEU209      0.2260
    116  O        152.8090  136.9770  138.0260 O.2   209  LEU209     -0.2867
    117  CB       151.4860  137.3290  135.0200 C.3   209  LEU209      0.0270
    118  CG       152.8560  136.7850  134.6510 C.3   209  LEU209      0.0019
    119  CD1      152.8250  135.2750  134.7180 C.3   209  LEU209      0.0001
    120  CD2      153.2330  137.2410  133.2670 C.3   209  LEU209      0.0001
@<TRIPOS>BOND
     1    48    49    1
     2    61    60    1
     3    54    53    1
     4    49    52    1
     5    49    50    1
     6    56    50   am
     7    56    57    1
     8    58    59    2
     9    58    57    1
    10    52    53    1
    11    60    57    1
    12    60    62    1
    13    50    51    2
    14    53    55    1
    15    43    42    2
    16    47    45    1
    17    42    41    1
    18    35    34    2
    19    41    44    1
    20    41    40    1
    21    44    45    1
    22    45    46    1
    23    34    40   am
    24    34    33    1
    25    69    70    1
    26    69    68    1
    27    38    36    1
    28    80    78   ar
    29    80    81   ar
    30    82    81    1
    31    78    76   ar
    32    81    79   ar
    33    76    75    1
    34    76    77   ar
    35    79    77   ar
    36    75    72    1
    37    33    36    1
    38    33    32    1
    39    68    67    1
    40    67    64    1
    41    36    37    1
    42    71    72    1
    43    71    65   am
    44    63    64    1
    45    72    73    1
    46    37    39    1
    47    64    65    1
    48    28    27    2
    49    65    66    2
    50    73    74    2
    51    30    29    1
    52    27    26    1
    53    89    87    1
    54    26    29    1
    55    26    25    1
    56    87    88    1
    57    87    84    1
    58    29    31    1
    59    83    84    1
    60    84    85    1
    61    85    86    2
    62    97    95    1
    63    20    19    2
    64    12    11    2
    65    95    94    1
    66    19    18    1
    67    15    14    1
    68    24    22    1
    69    18    21    1
    70    18    17    1
    71    94    96    1
    72    94    91    1
    73    11    17   am
    74    11    10    1
    75    14    16    1
    76    14    13    1
    77    21    22    1
    78    22    23    1
    79    10    13    1
    80    10     9    1
    81    90    91    1
    82    91    92    1
    83    92    93    2
    84     4     3    2
    85     7     6    1
    86   111   110    1
    87   112   110    1
    88     3     2    1
    89   104   103    1
    90   110   107    1
    91     6     8    1
    92     6     5    1
    93   102   103    1
    94   102    99    1
    95   103   105    1
    96     2     5    1
    97     2     1    1
    98    98    99    1
    99   106   107    1
   100   106   100   am
   101   107   108    1
   102    99   100    1
   103   100   101    2
   104   108   109    2
   105   120   118    1
   106   118   119    1
   107   118   117    1
   108   117   114    1
   109   114   113    1
   110   114   115    1
   111   115   116    2
