@<TRIPOS>MOLECULE
tmp/6cjtC03.pdb
 99 94 0 0 0
SMALL
GASTEIGER

@<TRIPOS>ATOM
      1  N        144.6350  112.2840  114.1570 N.3    19  ILE19      -0.1245
      2  CA       145.2430  112.6670  112.8870 C.3    19  ILE19       0.1561
      3  C        144.7940  111.7760  111.7350 C.2    19  ILE19       0.2260
      4  O        144.5520  112.2850  110.6300 O.2    19  ILE19      -0.2867
      5  CB       146.7780  112.7190  113.0350 C.3    19  ILE19       0.0252
      6  CG1      147.1630  113.8990  113.9210 C.3    19  ILE19       0.0019
      7  CG2      147.4850  112.8620  111.7050 C.3    19  ILE19       0.0019
      8  CD1      148.6240  113.9700  114.2200 C.3    19  ILE19       0.0001
      9  N        141.5980  112.0450  107.8240 N.3    23  LEU23      -0.1245
     10  CA       142.4490  112.0230  106.6480 C.3    23  LEU23       0.1561
     11  C        142.1550  110.8140  105.7800 C.2    23  LEU23       0.2260
     12  O        142.3390  110.8740  104.5620 O.2    23  LEU23      -0.2867
     13  CB       143.9130  112.0540  107.0770 C.3    23  LEU23       0.0270
     14  CG       144.9890  112.3830  106.0510 C.3    23  LEU23       0.0019
     15  CD1      146.0580  113.1480  106.7590 C.3    23  LEU23       0.0001
     16  CD2      145.6000  111.1430  105.4550 C.3    23  LEU23       0.0001
     17  N        140.5730  110.1960  101.7470 N.3    27  PHE27      -0.1241
     18  CA       141.2940  109.2900  100.8700 C.3    27  PHE27       0.1605
     19  C        141.0440  107.8570  101.3080 C.2    27  PHE27       0.2264
     20  O        141.6150  107.4130  102.3140 O.2    27  PHE27      -0.2867
     21  CB       142.7920  109.5950  100.8850 C.3    27  PHE27       0.0534
     22  CG       143.1360  110.9650  100.4040 C.ar   27  PHE27      -0.0203
     23  CD1      143.0430  111.2820   99.0650 C.ar   27  PHE27      -0.0042
     24  CD2      143.5970  111.9230  101.2870 C.ar   27  PHE27      -0.0042
     25  CE1      143.3690  112.5420   98.6190 C.ar   27  PHE27      -0.0003
     26  CE2      143.9320  113.1810  100.8470 C.ar   27  PHE27      -0.0003
     27  CZ       143.8170  113.4910   99.5110 C.ar   27  PHE27      -0.0000
     28  N        142.1730  105.4780   99.5690 N.3    29  SER29      -0.1202
     29  CA       143.3700  104.7970   99.0960 C.3    29  SER29       0.2020
     30  C        144.3430  104.5040  100.2270 C.2    29  SER29       0.2618
     31  O        145.2670  103.7100  100.0400 O.2    29  SER29      -0.2717
     32  CB       144.0570  105.6330   98.0180 C.3    29  SER29       0.2103
     33  OG       143.2130  105.8020   96.8930 O.3    29  SER29      -0.2182
     34  N        144.1660  105.1300  101.3840 N.am   30  LEU30      -0.1979
     35  CA       144.8350  104.6960  102.6000 C.3    30  LEU30       0.1596
     36  C        144.0380  103.5690  103.2460 C.2    30  LEU30       0.2287
     37  O        143.1860  102.9370  102.6130 O.2    30  LEU30      -0.2864
     38  CB       145.0250  105.8560  103.5710 C.3    30  LEU30       0.0297
     39  CG       146.2690  106.7340  103.4610 C.3    30  LEU30       0.0022
     40  CD1      146.2050  107.6500  102.2670 C.3    30  LEU30       0.0001
     41  CD2      146.4490  107.5360  104.7330 C.3    30  LEU30       0.0001
     42  N        144.6670  123.1040  116.9580 N.3   129  LEU129     -0.1231
     43  CA       145.3930  122.5490  115.8150 C.3   129  LEU129      0.1693
     44  C        144.8070  121.2110  115.3850 C.2   129  LEU129      0.2591
     45  O        144.6330  120.9480  114.1810 O.2   129  LEU129     -0.2718
     46  CB       146.8710  122.3900  116.1440 C.3   129  LEU129      0.0284
     47  CG       147.6640  123.6760  116.3110 C.3   129  LEU129      0.0019
     48  CD1      149.0800  123.3510  116.7100 C.3   129  LEU129      0.0001
     49  CD2      147.6460  124.4500  115.0250 C.3   129  LEU129      0.0001
     50  N        144.4330  120.3840  116.3590 N.am  130  LEU130     -0.1980
     51  CA       143.9260  119.0590  116.0620 C.3   130  LEU130      0.1596
     52  C        142.5390  119.1060  115.4370 C.2   130  LEU130      0.2287
     53  O        142.1610  118.1700  114.7300 O.2   130  LEU130     -0.2864
     54  CB       143.9280  118.2490  117.3490 C.3   130  LEU130      0.0297
     55  CG       143.8080  116.7460  117.2670 C.3   130  LEU130      0.0022
     56  CD1      144.9910  116.2360  116.4870 C.3   130  LEU130      0.0001
     57  CD2      143.8180  116.2060  118.6760 C.3   130  LEU130      0.0001
     58  N        142.9870  120.4400  111.6240 N.3   133  HIS133     -0.1241
     59  CA       143.2130  119.3240  110.7090 C.3   133  HIS133      0.1621
     60  C        141.9050  118.7330  110.1880 C.2   133  HIS133      0.2264
     61  O        141.7570  118.5070  108.9810 O.2   133  HIS133     -0.2867
     62  CB       144.0310  118.2330  111.3770 C.3   133  HIS133      0.0745
     63  CG       144.2240  117.0420  110.5060 C.ar  133  HIS133      0.0817
     64  ND1      145.0640  117.0490  109.4170 N.ar  133  HIS133     -0.2268
     65  CD2      143.6550  115.8180  110.5360 C.ar  133  HIS133      0.1154
     66  CE1      145.0190  115.8710  108.8240 C.ar  133  HIS133      0.1986
     67  NE2      144.1710  115.1060  109.4840 N.ar  133  HIS133     -0.2212
     68  N        147.8530  115.0020   95.9880 N.3   150  ALA150     -0.1231
     69  CA       147.2200  114.9340   97.2960 C.3   150  ALA150      0.1694
     70  C        147.9530  115.7210   98.3640 C.2   150  ALA150      0.2592
     71  O        147.4420  115.8380   99.4770 O.2   150  ALA150     -0.2718
     72  CB       147.0900  113.4780   97.7390 C.3   150  ALA150      0.0304
     73  N        149.1310  116.2520   98.0720 N.am  151  GLY151     -0.1957
     74  CA       149.7910  117.1160   99.0210 C.3   151  GLY151      0.1869
     75  C        149.3130  118.5390   98.8570 C.2   151  GLY151      0.2309
     76  O        148.9860  119.2080   99.8380 O.2   151  GLY151     -0.2863
     77  N        145.6580  119.2440   99.9030 N.3   154  TYR154     -0.1241
     78  CA       145.5760  119.3660  101.3490 C.3   154  TYR154      0.1605
     79  C        146.1900  120.6510  101.8570 C.2   154  TYR154      0.2264
     80  O        145.7040  121.2120  102.8430 O.2   154  TYR154     -0.2867
     81  CB       146.2770  118.1910  102.0300 C.3   154  TYR154      0.0534
     82  CG       146.3030  118.2770  103.5340 C.ar  154  TYR154     -0.0201
     83  CD1      145.1770  117.9950  104.2800 C.ar  154  TYR154     -0.0009
     84  CD2      147.4600  118.6350  104.2070 C.ar  154  TYR154     -0.0009
     85  CE1      145.2010  118.0740  105.6480 C.ar  154  TYR154      0.0417
     86  CE2      147.4870  118.7220  105.5690 C.ar  154  TYR154      0.0417
     87  CZ       146.3590  118.4370  106.2820 C.ar  154  TYR154      0.1957
     88  OH       146.3940  118.5140  107.6450 O.3   154  TYR154     -0.2866
     89  N        144.4250  123.3940  104.3140 N.3   158  PHE158     -0.1241
     90  CA       144.9170  123.7380  105.6410 C.3   158  PHE158      0.1605
     91  C        145.2490  125.2180  105.7340 C.2   158  PHE158      0.2264
     92  O        145.0150  125.8380  106.7770 O.2   158  PHE158     -0.2867
     93  CB       146.1360  122.8990  105.9940 C.3   158  PHE158      0.0534
     94  CG       146.4900  122.9370  107.4390 C.ar  158  PHE158     -0.0203
     95  CD1      145.7430  122.2300  108.3490 C.ar  158  PHE158     -0.0042
     96  CD2      147.5680  123.6610  107.8870 C.ar  158  PHE158     -0.0042
     97  CE1      146.0570  122.2490  109.6800 C.ar  158  PHE158     -0.0003
     98  CE2      147.8860  123.6810  109.2230 C.ar  158  PHE158     -0.0003
     99  CZ       147.1280  122.9760  110.1160 C.ar  158  PHE158     -0.0000
@<TRIPOS>BOND
     1    68    69    1
     2    33    32    1
     3    69    72    1
     4    69    70    1
     5    32    29    1
     6    73    70   am
     7    73    74    1
     8    70    71    2
     9    25    23   ar
    10    25    27   ar
    11    75    74    1
    12    75    76    2
    13    23    22   ar
    14    29    28    1
    15    29    30    1
    16    27    26   ar
    17    77    78    1
    18    31    30    2
    19    30    34   am
    20    22    21    1
    21    22    24   ar
    22    26    24   ar
    23    18    21    1
    24    18    19    1
    25    18    17    1
    26    19    20    2
    27    78    79    1
    28    78    81    1
    29    34    35    1
    30    79    80    2
    31    81    82    1
    32    40    39    1
    33    35    36    1
    34    35    38    1
    35    37    36    2
    36    39    38    1
    37    39    41    1
    38    82    84   ar
    39    82    83   ar
    40    84    86   ar
    41    83    85   ar
    42    89    90    1
    43    12    11    2
    44    16    14    1
    45    86    87   ar
    46    90    91    1
    47    90    93    1
    48    85    87   ar
    49    91    92    2
    50    11    10    1
    51    93    94    1
    52    14    15    1
    53    14    13    1
    54    87    88    1
    55    10    13    1
    56    10     9    1
    57    94    96   ar
    58    94    95   ar
    59    96    98   ar
    60    95    97   ar
    61    66    64   ar
    62    66    67   ar
    63    61    60    2
    64    98    99   ar
    65    64    63   ar
    66    67    65   ar
    67    97    99   ar
    68    60    59    1
    69    63    65   ar
    70    63    62    1
    71     4     3    2
    72    59    62    1
    73    59    58    1
    74     7     5    1
    75     3     2    1
    76     2     5    1
    77     2     1    1
    78     5     6    1
    79     6     8    1
    80    45    44    2
    81    53    52    2
    82    49    47    1
    83    44    43    1
    84    44    50   am
    85    52    51    1
    86    43    46    1
    87    43    42    1
    88    51    50    1
    89    51    54    1
    90    46    47    1
    91    47    48    1
    92    56    55    1
    93    55    54    1
    94    55    57    1
