@<TRIPOS>MOLECULE
tmp/6cjuC07.pdb
 93 86 0 0 0
SMALL
GASTEIGER

@<TRIPOS>ATOM
      1  N        141.2410  118.4600  119.0850 N.3   121  PHE121     -0.1241
      2  CA       139.9620  118.1440  118.4630 C.3   121  PHE121      0.1605
      3  C        139.6560  119.0210  117.2590 C.2   121  PHE121      0.2264
      4  O        138.9700  118.5660  116.3470 O.2   121  PHE121     -0.2867
      5  CB       138.8140  118.2630  119.4640 C.3   121  PHE121      0.0534
      6  CG       137.4490  118.0190  118.8710 C.ar  121  PHE121     -0.0203
      7  CD1      136.9780  116.7330  118.6490 C.ar  121  PHE121     -0.0042
      8  CD2      136.6410  119.0870  118.5210 C.ar  121  PHE121     -0.0042
      9  CE1      135.7270  116.5220  118.1080 C.ar  121  PHE121     -0.0003
     10  CE2      135.3950  118.8800  117.9750 C.ar  121  PHE121     -0.0003
     11  CZ       134.9400  117.5980  117.7690 C.ar  121  PHE121     -0.0000
     12  N        139.1230  117.3990  113.7410 N.3   125  ALA125     -0.1245
     13  CA       137.8480  117.6260  113.0840 C.3   125  ALA125      0.1562
     14  C        137.9860  118.3360  111.7520 C.2   125  ALA125      0.2260
     15  O        137.1330  118.1450  110.8820 O.2   125  ALA125     -0.2867
     16  CB       136.9250  118.4500  113.9830 C.3   125  ALA125      0.0290
     17  N        138.2090  115.6740  109.2100 N.3   128  GLY128     -0.1210
     18  CA       136.9410  115.0900  108.8050 C.3   128  GLY128      0.1956
     19  C        136.1190  116.0130  107.9290 C.2   128  GLY128      0.2611
     20  O        135.4680  115.5680  106.9790 O.2   128  GLY128     -0.2717
     21  N        136.1530  117.3120  108.2220 N.am  129  ILE129     -0.1979
     22  CA       135.4310  118.2750  107.4020 C.3   129  ILE129      0.1595
     23  C        136.0500  118.3760  106.0140 C.2   129  ILE129      0.2287
     24  O        135.3260  118.4860  105.0150 O.2   129  ILE129     -0.2864
     25  CB       135.3850  119.6280  108.1270 C.3   129  ILE129      0.0276
     26  CG1      134.5940  119.4970  109.4150 C.3   129  ILE129      0.0022
     27  CG2      134.7040  120.6540  107.3080 C.3   129  ILE129      0.0022
     28  CD1      134.7270  120.6740  110.3170 C.3   129  ILE129      0.0001
     29  N        131.8150  115.4880   98.6010 N.3   136  LEU136     -0.1245
     30  CA       130.7640  116.0400   97.7380 C.3   136  LEU136      0.1561
     31  C        131.2840  117.0590   96.7180 C.2   136  LEU136      0.2260
     32  O        130.7300  118.1340   96.5330 O.2   136  LEU136     -0.2867
     33  CB       129.6330  116.6060   98.5920 C.3   136  LEU136      0.0270
     34  CG       129.8610  117.4370   99.8520 C.3   136  LEU136      0.0019
     35  CD1      130.0530  118.8880   99.6050 C.3   136  LEU136      0.0001
     36  CD2      128.6940  117.2360  100.7790 C.3   136  LEU136      0.0001
     37  N        123.9880  121.5630   97.3140 N.3   173  THR173     -0.1218
     38  CA       124.3630  120.6430   98.3760 C.3   173  THR173      0.1862
     39  C        125.7690  120.8890   98.8970 C.2   173  THR173      0.2287
     40  O        126.1020  120.3850   99.9700 O.2   173  THR173     -0.2866
     41  CB       124.2310  119.1970   97.9150 C.3   173  THR173      0.1770
     42  OG1      124.4810  118.3310   99.0230 O.3   173  THR173     -0.2211
     43  CG2      125.2150  118.8880   96.8170 C.3   173  THR173      0.0375
     44  N        124.8470  124.1280  101.4430 N.3   176  VAL176     -0.1231
     45  CA       124.2990  123.7620  102.7500 C.3   176  VAL176      0.1692
     46  C        125.4070  123.2720  103.6800 C.2   176  VAL176      0.2592
     47  O        125.4570  123.6290  104.8700 O.2   176  VAL176     -0.2718
     48  CB       123.1960  122.7080  102.5710 C.3   176  VAL176      0.0266
     49  CG1      122.6350  122.3000  103.8950 C.3   176  VAL176      0.0020
     50  CG2      122.1070  123.2420  101.6860 C.3   176  VAL176      0.0020
     51  N        126.3420  122.4980  103.1320 N.am  177  TYR177     -0.1976
     52  CA       127.4900  122.0190  103.8920 C.3   177  TYR177      0.1639
     53  C        128.4070  123.1670  104.2830 C.2   177  TYR177      0.2290
     54  O        128.9830  123.1760  105.3790 O.2   177  TYR177     -0.2864
     55  CB       128.2310  120.9810  103.0580 C.3   177  TYR177      0.0560
     56  CG       129.4110  120.3450  103.7200 C.ar  177  TYR177     -0.0198
     57  CD1      129.2480  119.4590  104.7620 C.ar  177  TYR177     -0.0009
     58  CD2      130.6820  120.5890  103.2680 C.ar  177  TYR177     -0.0009
     59  CE1      130.3240  118.8660  105.3550 C.ar  177  TYR177      0.0417
     60  CE2      131.7590  119.9970  103.8490 C.ar  177  TYR177      0.0417
     61  CZ       131.5750  119.1400  104.8890 C.ar  177  TYR177      0.1957
     62  OH       132.6670  118.5550  105.4650 O.3   177  TYR177     -0.2866
     63  N        126.7670  125.0570  107.2510 N.3   180  VAL180     -0.1231
     64  CA       126.8590  124.3840  108.5430 C.3   180  VAL180      0.1692
     65  C        128.3000  124.3600  109.0570 C.2   180  VAL180      0.2591
     66  O        128.5320  124.5290  110.2640 O.2   180  VAL180     -0.2718
     67  CB       126.2100  122.9880  108.4910 C.3   180  VAL180      0.0266
     68  CG1      126.9390  122.0690  107.6090 C.3   180  VAL180      0.0020
     69  CG2      126.1140  122.4030  109.8680 C.3   180  VAL180      0.0020
     70  N        129.3090  124.2770  108.1740 N.am  181  ILE181     -0.1980
     71  CA       130.6410  124.3550  108.7710 C.3   181  ILE181      0.1595
     72  C        131.1070  125.7880  108.9860 C.2   181  ILE181      0.2287
     73  O        132.0650  125.9920  109.7360 O.2   181  ILE181     -0.2864
     74  CB       131.8020  123.6500  108.0500 C.3   181  ILE181      0.0276
     75  CG1      132.3560  124.4720  106.9190 C.3   181  ILE181      0.0022
     76  CG2      131.3640  122.3300  107.5240 C.3   181  ILE181      0.0022
     77  CD1      133.7930  124.2140  106.8100 C.3   181  ILE181      0.0001
     78  N        130.0020  125.9640  112.5010 N.3   184  LEU184     -0.1245
     79  CA       130.9390  125.2390  113.3590 C.3   184  LEU184      0.1561
     80  C        132.2900  125.9320  113.4540 C.2   184  LEU184      0.2260
     81  O        132.9250  125.8790  114.5060 O.2   184  LEU184     -0.2867
     82  CB       131.1280  123.8090  112.8790 C.3   184  LEU184      0.0270
     83  CG       129.8840  122.9470  113.0250 C.3   184  LEU184      0.0019
     84  CD1      130.1400  121.5720  112.4720 C.3   184  LEU184      0.0001
     85  CD2      129.4570  122.8760  114.4700 C.3   184  LEU184      0.0001
     86  N        134.0040  127.0640  116.9100 N.3   188  MET188     -0.1245
     87  CA       135.3210  126.5930  117.3340 C.3   188  MET188      0.1570
     88  C        136.2820  127.7500  117.5460 C.2   188  MET188      0.2261
     89  O        137.0910  127.7300  118.4800 O.2   188  MET188     -0.2867
     90  CB       135.9060  125.6350  116.3060 C.3   188  MET188      0.0387
     91  CG       135.2180  124.3060  116.2010 C.3   188  MET188      0.0595
     92  SD       135.9980  123.3290  114.9120 S.3   188  MET188     -0.1393
     93  CE       134.8760  121.9490  114.8090 C.3   188  MET188      0.0692
@<TRIPOS>BOND
     1    32    31    2
     2    31    30    1
     3    43    41    1
     4    37    38    1
     5    30    33    1
     6    30    29    1
     7    41    38    1
     8    41    42    1
     9    38    39    1
    10    33    34    1
    11    39    40    2
    12    35    34    1
    13    34    36    1
    14    44    45    1
    15    50    48    1
    16    48    45    1
    17    48    49    1
    18    45    46    1
    19    55    56    1
    20    55    52    1
    21    51    46   am
    22    51    52    1
    23    58    56   ar
    24    58    60   ar
    25    46    47    2
    26    56    57   ar
    27    60    61   ar
    28    52    53    1
    29    53    54    2
    30    57    59   ar
    31    61    59   ar
    32    61    62    1
    33    24    23    2
    34    23    22    1
    35    77    75    1
    36    75    74    1
    37    20    19    2
    38    63    64    1
    39    27    25    1
    40    22    25    1
    41    22    21    1
    42    76    74    1
    43    68    67    1
    44    19    21   am
    45    19    18    1
    46    74    71    1
    47    25    26    1
    48    70    71    1
    49    70    65   am
    50    67    64    1
    51    67    69    1
    52    64    65    1
    53    71    72    1
    54    18    17    1
    55    72    73    2
    56    65    66    2
    57    26    28    1
    58    15    14    2
    59    14    13    1
    60    84    83    1
    61    78    79    1
    62    82    83    1
    63    82    79    1
    64    83    85    1
    65    13    12    1
    66    13    16    1
    67    79    80    1
    68    80    81    2
    69    93    92    1
    70    92    91    1
    71    91    90    1
    72    90    87    1
    73     4     3    2
    74    86    87    1
    75     3     2    1
    76    87    88    1
    77    88    89    2
    78    11    10   ar
    79    11     9   ar
    80    10     8   ar
    81     9     7   ar
    82     2     1    1
    83     2     5    1
    84     8     6   ar
    85     7     6   ar
    86     6     5    1
