@<TRIPOS>MOLECULE
tmp/6cjvA00.pdb
 94 88 0 0 0
SMALL
GASTEIGER

@<TRIPOS>ATOM
      1  N        -21.2410   -1.8170    6.6080 N.3    61  HIS61      -0.1241
      2  CA       -21.3730   -2.5980    7.8350 C.3    61  HIS61       0.1621
      3  C        -22.7780   -3.1050    8.0930 C.2    61  HIS61       0.2264
      4  O        -22.9520   -3.9900    8.9330 O.2    61  HIS61      -0.2867
      5  CB       -20.9210   -1.8060    9.0740 C.3    61  HIS61       0.0745
      6  CG       -21.4210   -0.3980    9.1550 C.ar   61  HIS61       0.0817
      7  ND1      -22.4970   -0.0270    9.9360 N.ar   61  HIS61      -0.2268
      8  CD2      -20.9560    0.7410    8.5920 C.ar   61  HIS61       0.1154
      9  CE1      -22.6850    1.2770    9.8330 C.ar   61  HIS61       0.1986
     10  NE2      -21.7650    1.7660    9.0220 N.ar   61  HIS61      -0.2212
     11  N        -29.1770    0.3130    5.8000 N.3    64  GLN64      -0.1245
     12  CA       -30.0040    1.1920    6.6000 C.3    64  GLN64       0.1566
     13  C        -31.0490    1.8500    5.7170 C.2    64  GLN64       0.2260
     14  O        -30.8110    2.1460    4.5460 O.2    64  GLN64      -0.2867
     15  CB       -29.1710    2.2680    7.3610 C.3    64  GLN64       0.0367
     16  CG       -28.6120    3.3750    6.5460 C.3    64  GLN64       0.0905
     17  CD       -27.8490    4.3460    7.4170 C.2    64  GLN64       0.2608
     18  OE1      -26.7530    4.0540    7.8850 O.2    64  GLN64      -0.2717
     19  NE2      -28.4400    5.4970    7.6570 N.am   64  GLN64      -0.0878
     20  N        -34.3730    8.5890   12.7360 N.3    88  LEU88      -0.1231
     21  CA       -33.4560    8.9300   11.6590 C.3    88  LEU88       0.1693
     22  C        -33.2290    7.7720   10.7060 C.2    88  LEU88       0.2591
     23  O        -33.2080    7.9590    9.4960 O.2    88  LEU88      -0.2718
     24  CB       -32.1170    9.3620   12.2480 C.3    88  LEU88       0.0284
     25  CG       -30.9950    9.5480   11.2380 C.3    88  LEU88       0.0019
     26  CD1      -31.4000   10.5500   10.1840 C.3    88  LEU88       0.0001
     27  CD2      -29.7110    9.9800   11.9650 C.3    88  LEU88       0.0001
     28  N        -33.0590    6.5640   11.2310 N.am   89  GLN89      -0.1979
     29  CA       -32.7650    5.4400   10.3640 C.3    89  GLN89       0.1601
     30  C        -33.0220    4.1520   11.1210 C.2    89  GLN89       0.2287
     31  O        -33.0340    4.1340   12.3520 O.2    89  GLN89      -0.2864
     32  CB       -31.3140    5.4770    9.8570 C.3    89  GLN89       0.0394
     33  CG       -30.2640    5.6140   10.9520 C.3    89  GLN89       0.0908
     34  CD       -29.5400    4.3440   11.3070 C.2    89  GLN89       0.2608
     35  OE1      -30.0770    3.2500   11.2260 O.2    89  GLN89      -0.2717
     36  NE2      -28.3110    4.5050   11.7770 N.am   89  GLN89      -0.0878
     37  N        -33.1030    3.9730   15.1680 N.3   118  VAL118     -0.1245
     38  CA       -32.2430    4.9820   15.7820 C.3   118  VAL118      0.1561
     39  C        -32.9470    6.3360   15.7680 C.2   118  VAL118      0.2260
     40  O        -33.3310    6.8520   14.7050 O.2   118  VAL118     -0.2867
     41  CB       -30.8840    5.0640   15.0690 C.3   118  VAL118      0.0252
     42  CG1      -29.9970    6.0550   15.7790 C.3   118  VAL118      0.0019
     43  CG2      -30.2510    3.6930   14.9710 C.3   118  VAL118      0.0019
     44  N        -28.4110   15.5290   14.8580 N.3   127  VAL127     -0.1245
     45  CA       -27.9180   14.2400   15.3420 C.3   127  VAL127      0.1561
     46  C        -26.4310   14.2850   15.6610 C.2   127  VAL127      0.2260
     47  O        -25.9640   13.5490   16.5350 O.2   127  VAL127     -0.2867
     48  CB       -28.2550   13.1170   14.3290 C.3   127  VAL127      0.0252
     49  CG1      -27.4620   13.2690   13.0270 C.3   127  VAL127      0.0019
     50  CG2      -28.0120   11.7570   14.9590 C.3   127  VAL127      0.0019
     51  N        -25.1480   12.9160   19.4290 N.3   131  VAL131     -0.1245
     52  CA       -24.2630   11.7860   19.7370 C.3   131  VAL131      0.1561
     53  C        -23.1740   12.1640   20.7270 C.2   131  VAL131      0.2260
     54  O        -22.4410   11.2940   21.1880 O.2   131  VAL131     -0.2867
     55  CB       -23.6200   11.1760   18.4710 C.3   131  VAL131      0.0252
     56  CG1      -24.6870   10.5800   17.5600 C.3   131  VAL131      0.0019
     57  CG2      -22.7750   12.1850   17.7140 C.3   131  VAL131      0.0019
     58  N        -29.4120    9.9090   22.0950 N.3   137  LEU137     -0.1245
     59  CA       -30.0640    8.9550   21.2160 C.3   137  LEU137      0.1561
     60  C        -30.9180    7.9830   22.0180 C.2   137  LEU137      0.2260
     61  O        -30.6730    7.6810   23.1840 O.2   137  LEU137     -0.2867
     62  CB       -29.0520    8.1550   20.3760 C.3   137  LEU137      0.0270
     63  CG       -28.1550    8.8820   19.3660 C.3   137  LEU137      0.0019
     64  CD1      -27.3890    7.8220   18.5640 C.3   137  LEU137      0.0001
     65  CD2      -28.8710    9.8190   18.4520 C.3   137  LEU137      0.0001
     66  N        -23.6040    3.4680   21.1700 N.3   194  LEU194     -0.1245
     67  CA       -23.6190    2.9080   19.8280 C.3   194  LEU194      0.1561
     68  C        -22.8530    1.5940   19.8480 C.2   194  LEU194      0.2260
     69  O        -21.8430    1.4500   20.5640 O.2   194  LEU194     -0.2867
     70  CB       -22.9940    3.8980   18.8450 C.3   194  LEU194      0.0270
     71  CG       -23.7090    5.2440   18.7140 C.3   194  LEU194      0.0019
     72  CD1      -22.7910    6.2040   17.9770 C.3   194  LEU194      0.0001
     73  CD2      -25.0280    5.0620   17.9780 C.3   194  LEU194      0.0001
     74  N        -21.5310    0.3590   16.9880 N.3   196  THR196     -0.1204
     75  CA       -20.5110    0.5340   15.9720 C.3   196  THR196      0.1979
     76  C        -19.6720    1.7610   16.2890 C.2   196  THR196      0.2460
     77  O        -20.1350    2.7070   16.9410 O.2   196  THR196     -0.2732
     78  CB       -21.1260    0.6980   14.5720 C.3   196  THR196      0.1783
     79  OG1      -22.1420    1.7000   14.6010 O.3   196  THR196     -0.2211
     80  CG2      -21.7480   -0.6290   14.0750 C.3   196  THR196      0.0376
     81  N        -18.4180    1.7720   15.8510 N.am  197  PRO197     -0.2718
     82  CA       -17.6170    2.9600   15.9780 C.3   197  PRO197      0.1520
     83  C        -18.4170    4.1640   15.5260 C.2   197  PRO197      0.2440
     84  O        -19.0780    4.1230   14.4730 O.2   197  PRO197     -0.2731
     85  CB       -16.4230    2.6620   15.0530 C.3   197  PRO197      0.0310
     86  CG       -16.2300    1.1760   15.1980 C.3   197  PRO197      0.0237
     87  CD       -17.6650    0.6280   15.3250 C.3   197  PRO197      0.0939
     88  N        -18.3760    5.2700   16.2780 N.am  198  PRO198     -0.2727
     89  CA       -17.3960    5.5920   17.3240 C.3   198  PRO198      0.1402
     90  C        -17.7370    5.1280   18.7430 C.2   198  PRO198      0.2269
     91  O        -17.0640    5.5240   19.7090 O.2   198  PRO198     -0.2865
     92  CB       -17.3700    7.1100   17.2940 C.3   198  PRO198      0.0296
     93  CG       -18.7310    7.4830   16.9220 C.3   198  PRO198      0.0237
     94  CD       -19.1620    6.4550   15.9090 C.3   198  PRO198      0.0939
@<TRIPOS>BOND
     1    14    13    2
     2    13    12    1
     3    11    12    1
     4    16    15    1
     5    16    17    1
     6    12    15    1
     7     1     2    1
     8    17    19   am
     9    17    18    2
    10     2     3    1
    11     2     5    1
    12     3     4    2
    13     8    10   ar
    14     8     6   ar
    15    10     9   ar
    16     5     6    1
    17     6     7   ar
    18    23    22    2
    19     9     7   ar
    20    32    29    1
    21    32    33    1
    22    26    25    1
    23    29    30    1
    24    29    28    1
    25    22    28   am
    26    22    21    1
    27    33    34    1
    28    30    31    2
    29    35    34    2
    30    25    27    1
    31    25    24    1
    32    34    36   am
    33    21    24    1
    34    21    20    1
    35    49    48    1
    36    80    78    1
    37    48    50    1
    38    48    45    1
    39    84    83    2
    40    78    79    1
    41    78    75    1
    42    40    39    2
    43    44    45    1
    44    43    41    1
    45    85    86    1
    46    85    82    1
    47    41    42    1
    48    41    38    1
    49    37    38    1
    50    86    87    1
    51    87    81    1
    52    45    46    1
    53    83    82    1
    54    83    88   am
    55    46    47    2
    56    39    38    1
    57    81    82    1
    58    81    76   am
    59    94    88    1
    60    94    93    1
    61    75    76    1
    62    75    74    1
    63    88    89    1
    64    76    77    2
    65    93    92    1
    66    92    89    1
    67    89    90    1
    68    56    55    1
    69    57    55    1
    70    72    71    1
    71    73    71    1
    72    65    63    1
    73    55    52    1
    74    64    63    1
    75    71    70    1
    76    90    91    2
    77    70    67    1
    78    63    62    1
    79    51    52    1
    80    52    53    1
    81    67    68    1
    82    67    66    1
    83    68    69    2
    84    62    59    1
    85    53    54    2
    86    59    60    1
    87    59    58    1
    88    60    61    2
