@<TRIPOS>MOLECULE
tmp/6ck7A00.pdb
 148 142 0 0 0
SMALL
GASTEIGER

@<TRIPOS>ATOM
      1  N        -11.2830   19.7910   26.0890 N.3    44  ALA44      -0.1231
      2  CA       -10.4020   19.3270   25.0320 C.3    44  ALA44       0.1694
      3  C        -10.8510   17.9930   24.4390 C.2    44  ALA44       0.2592
      4  O        -10.1220   17.4250   23.6180 O.2    44  ALA44      -0.2718
      5  CB        -8.9690   19.2000   25.5730 C.3    44  ALA44       0.0304
      6  N        -12.0320   17.4900   24.8370 N.am   45  ARG45      -0.1966
      7  CA       -12.6040   16.2400   24.3090 C.3    45  ARG45       0.1729
      8  C        -11.7440   15.0200   24.6420 C.2    45  ARG45       0.2617
      9  O        -11.6850   14.0640   23.8630 O.2    45  ARG45      -0.2715
     10  CB       -12.8460   16.3350   22.8020 C.3    45  ARG45       0.0348
     11  CG       -13.5190   17.6480   22.3780 C.3    45  ARG45       0.0492
     12  CD       -13.3480   17.9130   20.8940 C.3    45  ARG45       0.2205
     13  NE       -13.9560   16.8620   20.0870 N.pl3  45  ARG45      -0.0865
     14  CZ       -14.4470   17.0390   18.8650 C.cat  45  ARG45       0.5346
     15  NH1      -14.9840   16.0120   18.2160 N.pl3  45  ARG45       0.1354
     16  NH2      -14.4070   18.2400   18.2960 N.pl3  45  ARG45       0.1354
     17  N        -11.0860   15.0400   25.8030 N.am   46  GLY46      -0.1940
     18  CA       -10.2950   13.9130   26.2530 C.3    46  GLY46       0.2014
     19  C        -11.0300   13.0750   27.2880 C.2    46  GLY46       0.2639
     20  O        -12.0880   13.4500   27.7910 O.2    46  GLY46      -0.2714
     21  N        -10.4710   11.8920   27.5600 N.am   47  VAL47      -0.1963
     22  CA       -10.9680   11.0470   28.6400 C.3    47  VAL47       0.1727
     23  C         -9.9800   10.9460   29.7890 C.2    47  VAL47       0.2616
     24  O        -10.2620   10.2540   30.7830 O.2    47  VAL47      -0.2715
     25  CB       -11.3540    9.6490   28.1340 C.3    47  VAL47       0.0290
     26  CG1      -12.4250    9.7640   27.0770 C.3    47  VAL47       0.0023
     27  CG2      -10.1270    8.8990   27.5880 C.3    47  VAL47       0.0023
     28  N         -8.8320   11.5990   29.6790 N.am   48  GLY48      -0.1955
     29  CA        -7.9010   11.7080   30.7870 C.3    48  GLY48       0.1869
     30  C         -7.0360   12.9300   30.5830 C.2    48  GLY48       0.2309
     31  O         -6.9800   13.5040   29.4950 O.2    48  GLY48      -0.2863
     32  N          0.7500   17.7530   31.4690 N.3    53  GLN53      -0.1245
     33  CA         0.2240   18.2610   30.2120 C.3    53  GLN53       0.1566
     34  C         -0.2570   19.6980   30.3060 C.2    53  GLN53       0.2260
     35  O         -0.4610   20.3230   29.2580 O.2    53  GLN53      -0.2867
     36  CB        -0.9220   17.3850   29.7290 C.3    53  GLN53       0.0367
     37  CG        -0.4820   16.0090   29.3160 C.3    53  GLN53       0.0905
     38  CD        -1.6540   15.1870   28.8380 C.2    53  GLN53       0.2608
     39  OE1       -2.3430   14.5500   29.6370 O.2    53  GLN53      -0.2717
     40  NE2       -1.9200   15.2410   27.5340 N.am   53  GLN53      -0.0878
     41  N        -13.7190    7.9420   31.6040 N.3    65  ILE65      -0.1245
     42  CA       -13.8990    7.2520   30.3380 C.3    65  ILE65       0.1561
     43  C        -15.3700    7.1870   29.9570 C.2    65  ILE65       0.2260
     44  O        -15.6940    7.2040   28.7670 O.2    65  ILE65      -0.2867
     45  CB       -13.2410    5.8650   30.4000 C.3    65  ILE65       0.0252
     46  CG1      -11.7860    5.9900   29.9540 C.3    65  ILE65       0.0019
     47  CG2      -13.9780    4.8470   29.5360 C.3    65  ILE65       0.0019
     48  CD1      -10.8210    5.4520   30.9470 C.3    65  ILE65       0.0001
     49  N         -5.9400    1.7670   19.4060 N.3    90  GLU90      -0.1231
     50  CA        -5.8500    2.9890   18.6080 C.3    90  GLU90       0.1699
     51  C         -5.9640    4.1950   19.5260 C.2    90  GLU90       0.2592
     52  O         -6.9680    4.3430   20.2270 O.2    90  GLU90      -0.2718
     53  CB        -6.9550    3.0180   17.5540 C.3    90  GLU90       0.0402
     54  CG        -7.0110    4.3360   16.7720 C.3    90  GLU90       0.1161
     55  CD        -6.0110    4.3600   15.6370 C.2    90  GLU90       0.3649
     56  OE1       -5.4020    3.3060   15.3720 O.co2  90  GLU90      -0.2457
     57  OE2       -5.8480    5.4190   14.9970 O.co2  90  GLU90      -0.2457
     58  N         -4.9490    5.0660   19.5180 N.am   91  GLU91      -0.1966
     59  CA        -4.7800    6.0440   20.5810 C.3    91  GLU91       0.1733
     60  C         -4.3980    7.4130   20.0360 C.2    91  GLU91       0.2617
     61  O         -3.6670    7.5110   19.0530 O.2    91  GLU91      -0.2715
     62  CB        -3.6950    5.5550   21.5510 C.3    91  GLU91       0.0429
     63  CG        -3.5420    6.3430   22.8150 C.3    91  GLU91       0.1163
     64  CD        -2.6520    5.5990   23.7870 C.2    91  GLU91       0.3649
     65  OE1       -2.9670    4.4380   24.1160 O.co2  91  GLU91      -0.2457
     66  OE2       -1.6270    6.1520   24.1830 O.co2  91  GLU91      -0.2457
     67  N         -4.8930    8.4630   20.6950 N.am   92  GLY92      -0.1940
     68  CA        -4.3820    9.8090   20.5270 C.3    92  GLY92       0.2014
     69  C         -4.0410   10.4160   21.8750 C.2    92  GLY92       0.2639
     70  O         -4.2630    9.8100   22.9180 O.2    92  GLY92      -0.2714
     71  N         -3.4910   11.6260   21.8220 N.am   93  CYS93      -0.1953
     72  CA        -3.0160   12.3150   23.0160 C.3    93  CYS93       0.1843
     73  C         -3.3080   13.7990   22.8750 C.2    93  CYS93       0.2625
     74  O         -3.0640   14.3750   21.8160 O.2    93  CYS93      -0.2714
     75  CB        -1.5040   12.1110   23.2100 C.3    93  CYS93       0.0997
     76  SG        -0.8430   12.9320   24.6880 S.3    93  CYS93      -0.0797
     77  N         -3.8250   14.4130   23.9370 N.am   94  LEU94      -0.1977
     78  CA        -4.0920   15.8460   23.9050 C.3    94  LEU94       0.1596
     79  C         -2.8170   16.6670   23.7180 C.2    94  LEU94       0.2287
     80  O         -2.8980   17.8250   23.2800 O.2    94  LEU94      -0.2864
     81  CB        -4.8090   16.2680   25.1830 C.3    94  LEU94       0.0297
     82  CG        -6.2230   15.7000   25.3620 C.3    94  LEU94       0.0022
     83  CD1       -6.8430   16.1650   26.6630 C.3    94  LEU94       0.0001
     84  CD2       -7.1010   16.0460   24.1800 C.3    94  LEU94       0.0001
     85  N         -2.7380    9.9220   15.5070 N.3   100  TYR100     -0.1241
     86  CA        -3.4440    8.7190   15.9390 C.3   100  TYR100      0.1605
     87  C         -2.6490    7.5140   15.4810 C.2   100  TYR100      0.2264
     88  O         -2.2560    7.4360   14.3160 O.2   100  TYR100     -0.2867
     89  CB        -4.8670    8.6520   15.3590 C.3   100  TYR100      0.0534
     90  CG        -5.6820    9.8340   15.7690 C.ar  100  TYR100     -0.0201
     91  CD1       -6.1790    9.9370   17.0650 C.ar  100  TYR100     -0.0009
     92  CD2       -5.9640   10.8520   14.8700 C.ar  100  TYR100     -0.0009
     93  CE1       -6.9310   11.0300   17.4570 C.ar  100  TYR100      0.0417
     94  CE2       -6.7130   11.9580   15.2580 C.ar  100  TYR100      0.0417
     95  CZ        -7.1910   12.0350   16.5570 C.ar  100  TYR100      0.1957
     96  OH        -7.9240   13.1220   16.9810 O.3   100  TYR100     -0.2866
     97  N        -10.4480    0.3350   27.6320 N.3   128  LEU128     -0.1245
     98  CA       -10.0960    1.7530   27.6070 C.3   128  LEU128      0.1561
     99  C         -9.5500    2.2360   28.9460 C.2   128  LEU128      0.2260
    100  O         -8.6110    3.0380   28.9790 O.2   128  LEU128     -0.2867
    101  CB       -11.3040    2.6000   27.2120 C.3   128  LEU128      0.0270
    102  CG       -11.7740    2.5730   25.7600 C.3   128  LEU128      0.0019
    103  CD1      -12.8200    3.6550   25.5620 C.3   128  LEU128      0.0001
    104  CD2      -10.6140    2.7630   24.7970 C.3   128  LEU128      0.0001
    105  N         -5.9900    1.1770   29.2180 N.3   131  GLU131     -0.1231
    106  CA        -5.1870    1.9670   28.2970 C.3   131  GLU131      0.1699
    107  C         -4.9620    3.3620   28.8530 C.2   131  GLU131      0.2592
    108  O         -3.8350    3.8690   28.8620 O.2   131  GLU131     -0.2718
    109  CB        -5.8820    2.0330   26.9320 C.3   131  GLU131      0.0402
    110  CG        -5.1190    2.8340   25.9000 C.3   131  GLU131      0.1161
    111  CD        -5.9770    3.2060   24.7010 C.2   131  GLU131      0.3649
    112  OE1       -5.4180    3.7420   23.7240 O.co2 131  GLU131     -0.2457
    113  OE2       -7.2040    2.9770   24.7380 O.co2 131  GLU131     -0.2457
    114  N         -6.0300    3.9740   29.3670 N.am  132  CYS132     -0.1970
    115  CA        -5.9410    5.3370   29.8830 C.3   132  CYS132      0.1712
    116  C         -5.0340    5.4080   31.1050 C.2   132  CYS132      0.2296
    117  O         -4.1980    6.3110   31.2210 O.2   132  CYS132     -0.2864
    118  CB        -7.3420    5.8440   30.2260 C.3   132  CYS132      0.0983
    119  SG        -7.3550    7.5850   30.6520 S.3   132  CYS132     -0.0798
    120  N         -1.5320    5.2460   29.9290 N.3   135  HIS135     -0.1226
    121  CA        -1.2090    6.4820   29.2090 C.3   135  HIS135      0.1752
    122  C         -0.9480    7.6390   30.1760 C.2   135  HIS135      0.2595
    123  O          0.0200    8.3960   30.0100 O.2   135  HIS135     -0.2718
    124  CB        -2.3600    6.8000   28.2390 C.3   135  HIS135      0.0759
    125  CG        -2.1840    8.0550   27.4310 C.ar  135  HIS135      0.0818
    126  ND1       -1.9600    8.0280   26.0690 N.ar  135  HIS135     -0.2268
    127  CD2       -2.2430    9.3660   27.7780 C.ar  135  HIS135      0.1154
    128  CE1       -1.8980    9.2710   25.6120 C.ar  135  HIS135      0.1986
    129  NE2       -2.0450   10.1060   26.6310 N.ar  135  HIS135     -0.2212
    130  N         -1.7780    7.7670   31.2130 N.am  136  GLU136     -0.1979
    131  CA        -1.6160    8.8840   32.1440 C.3   136  GLU136      0.1602
    132  C         -0.3680    8.7140   32.9930 C.2   136  GLU136      0.2287
    133  O          0.3400    9.6920   33.2590 O.2   136  GLU136     -0.2864
    134  CB        -2.8400    9.0250   33.0510 C.3   136  GLU136      0.0415
    135  CG        -4.1690    9.2680   32.3180 C.3   136  GLU136      0.1163
    136  CD        -4.1360   10.4430   31.3630 C.2   136  GLU136      0.3649
    137  OE1       -3.4370   11.4420   31.6350 O.co2 136  GLU136     -0.2457
    138  OE2       -4.8410   10.3650   30.3270 O.co2 136  GLU136     -0.2457
    139  N          2.7270    9.7810   31.1170 N.3   139  HIS139     -0.1241
    140  CA         2.9230   11.2340   31.1700 C.3   139  HIS139      0.1621
    141  C          3.6530   11.6640   32.4440 C.2   139  HIS139      0.2264
    142  O          4.4500   12.6120   32.4190 O.2   139  HIS139     -0.2867
    143  CB         1.5680   11.9600   31.1050 C.3   139  HIS139      0.0745
    144  CG         1.0470   12.2120   29.7170 C.ar  139  HIS139      0.0817
    145  ND1        1.7320   12.9500   28.7740 N.ar  139  HIS139     -0.2268
    146  CD2       -0.1220   11.8520   29.1370 C.ar  139  HIS139      0.1154
    147  CE1        1.0090   13.0150   27.6610 C.ar  139  HIS139      0.1986
    148  NE2       -0.1250   12.3630   27.8580 N.ar  139  HIS139     -0.2212
@<TRIPOS>BOND
     1    88    87    2
     2    92    94   ar
     3    92    90   ar
     4    57    55   ar
     5    94    95   ar
     6    89    90    1
     7    89    86    1
     8    56    55   ar
     9    87    86    1
    10    85    86    1
    11    55    54    1
    12    90    91   ar
    13    95    96    1
    14    95    93   ar
    15    54    53    1
    16    91    93   ar
    17    53    50    1
    18    15    14    1
    19    16    14    1
    20    50    49    1
    21    50    51    1
    22    14    13    2
    23    61    60    2
    24    58    51   am
    25    58    59    1
    26    51    52    2
    27    60    59    1
    28    60    67   am
    29    13    12    1
    30    68    67    1
    31    68    69    1
    32    59    62    1
    33    12    11    1
    34    62    63    1
    35    74    73    2
    36    71    69   am
    37    71    72    1
    38    69    70    2
    39    11    10    1
    40    10     7    1
    41    63    64    1
    42    73    72    1
    43    73    77   am
    44    72    75    1
    45    75    76    1
    46    80    79    2
    47     4     3    2
    48    79    78    1
    49   112   111   ar
    50    64    65   ar
    51    64    66   ar
    52     9     8    2
    53    78    77    1
    54    78    81    1
    55    84    82    1
    56     7     8    1
    57     7     6    1
    58     3     6   am
    59     3     2    1
    60     8    17   am
    61   111   113   ar
    62   111   110    1
    63   104   102    1
    64     2     5    1
    65     2     1    1
    66    81    82    1
    67    82    83    1
    68   103   102    1
    69   128   126   ar
    70   128   129   ar
    71   102   101    1
    72    17    18    1
    73   110   109    1
    74   126   125   ar
    75    18    19    1
    76   129   127   ar
    77   109   106    1
    78    26    25    1
    79   101    98    1
    80    19    21   am
    81    19    20    2
    82   125   127   ar
    83   125   124    1
    84    40    38   am
    85    21    22    1
    86    27    25    1
    87    98    97    1
    88    98    99    1
    89   147   148   ar
    90   147   145   ar
    91   148   146   ar
    92    25    22    1
    93   124   121    1
    94   106   107    1
    95   106   105    1
    96    22    23    1
    97    44    43    2
    98   145   144   ar
    99    38    37    1
   100    38    39    2
   101   107   108    2
   102   107   114   am
   103    99   100    2
   104   146   144   ar
   105   121   120    1
   106   121   122    1
   107    35    34    2
   108    37    36    1
   109   114   115    1
   110    31    30    2
   111    47    45    1
   112    28    23   am
   113    28    29    1
   114   144   143    1
   115    36    33    1
   116    23    24    2
   117   115   118    1
   118   115   116    1
   119    46    45    1
   120    46    48    1
   121    43    42    1
   122   123   122    2
   123   122   130   am
   124    33    34    1
   125    33    32    1
   126   118   119    1
   127   138   136   ar
   128    42    45    1
   129    42    41    1
   130    30    29    1
   131   116   117    2
   132   143   140    1
   133   139   140    1
   134   140   141    1
   135   130   131    1
   136   136   137   ar
   137   136   135    1
   138   131   132    1
   139   131   134    1
   140   135   134    1
   141   142   141    2
   142   132   133    2
