@<TRIPOS>MOLECULE
tmp/6ck9D07.pdb
 78 75 0 0 0
SMALL
GASTEIGER

@<TRIPOS>ATOM
      1  N        586.1150  -77.0050    6.8560 N.3   182  ASN182     -0.1240
      2  CA       585.4830  -77.1020    5.5440 C.3   182  ASN182      0.1653
      3  C        585.0630  -75.7260    5.0440 C.2   182  ASN182      0.2266
      4  O        584.1060  -75.6020    4.2720 O.2   182  ASN182     -0.2867
      5  CB       584.2750  -78.0420    5.5950 C.3   182  ASN182      0.1155
      6  CG       583.1650  -77.5140    6.4770 C.2   182  ASN182      0.2627
      7  OD1      583.4220  -76.8840    7.5000 O.2   182  ASN182     -0.2716
      8  ND2      581.9190  -77.7700    6.0810 N.am  182  ASN182     -0.0877
      9  N        583.4650  -73.1590    6.3120 N.3   184  THR184     -0.1203
     10  CA       582.4310  -72.4820    7.0810 C.3   184  THR184      0.1994
     11  C        582.1590  -73.2530    8.3650 C.2   184  THR184      0.2618
     12  O        582.4750  -74.4390    8.4830 O.2   184  THR184     -0.2717
     13  CB       581.1300  -72.3300    6.2760 C.3   184  THR184      0.1784
     14  OG1      580.7610  -73.5950    5.7140 O.3   184  THR184     -0.2211
     15  CG2      581.3070  -71.3130    5.1580 C.3   184  THR184      0.0376
     16  N        581.5640  -72.5620    9.3340 N.am  185  GLY185     -0.1942
     17  CA       581.2310  -73.1660   10.6020 C.3   185  GLY185      0.1998
     18  C        582.2260  -72.8220   11.6910 C.2   185  GLY185      0.2480
     19  O        583.1370  -72.0100   11.5010 O.2   185  GLY185     -0.2729
     20  N        582.0650  -73.4340   12.8620 N.am  186  PRO186     -0.2726
     21  CA       582.9790  -73.1540   13.9720 C.3   186  PRO186      0.1402
     22  C        584.3640  -73.7250   13.7140 C.2   186  PRO186      0.2269
     23  O        584.5690  -74.5810   12.8510 O.2   186  PRO186     -0.2865
     24  CB       582.3090  -73.8450   15.1640 C.3   186  PRO186      0.0296
     25  CG       581.5250  -74.9530   14.5470 C.3   186  PRO186      0.0237
     26  CD       581.0340  -74.4210   13.2280 C.3   186  PRO186      0.0939
     27  N        587.8860  -80.1230    0.8880 N.3   220  ILE220     -0.1231
     28  CA       586.9290  -79.6050   -0.0790 C.3   220  ILE220      0.1692
     29  C        586.1200  -78.5100    0.6010 C.2   220  ILE220      0.2592
     30  O        585.8430  -78.5750    1.8030 O.2   220  ILE220     -0.2718
     31  CB       585.9980  -80.7120   -0.6270 C.3   220  ILE220      0.0266
     32  CG1      586.8170  -81.8960   -1.1430 C.3   220  ILE220      0.0019
     33  CG2      585.1060  -80.1740   -1.7360 C.3   220  ILE220      0.0020
     34  CD1      585.9720  -83.0420   -1.6450 C.3   220  ILE220      0.0001
     35  N        585.7490  -77.4900   -0.1710 N.am  221  ARG221     -0.1966
     36  CA       584.9710  -76.3760    0.3520 C.3   221  ARG221      0.1729
     37  C        583.9840  -75.8940   -0.6990 C.2   221  ARG221      0.2617
     38  O        584.3070  -75.8390   -1.8890 O.2   221  ARG221     -0.2715
     39  CB       585.8800  -75.2230    0.7970 C.3   221  ARG221      0.0348
     40  CG       587.0410  -74.9480   -0.1430 C.3   221  ARG221      0.0492
     41  CD       587.9900  -73.9210    0.4500 C.3   221  ARG221      0.2205
     42  NE       588.3420  -74.2450    1.8290 N.pl3 221  ARG221     -0.0865
     43  CZ       589.3550  -75.0320    2.1780 C.cat 221  ARG221      0.5346
     44  NH1      590.1230  -75.5790    1.2480 N.pl3 221  ARG221      0.1354
     45  NH2      589.5990  -75.2710    3.4590 N.pl3 221  ARG221      0.1354
     46  N        582.7820  -75.5480   -0.2490 N.am  222  SER222     -0.1936
     47  CA       581.7220  -75.0550   -1.1210 C.3   222  SER222      0.2055
     48  C        580.7120  -74.3040   -0.2580 C.2   222  SER222      0.2642
     49  O        580.9370  -74.0780    0.9350 O.2   222  SER222     -0.2714
     50  CB       581.0710  -76.2060   -1.8970 C.3   222  SER222      0.2130
     51  OG       579.9770  -75.7440   -2.6700 O.3   222  SER222     -0.2179
     52  N        579.5960  -73.9050   -0.8690 N.am  223  GLU223     -0.1976
     53  CA       578.4960  -73.3040   -0.1250 C.3   223  GLU223      0.1602
     54  C        577.3730  -74.3160    0.0500 C.2   223  GLU223      0.2287
     55  O        577.4790  -75.2440    0.8580 O.2   223  GLU223     -0.2864
     56  CB       577.9640  -72.0570   -0.8340 C.3   223  GLU223      0.0415
     57  CG       578.9290  -70.8930   -0.8800 C.3   223  GLU223      0.1163
     58  CD       578.2330  -69.5740   -1.1600 C.2   223  GLU223      0.3649
     59  OE1      576.9910  -69.5200   -1.0450 O.co2 223  GLU223     -0.2457
     60  OE2      578.9290  -68.5910   -1.4930 O.co2 223  GLU223     -0.2457
     61  N        576.2510  -77.2400   -1.1000 N.3   225  LEU225     -0.1245
     62  CA       576.7930  -78.3200   -1.9170 C.3   225  LEU225      0.1561
     63  C        575.6940  -79.0830   -2.6440 C.2   225  LEU225      0.2260
     64  O        575.9310  -79.6300   -3.7270 O.2   225  LEU225     -0.2867
     65  CB       577.6240  -79.2680   -1.0510 C.3   225  LEU225      0.0270
     66  CG       578.5200  -80.2530   -1.8050 C.3   225  LEU225      0.0019
     67  CD1      579.4550  -79.5080   -2.7450 C.3   225  LEU225      0.0001
     68  CD2      579.3100  -81.1140   -0.8330 C.3   225  LEU225      0.0001
     69  N        581.3620  -87.1610    0.2350 N.3   299  HIS299     -0.1241
     70  CA       580.2970  -86.1700    0.3070 C.3   299  HIS299      0.1621
     71  C        579.0460  -86.5830   -0.4610 C.2   299  HIS299      0.2264
     72  O        578.1840  -85.7360   -0.7150 O.2   299  HIS299     -0.2867
     73  CB       580.7950  -84.8180   -0.2120 C.3   299  HIS299      0.0745
     74  CG       581.7210  -84.1120    0.7290 C.ar  299  HIS299      0.0817
     75  ND1      581.9550  -82.7550    0.6630 N.ar  299  HIS299     -0.2268
     76  CD2      582.4710  -84.5730    1.7580 C.ar  299  HIS299      0.1154
     77  CE1      582.8090  -82.4100    1.6100 C.ar  299  HIS299      0.1986
     78  NE2      583.1380  -83.4950    2.2890 N.ar  299  HIS299     -0.2212
@<TRIPOS>BOND
     1    64    63    2
     2    67    66    1
     3    51    50    1
     4    63    62    1
     5    62    61    1
     6    62    65    1
     7    50    47    1
     8    38    37    2
     9    66    65    1
    10    66    68    1
    11    33    31    1
    12    34    32    1
    13    60    58   ar
    14    58    59   ar
    15    58    57    1
    16    32    31    1
    17    47    48    1
    18    47    46    1
    19    57    56    1
    20    52    48   am
    21    52    53    1
    22    56    53    1
    23    72    71    2
    24    37    46   am
    25    37    36    1
    26    31    28    1
    27    71    70    1
    28    48    49    2
    29    73    70    1
    30    73    74    1
    31    35    36    1
    32    35    29   am
    33    40    41    1
    34    40    39    1
    35    53    54    1
    36    28    29    1
    37    28    27    1
    38    54    55    2
    39    69    70    1
    40    36    39    1
    41    41    42    1
    42    29    30    2
    43    75    74   ar
    44    75    77   ar
    45    74    76   ar
    46    44    43    1
    47    77    78   ar
    48    76    78   ar
    49    42    43    2
    50    43    45    1
    51     4     3    2
    52     3     2    1
    53    15    13    1
    54     2     5    1
    55     2     1    1
    56     5     6    1
    57    14    13    1
    58     8     6   am
    59    13    10    1
    60     9    10    1
    61     6     7    2
    62    10    11    1
    63    11    12    2
    64    11    16   am
    65    16    17    1
    66    17    18    1
    67    19    18    2
    68    18    20   am
    69    23    22    2
    70    20    26    1
    71    20    21    1
    72    26    25    1
    73    22    21    1
    74    21    24    1
    75    25    24    1
