@<TRIPOS>MOLECULE
tmp/6ckcA00.pdb
 196 189 0 0 0
SMALL
GASTEIGER

@<TRIPOS>ATOM
      1  N        -36.5260  -44.1250   -4.8590 N.3   302  PRO302     -0.2102
      2  CA       -35.9140  -43.1540   -3.9400 C.3   302  PRO302      0.1504
      3  C        -36.8800  -42.1440   -3.3310 C.2   302  PRO302      0.2575
      4  O        -36.4850  -41.4950   -2.3710 O.2   302  PRO302     -0.2718
      5  CB       -34.8100  -42.5020   -4.7770 C.3   302  PRO302      0.0282
      6  CG       -34.6060  -43.4220   -5.9420 C.3   302  PRO302      0.0208
      7  CD       -35.9850  -43.9430   -6.2160 C.3   302  PRO302      0.0893
      8  N        -38.1290  -42.0620   -3.8120 N.am  303  LEU303     -0.1980
      9  CA       -39.1470  -41.1970   -3.2380 C.3   303  LEU303      0.1596
     10  C        -39.7860  -41.8650   -2.0290 C.2   303  LEU303      0.2287
     11  O        -39.7280  -41.3040   -0.9450 O.2   303  LEU303     -0.2864
     12  CB       -40.2040  -40.7850   -4.2820 C.3   303  LEU303      0.0297
     13  CG       -41.3870  -39.9260   -3.7860 C.3   303  LEU303      0.0022
     14  CD1      -40.9010  -38.5630   -3.2140 C.3   303  LEU303      0.0001
     15  CD2      -42.3590  -39.6820   -4.8690 C.3   303  LEU303      0.0001
     16  N        -32.8260  -44.1730    0.4080 N.3   307  LEU307     -0.1245
     17  CA       -31.7060  -44.9890   -0.1220 C.3   307  LEU307      0.1561
     18  C        -30.6210  -45.1380    0.8960 C.2   307  LEU307      0.2260
     19  O        -30.4750  -44.2530    1.7360 O.2   307  LEU307     -0.2867
     20  CB       -31.1140  -44.4130   -1.4110 C.3   307  LEU307      0.0270
     21  CG       -32.0440  -44.2270   -2.5920 C.3   307  LEU307      0.0019
     22  CD1      -31.2690  -43.6820   -3.7740 C.3   307  LEU307      0.0001
     23  CD2      -32.6960  -45.5430   -2.9910 C.3   307  LEU307      0.0001
     24  N        -26.1030  -44.7390   -2.7310 N.3   312  TYR312     -0.1241
     25  CA       -25.6040  -43.4320   -3.1700 C.3   312  TYR312      0.1605
     26  C        -24.1640  -43.5680   -3.5980 C.2   312  TYR312      0.2264
     27  O        -23.7920  -42.9750   -4.6020 O.2   312  TYR312     -0.2867
     28  CB       -25.7030  -42.3510   -2.0740 C.3   312  TYR312      0.0534
     29  CG       -27.1010  -41.8710   -1.7430 C.ar  312  TYR312     -0.0201
     30  CD1      -27.8180  -41.0740   -2.6370 C.ar  312  TYR312     -0.0009
     31  CD2      -27.6600  -42.1110   -0.4930 C.ar  312  TYR312     -0.0009
     32  CE1      -29.0900  -40.5970   -2.3220 C.ar  312  TYR312      0.0417
     33  CE2      -28.9370  -41.6460   -0.1690 C.ar  312  TYR312      0.0417
     34  CZ       -29.6350  -40.8630   -1.0770 C.ar  312  TYR312      0.1957
     35  OH       -30.8910  -40.4130   -0.7670 O.3   312  TYR312     -0.2866
     36  N        -24.0650  -44.8910   -7.2280 N.3   315  PHE315     -0.1227
     37  CA       -24.4330  -43.8050   -8.1520 C.3   315  PHE315      0.1736
     38  C        -23.2890  -42.8530   -8.4670 C.2   315  PHE315      0.2595
     39  O        -23.0770  -42.4850   -9.6140 O.2   315  PHE315     -0.2718
     40  CB       -25.6360  -43.0350   -7.6000 C.3   315  PHE315      0.0547
     41  CG       -26.9010  -43.8100   -7.9240 C.ar  315  PHE315     -0.0202
     42  CD1      -27.3690  -43.8920   -9.2370 C.ar  315  PHE315     -0.0042
     43  CD2      -27.5510  -44.5650   -6.9420 C.ar  315  PHE315     -0.0042
     44  CE1      -28.5040  -44.6500   -9.5510 C.ar  315  PHE315     -0.0003
     45  CE2      -28.6720  -45.3520   -7.2620 C.ar  315  PHE315     -0.0003
     46  CZ       -29.1490  -45.3800   -8.5630 C.ar  315  PHE315     -0.0000
     47  N        -22.5290  -42.5210   -7.4370 N.am  316  GLU316     -0.1979
     48  CA       -21.3920  -41.6070   -7.4500 C.3   316  GLU316      0.1602
     49  C        -20.1580  -42.1390   -8.1540 C.2   316  GLU316      0.2287
     50  O        -19.2780  -41.3430   -8.5100 O.2   316  GLU316     -0.2864
     51  CB       -21.0240  -41.2380   -6.0160 C.3   316  GLU316      0.0415
     52  CG       -22.0070  -40.2880   -5.3610 C.3   316  GLU316      0.1163
     53  CD       -22.0020  -40.3640   -3.8480 C.2   316  GLU316      0.3649
     54  OE1      -20.9420  -40.6740   -3.2500 O.co2 316  GLU316     -0.2457
     55  OE2      -23.0710  -40.0940   -3.2550 O.co2 316  GLU316     -0.2457
     56  N        -21.8420  -37.2800  -14.1960 N.3   322  TYR322     -0.1241
     57  CA       -21.7190  -35.9870  -13.5850 C.3   322  TYR322      0.1605
     58  C        -20.9190  -35.0110  -14.4620 C.2   322  TYR322      0.2264
     59  O        -21.2300  -33.8210  -14.4510 O.2   322  TYR322     -0.2867
     60  CB       -21.2080  -36.1060  -12.1470 C.3   322  TYR322      0.0534
     61  CG       -22.0510  -37.0280  -11.2790 C.ar  322  TYR322     -0.0201
     62  CD1      -23.2490  -36.5930  -10.7110 C.ar  322  TYR322     -0.0009
     63  CD2      -21.6320  -38.3160  -10.9890 C.ar  322  TYR322     -0.0009
     64  CE1      -24.0460  -37.4510   -9.9430 C.ar  322  TYR322      0.0417
     65  CE2      -22.3920  -39.1670  -10.1740 C.ar  322  TYR322      0.0417
     66  CZ       -23.6030  -38.7320   -9.6520 C.ar  322  TYR322      0.1957
     67  OH       -24.3550  -39.5610   -8.8360 O.3   322  TYR322     -0.2866
     68  N        -33.1820  -33.0020   -5.0000 N.3   353  GLY353     -0.1210
     69  CA       -32.8700  -34.3920   -4.7040 C.3   353  GLY353      0.1956
     70  C        -31.3590  -34.4970   -4.7530 C.2   353  GLY353      0.2612
     71  O        -30.8050  -35.0930   -5.6800 O.2   353  GLY353     -0.2717
     72  N        -30.6770  -33.8280   -3.8050 N.am  354  ALA354     -0.1965
     73  CA       -29.2230  -33.6810   -3.7960 C.3   354  ALA354      0.1728
     74  C        -28.4010  -34.9190   -3.3520 C.2   354  ALA354      0.2617
     75  O        -27.1780  -34.9390   -3.5720 O.2   354  ALA354     -0.2715
     76  CB       -28.8240  -32.4550   -2.9800 C.3   354  ALA354      0.0334
     77  N        -29.0500  -35.9180   -2.7630 N.am  355  GLY355     -0.1940
     78  CA       -28.3680  -37.1160   -2.3060 C.3   355  GLY355      0.2014
     79  C        -27.2260  -36.7650   -1.3870 C.2   355  GLY355      0.2638
     80  O        -27.4250  -35.9980   -0.4510 O.2   355  GLY355     -0.2714
     81  N        -26.0150  -37.2630   -1.6730 N.am  356  ARG356     -0.1977
     82  CA       -24.8360  -36.9850   -0.8470 C.3   356  ARG356      0.1597
     83  C        -23.9240  -35.8460   -1.4060 C.2   356  ARG356      0.2287
     84  O        -22.7860  -35.6990   -0.9530 O.2   356  ARG356     -0.2864
     85  CB       -24.0350  -38.2670   -0.5640 C.3   356  ARG356      0.0334
     86  CG       -24.7970  -39.3580    0.2010 C.3   356  ARG356      0.0492
     87  CD       -23.9060  -40.4560    0.7810 C.3   356  ARG356      0.2205
     88  NE       -22.8780  -40.9360   -0.1520 N.pl3 356  ARG356     -0.0865
     89  CZ       -21.8360  -41.7020    0.1830 C.cat 356  ARG356      0.5346
     90  NH1      -20.9550  -42.0750   -0.7370 N.pl3 356  ARG356      0.1354
     91  NH2      -21.6680  -42.1010    1.4410 N.pl3 356  ARG356      0.1354
     92  N        -23.1750  -34.9180   -5.1880 N.3   358  PRO358     -0.2116
     93  CA       -22.3850  -34.8580   -6.4330 C.3   358  PRO358      0.1372
     94  C        -22.8120  -33.7960   -7.4350 C.2   358  PRO358      0.2244
     95  O        -21.9490  -33.2250   -8.1080 O.2   358  PRO358     -0.2868
     96  CB       -22.5100  -36.2640   -6.9970 C.3   358  PRO358      0.0268
     97  CG       -23.7980  -36.7770   -6.4450 C.3   358  PRO358      0.0207
     98  CD       -23.9130  -36.1940   -5.0820 C.3   358  PRO358      0.0892
     99  N        -31.5300  -29.4200   -2.0730 N.3   379  VAL379     -0.1231
    100  CA       -32.7780  -29.9340   -1.4840 C.3   379  VAL379      0.1692
    101  C        -32.7750  -31.4420   -1.4480 C.2   379  VAL379      0.2592
    102  O        -32.5260  -32.0570   -2.4760 O.2   379  VAL379     -0.2718
    103  CB       -34.0490  -29.3560   -2.1640 C.3   379  VAL379      0.0266
    104  CG1      -35.3210  -29.8150   -1.4460 C.3   379  VAL379      0.0020
    105  CG2      -33.9860  -27.8300   -2.2270 C.3   379  VAL379      0.0020
    106  N        -32.9950  -32.0340   -0.2590 N.am  380  GLU380     -0.1966
    107  CA       -32.9770  -33.4860   -0.0740 C.3   380  GLU380      0.1733
    108  C        -33.9870  -33.9230    0.9960 C.2   380  GLU380      0.2616
    109  O        -33.9640  -33.3950    2.1180 O.2   380  GLU380     -0.2715
    110  CB       -31.5470  -33.9710    0.2760 C.3   380  GLU380      0.0429
    111  CG       -31.3850  -35.4800    0.4480 C.3   380  GLU380      0.1163
    112  CD       -32.0100  -36.3180   -0.6380 C.2   380  GLU380      0.3649
    113  OE1      -31.5470  -36.2660   -1.8010 O.co2 380  GLU380     -0.2457
    114  OE2      -33.0530  -36.9340   -0.3410 O.co2 380  GLU380     -0.2457
    115  N        -34.8680  -34.8980    0.6580 N.am  381  LYS381     -0.1963
    116  CA       -35.8740  -35.3650    1.6210 C.3   381  LYS381      0.1728
    117  C        -35.3610  -36.4820    2.5370 C.2   381  LYS381      0.2616
    118  O        -35.9540  -36.6930    3.6020 O.2   381  LYS381     -0.2715
    119  CB       -37.2220  -35.7520    0.9590 C.3   381  LYS381      0.0311
    120  CG       -37.1660  -36.9240    0.0090 C.3   381  LYS381      0.0038
    121  CD       -37.4420  -38.2640    0.6410 C.3   381  LYS381      0.0206
    122  CE       -36.9640  -39.3240   -0.3160 C.3   381  LYS381      0.1093
    123  NZ       -37.0330  -40.6880    0.2650 N.3   381  LYS381     -0.1314
    124  N        -34.3020  -37.2160    2.1280 N.am  382  ASN382     -0.1972
    125  CA       -33.7290  -38.3250    2.9110 C.3   382  ASN382      0.1688
    126  C        -32.9000  -37.7160    4.0350 C.2   382  ASN382      0.2292
    127  O        -31.8410  -37.1740    3.7380 O.2   382  ASN382     -0.2864
    128  CB       -32.8840  -39.2460    1.9920 C.3   382  ASN382      0.1181
    129  CG       -32.1910  -40.4260    2.6400 C.2   382  ASN382      0.2629
    130  OD1      -32.1480  -40.5980    3.8740 O.2   382  ASN382     -0.2716
    131  ND2      -31.6050  -41.2680    1.8060 N.am  382  ASN382     -0.0877
    132  N        -35.9960  -31.2450    2.9960 N.3   406  SER406     -0.1202
    133  CA       -37.4070  -31.1440    2.6700 C.3   406  SER406      0.2020
    134  C        -37.7680  -31.9250    1.4390 C.2   406  SER406      0.2619
    135  O        -36.9030  -32.2190    0.6180 O.2   406  SER406     -0.2717
    136  CB       -37.7530  -29.6670    2.4450 C.3   406  SER406      0.2103
    137  OG       -39.1170  -29.4590    2.1280 O.3   406  SER406     -0.2182
    138  N        -39.0660  -32.1990    1.2790 N.am  407  ASP407     -0.1959
    139  CA       -39.5890  -32.7700    0.0500 C.3   407  ASP407      0.1840
    140  C        -39.7370  -31.5510   -0.8590 C.2   407  ASP407      0.2622
    141  O        -40.3370  -30.5650   -0.4190 O.2   407  ASP407     -0.2715
    142  CB       -40.9740  -33.4290    0.2510 C.3   407  ASP407      0.1450
    143  CG       -41.4720  -34.2030   -0.9730 C.2   407  ASP407      0.3671
    144  OD1      -41.5320  -33.6080   -2.0830 O.co2 407  ASP407     -0.2456
    145  OD2      -41.7580  -35.4160   -0.8320 O.co2 407  ASP407     -0.2456
    146  N        -39.2130  -31.6060   -2.1020 N.am  408  MET408     -0.1963
    147  CA       -39.2940  -30.4920   -3.0530 C.3   408  MET408      0.1736
    148  C        -40.7280  -30.0550   -3.3530 C.2   408  MET408      0.2616
    149  O        -40.9280  -28.9260   -3.7740 O.2   408  MET408     -0.2715
    150  CB       -38.5170  -30.7920   -4.3410 C.3   408  MET408      0.0427
    151  CG       -39.1440  -31.8590   -5.1980 C.3   408  MET408      0.0599
    152  SD       -38.1420  -32.2500   -6.6390 S.3   408  MET408     -0.1393
    153  CE       -36.8950  -33.3100   -5.8770 C.3   408  MET408      0.0692
    154  N        -41.7140  -30.9380   -3.1260 N.am  409  ARG409     -0.1977
    155  CA       -43.1310  -30.6790   -3.3710 C.3   409  ARG409      0.1597
    156  C        -43.7830  -29.8870   -2.2400 C.2   409  ARG409      0.2287
    157  O        -44.9040  -29.4110   -2.4160 O.2   409  ARG409     -0.2864
    158  CB       -43.8830  -31.9980   -3.5720 C.3   409  ARG409      0.0334
    159  CG       -43.4090  -32.7910   -4.7880 C.3   409  ARG409      0.0492
    160  CD       -44.0350  -34.1620   -4.8400 C.3   409  ARG409      0.2205
    161  NE       -43.6100  -34.9650   -3.7040 N.pl3 409  ARG409     -0.0865
    162  CZ       -44.1990  -36.0970   -3.3390 C.cat 409  ARG409      0.5346
    163  NH1      -45.2350  -36.5610   -4.0250 N.pl3 409  ARG409      0.1354
    164  NH2      -43.7680  -36.7650   -2.2670 N.pl3 409  ARG409      0.1354
    165  N        -31.6510  -35.4250  -10.7740 N.3   423  GLU423     -0.1231
    166  CA       -31.2730  -36.7330  -11.2680 C.3   423  GLU423      0.1699
    167  C        -32.2610  -37.7110  -10.5870 C.2   423  GLU423      0.2592
    168  O        -31.8790  -38.5010   -9.7330 O.2   423  GLU423     -0.2718
    169  CB       -29.7710  -36.9410  -10.9400 C.3   423  GLU423      0.0402
    170  CG       -29.1730  -38.3290  -10.8130 C.3   423  GLU423      0.1161
    171  CD       -28.0920  -38.5410   -9.7520 C.2   423  GLU423      0.3649
    172  OE1      -27.6240  -37.5720   -9.1040 O.co2 423  GLU423     -0.2457
    173  OE2      -27.7580  -39.7280   -9.5270 O.co2 423  GLU423     -0.2457
    174  N        -33.5480  -37.6360  -10.9820 N.am  424  LEU424     -0.1980
    175  CA       -34.6610  -38.4210  -10.4280 C.3   424  LEU424      0.1596
    176  C        -35.1610  -39.5220  -11.3780 C.2   424  LEU424      0.2287
    177  O        -36.3330  -39.9610  -11.3180 O.2   424  LEU424     -0.2864
    178  CB       -35.8090  -37.4500  -10.0930 C.3   424  LEU424      0.0297
    179  CG       -35.4760  -36.2580   -9.1810 C.3   424  LEU424      0.0022
    180  CD1      -36.6190  -35.2490   -9.1690 C.3   424  LEU424      0.0001
    181  CD2      -35.0810  -36.7030   -7.7780 C.3   424  LEU424      0.0001
    182  N        -39.2400  -43.4600  -11.2880 N.3   432  GLU432     -0.1245
    183  CA       -38.8960  -43.0230   -9.9310 C.3   432  GLU432      0.1567
    184  C        -39.7680  -41.8080   -9.5860 C.2   432  GLU432      0.2260
    185  O        -39.6360  -41.2650   -8.4960 O.2   432  GLU432     -0.2867
    186  CB       -37.3910  -42.7280   -9.7500 C.3   432  GLU432      0.0388
    187  CG       -36.5050  -43.9580   -9.6830 C.3   432  GLU432      0.1160
    188  CD       -35.0070  -43.7450   -9.5620 C.2   432  GLU432      0.3649
    189  OE1      -34.5540  -42.5850   -9.4080 O.co2 432  GLU432     -0.2457
    190  OE2      -34.2800  -44.7610   -9.6350 O.co2 432  GLU432     -0.2457
    191  N        -42.4560  -35.0870   -9.0390 N.3   437  CYS437     -0.1235
    192  CA       -41.5510  -34.3340   -8.1840 C.3   437  CYS437      0.1677
    193  C        -41.2570  -32.9710   -8.7670 C.2   437  CYS437      0.2270
    194  O        -41.4090  -31.9780   -8.0630 O.2   437  CYS437     -0.2867
    195  CB       -40.2730  -35.1190   -7.9120 C.3   437  CYS437      0.0956
    196  SG       -40.5060  -36.5570   -6.8350 S.3   437  CYS437     -0.0801
@<TRIPOS>BOND
     1    58    59    2
     2    58    57    1
     3    56    57    1
     4    57    60    1
     5    60    61    1
     6   176   177    2
     7   176   175    1
     8   182   183    1
     9    61    63   ar
    10    61    62   ar
    11   166   169    1
    12   166   165    1
    13   166   167    1
    14    63    65   ar
    15   174   167   am
    16   174   175    1
    17   169   170    1
    18   170   171    1
    19    62    64   ar
    20   167   168    2
    21   175   178    1
    22    65    66   ar
    23   178   179    1
    24    64    66   ar
    25   183   186    1
    26   183   184    1
    27   171   173   ar
    28   171   172   ar
    29   186   187    1
    30   187   188    1
    31    66    67    1
    32   190   188   ar
    33    39    38    2
    34   184   185    2
    35   188   189   ar
    36    44    42   ar
    37    44    46   ar
    38    42    41   ar
    39   179   180    1
    40   179   181    1
    41   191   192    1
    42   193   192    1
    43   193   194    2
    44    46    45   ar
    45    50    49    2
    46    38    37    1
    47    38    47   am
    48   192   195    1
    49    49    48    1
    50    37    40    1
    51    37    36    1
    52    95    94    2
    53    41    40    1
    54    41    43   ar
    55   195   196    1
    56    48    47    1
    57    48    51    1
    58    94    93    1
    59    45    43   ar
    60    96    97    1
    61    96    93    1
    62   152   153    1
    63   152   151    1
    64    97    98    1
    65    93    92    1
    66     7     6    1
    67     7     1    1
    68    51    52    1
    69     6     5    1
    70    71    70    2
    71    52    53    1
    72   151   150    1
    73    92    98    1
    74    68    69    1
    75    15    13    1
    76     1     2    1
    77   160   159    1
    78   160   161    1
    79   159   158    1
    80     5     2    1
    81    70    69    1
    82    70    72   am
    83    27    26    2
    84   150   147    1
    85    12    13    1
    86    12     9    1
    87   163   162    1
    88     2     3    1
    89    53    55   ar
    90    53    54   ar
    91     8     3   am
    92     8     9    1
    93    72    73    1
    94    73    74    1
    95    73    76    1
    96    13    14    1
    97   149   148    2
    98    22    21    1
    99   161   162    2
   100    26    25    1
   101    75    74    2
   102   158   155    1
   103   155   154    1
   104   155   156    1
   105   148   154   am
   106   148   147    1
   107    74    77   am
   108   162   164    1
   109     3     4    2
   110     9    10    1
   111    25    24    1
   112    25    28    1
   113   147   146    1
   114    23    21    1
   115    77    78    1
   116    30    32   ar
   117    30    29   ar
   118    21    20    1
   119   102   101    2
   120   157   156    2
   121    32    34   ar
   122    78    79    1
   123   105   103    1
   124   103   100    1
   125   103   104    1
   126   146   140   am
   127   144   143   ar
   128    28    29    1
   129    99   100    1
   130    10    11    2
   131   113   112   ar
   132    29    31   ar
   133    81    79   am
   134    81    82    1
   135   100   101    1
   136   101   106   am
   137    20    17    1
   138    83    84    2
   139    83    82    1
   140    79    80    2
   141    34    35    1
   142    34    33   ar
   143   143   145   ar
   144   143   142    1
   145   140   141    2
   146   140   139    1
   147    82    85    1
   148    90    89    1
   149   112   114   ar
   150   112   111    1
   151    85    86    1
   152    31    33   ar
   153   122   123    1
   154   122   121    1
   155   106   107    1
   156    88    89    2
   157    88    87    1
   158    17    16    1
   159    17    18    1
   160   107   110    1
   161   107   108    1
   162   120   121    1
   163   120   119    1
   164   139   142    1
   165   139   138    1
   166    89    91    1
   167    86    87    1
   168   110   111    1
   169   135   134    2
   170   115   108   am
   171   115   116    1
   172    18    19    2
   173   119   116    1
   174   108   109    2
   175   138   134   am
   176   134   133    1
   177   116   117    1
   178   131   129   am
   179   128   129    1
   180   128   125    1
   181   124   117   am
   182   124   125    1
   183   137   136    1
   184   136   133    1
   185   117   118    2
   186   129   130    2
   187   133   132    1
   188   125   126    1
   189   127   126    2
