@<TRIPOS>MOLECULE
tmp/6ckeA01.pdb
 105 101 0 0 0
SMALL
GASTEIGER

@<TRIPOS>ATOM
      1  N        -15.0360    4.2220  -19.8990 N.3    17  ALA17      -0.1245
      2  CA       -14.0250    3.3450  -19.3190 C.3    17  ALA17       0.1562
      3  C        -13.2770    2.5880  -20.4040 C.2    17  ALA17       0.2260
      4  O        -12.0420    2.4810  -20.3640 O.2    17  ALA17      -0.2867
      5  CB       -14.6750    2.3430  -18.3680 C.3    17  ALA17       0.0290
      6  N        -11.0150    5.0520  -22.4250 N.3    20  ILE20      -0.1231
      7  CA        -9.8520    5.5250  -21.6890 C.3    20  ILE20       0.1692
      8  C         -8.8500    4.3980  -21.4800 C.2    20  ILE20       0.2592
      9  O         -7.6400    4.6060  -21.6040 O.2    20  ILE20      -0.2718
     10  CB       -10.2710    6.2080  -20.3710 C.3    20  ILE20       0.0266
     11  CG1      -10.9300    7.5680  -20.6500 C.3    20  ILE20       0.0019
     12  CG2       -9.0780    6.3540  -19.4210 C.3    20  ILE20       0.0020
     13  CD1      -11.8470    8.0830  -19.5310 C.3    20  ILE20       0.0001
     14  N         -9.3310    3.1970  -21.1500 N.am   21  PHE21      -0.1976
     15  CA        -8.4220    2.0640  -20.9880 C.3    21  PHE21       0.1639
     16  C         -7.7030    1.7670  -22.2980 C.2    21  PHE21       0.2290
     17  O         -6.4840    1.5650  -22.3100 O.2    21  PHE21      -0.2864
     18  CB        -9.1990    0.8400  -20.5010 C.3    21  PHE21       0.0560
     19  CG        -8.3390   -0.3450  -20.1240 C.ar   21  PHE21      -0.0200
     20  CD1       -7.1230   -0.1950  -19.4630 C.ar   21  PHE21      -0.0042
     21  CD2       -8.7930   -1.6290  -20.3930 C.ar   21  PHE21      -0.0042
     22  CE1       -6.3640   -1.3230  -19.1030 C.ar   21  PHE21      -0.0003
     23  CE2       -8.0480   -2.7460  -20.0350 C.ar   21  PHE21      -0.0003
     24  CZ        -6.8420   -2.5900  -19.3790 C.ar   21  PHE21      -0.0000
     25  N         -4.9990    4.2950  -22.8480 N.3    24  PHE24      -0.1241
     26  CA        -3.8440    3.9300  -22.0320 C.3    24  PHE24       0.1605
     27  C         -3.0310    2.7970  -22.6630 C.2    24  PHE24       0.2264
     28  O         -1.8000    2.8910  -22.7770 O.2    24  PHE24      -0.2867
     29  CB        -4.3520    3.5440  -20.6350 C.3    24  PHE24       0.0534
     30  CG        -3.3310    2.8810  -19.7520 C.ar   24  PHE24      -0.0203
     31  CD1       -2.2450    3.5930  -19.2500 C.ar   24  PHE24      -0.0042
     32  CD2       -3.4860    1.5640  -19.3850 C.ar   24  PHE24      -0.0042
     33  CE1       -1.3210    2.9810  -18.4150 C.ar   24  PHE24      -0.0003
     34  CE2       -2.5790    0.9500  -18.5530 C.ar   24  PHE24      -0.0003
     35  CZ        -1.4900    1.6630  -18.0560 C.ar   24  PHE24      -0.0000
     36  N         -1.7950   -7.1820  -18.3480 N.3    35  PHE35      -0.1241
     37  CA        -3.1100   -7.5470  -18.8620 C.3    35  PHE35       0.1605
     38  C         -2.9520   -8.6130  -19.9450 C.2    35  PHE35       0.2264
     39  O         -3.3570   -8.4490  -21.0930 O.2    35  PHE35      -0.2867
     40  CB        -3.8610   -6.3220  -19.3870 C.3    35  PHE35       0.0534
     41  CG        -4.1050   -5.2740  -18.3390 C.ar   35  PHE35      -0.0203
     42  CD1       -3.2650   -4.1820  -18.2310 C.ar   35  PHE35      -0.0042
     43  CD2       -5.1530   -5.4120  -17.4400 C.ar   35  PHE35      -0.0042
     44  CE1       -3.4820   -3.2230  -17.2550 C.ar   35  PHE35      -0.0003
     45  CE2       -5.3690   -4.4580  -16.4580 C.ar   35  PHE35      -0.0003
     46  CZ        -4.5380   -3.3730  -16.3700 C.ar   35  PHE35      -0.0000
     47  N        -14.9250   -5.6930  -16.8840 N.3    55  HIS55      -0.1226
     48  CA       -13.7190   -5.2740  -16.1780 C.3    55  HIS55       0.1752
     49  C        -13.5730   -3.7610  -16.1770 C.2    55  HIS55       0.2596
     50  O        -13.3610   -3.1490  -15.1220 O.2    55  HIS55      -0.2718
     51  CB       -12.4970   -5.9000  -16.8400 C.3    55  HIS55       0.0759
     52  CG       -11.2010   -5.3140  -16.3820 C.ar   55  HIS55       0.0818
     53  ND1      -10.6780   -5.5500  -15.1280 N.ar   55  HIS55      -0.2268
     54  CD2      -10.3390   -4.4750  -17.0020 C.ar   55  HIS55       0.1154
     55  CE1       -9.5400   -4.8910  -15.0020 C.ar   55  HIS55       0.1986
     56  NE2       -9.3120   -4.2260  -16.1210 N.ar   55  HIS55      -0.2212
     57  N        -13.6760   -3.1350  -17.3500 N.am   56  THR56      -0.1953
     58  CA       -13.4560   -1.6930  -17.4150 C.3    56  THR56       0.1897
     59  C        -14.5050   -0.9390  -16.6120 C.2    56  THR56       0.2313
     60  O        -14.1890    0.0530  -15.9420 O.2    56  THR56      -0.2863
     61  CB       -13.4050   -1.1830  -18.8640 C.3    56  THR56       0.1794
     62  OG1      -14.6270   -1.4830  -19.5530 O.3    56  THR56      -0.2208
     63  CG2      -12.2070   -1.7600  -19.6130 C.3    56  THR56       0.0378
     64  N        -13.5830   -1.1990  -12.8580 N.3    59  VAL59      -0.1231
     65  CA       -12.4390   -0.3420  -12.5510 C.3    59  VAL59       0.1692
     66  C        -12.8750    1.1110  -12.4840 C.2    59  VAL59       0.2592
     67  O        -12.5730    1.8320  -11.5260 O.2    59  VAL59      -0.2718
     68  CB       -11.3370   -0.5280  -13.6080 C.3    59  VAL59       0.0266
     69  CG1      -10.2490    0.5170  -13.4120 C.3    59  VAL59       0.0020
     70  CG2      -10.7580   -1.9230  -13.5300 C.3    59  VAL59       0.0020
     71  N        -13.5760    1.5720  -13.5160 N.am   60  PHE60      -0.1976
     72  CA       -13.9010    2.9900  -13.6150 C.3    60  PHE60       0.1639
     73  C        -14.9080    3.4000  -12.5550 C.2    60  PHE60       0.2290
     74  O        -14.8740    4.5380  -12.0760 O.2    60  PHE60      -0.2864
     75  CB       -14.4110    3.2860  -15.0290 C.3    60  PHE60       0.0560
     76  CG       -14.1170    4.6810  -15.5300 C.ar   60  PHE60      -0.0200
     77  CD1      -15.1060    5.3900  -16.1840 C.ar   60  PHE60      -0.0042
     78  CD2      -12.8750    5.2760  -15.3630 C.ar   60  PHE60      -0.0042
     79  CE1      -14.8670    6.6510  -16.6650 C.ar   60  PHE60      -0.0003
     80  CE2      -12.6290    6.5560  -15.8500 C.ar   60  PHE60      -0.0003
     81  CZ       -13.6300    7.2400  -16.4990 C.ar   60  PHE60      -0.0000
     82  N        -12.8220    4.1060   -9.6710 N.3    63  MET63      -0.1245
     83  CA       -12.1070    5.3630   -9.8630 C.3    63  MET63       0.1570
     84  C        -13.0210    6.5560   -9.6210 C.2    63  MET63       0.2261
     85  O        -12.6080    7.5520   -9.0120 O.2    63  MET63      -0.2867
     86  CB       -11.5030    5.4320  -11.2650 C.3    63  MET63       0.0387
     87  CG       -10.5670    6.6220  -11.4080 C.3    63  MET63       0.0595
     88  SD       -10.1420    7.0870  -13.1000 S.3    63  MET63      -0.1393
     89  CE        -9.1640    5.6800  -13.5710 C.3    63  MET63       0.0692
     90  N          2.8670    3.0410  -12.9210 N.3    96  ASN96      -0.1240
     91  CA         1.7250    2.4970  -13.6540 C.3    96  ASN96       0.1653
     92  C          0.5420    3.4570  -13.5900 C.2    96  ASN96       0.2266
     93  O         -0.1680    3.6670  -14.5840 O.2    96  ASN96      -0.2867
     94  CB         1.3220    1.1560  -13.0420 C.3    96  ASN96       0.1155
     95  CG         2.4070    0.0970  -13.1500 C.2    96  ASN96       0.2627
     96  OD1        3.0080   -0.2990  -12.1460 O.2    96  ASN96      -0.2716
     97  ND2        2.6340   -0.3970  -14.3600 N.am   96  ASN96      -0.0877
     98  N         -1.4000    5.8740  -16.5150 N.3   100  LEU100     -0.1245
     99  CA        -2.8480    5.8620  -16.6940 C.3   100  LEU100      0.1561
    100  C         -3.4080    7.2760  -16.7390 C.2   100  LEU100      0.2260
    101  O         -4.2030    7.6130  -17.6190 O.2   100  LEU100     -0.2867
    102  CB        -3.5140    5.0510  -15.5860 C.3   100  LEU100      0.0270
    103  CG        -5.0410    5.1360  -15.5650 C.3   100  LEU100      0.0019
    104  CD1       -5.6270    4.6090  -16.8670 C.3   100  LEU100      0.0001
    105  CD2       -5.6000    4.3720  -14.3700 C.3   100  LEU100      0.0001
@<TRIPOS>BOND
     1    25    26    1
     2    28    27    2
     3    27    26    1
     4     6     7    1
     5    17    16    2
     6    16    15    1
     7    26    29    1
     8     7     8    1
     9     7    10    1
    10     9     8    2
    11     8    14   am
    12    14    15    1
    13    39    38    2
    14    15    18    1
    15    11    10    1
    16    11    13    1
    17    29    30    1
    18    18    19    1
    19     3     4    2
    20     3     2    1
    21    21    19   ar
    22    21    23   ar
    23    10    12    1
    24    19    20   ar
    25    23    24   ar
    26    38    37    1
    27     1     2    1
    28    30    32   ar
    29    30    31   ar
    30    63    61    1
    31    62    61    1
    32    20    22   ar
    33    40    37    1
    34    40    41    1
    35    32    34   ar
    36    24    22   ar
    37     2     5    1
    38    31    33   ar
    39    61    58    1
    40    37    36    1
    41    34    35   ar
    42    33    35   ar
    43    41    42   ar
    44    41    43   ar
    45    42    44   ar
    46   101   100    2
    47    43    45   ar
    48    58    57    1
    49    58    59    1
    50    57    49   am
    51    44    46   ar
    52    54    52   ar
    53    54    56   ar
    54    47    48    1
    55   104   103    1
    56    51    52    1
    57    51    48    1
    58   100    99    1
    59    99    98    1
    60    99   102    1
    61    79    81   ar
    62    79    77   ar
    63    59    60    2
    64    81    80   ar
    65    45    46   ar
    66    52    53   ar
    67    77    76   ar
    68    48    49    1
    69    49    50    2
    70    56    55   ar
    71    80    78   ar
    72   102   103    1
    73   103   105    1
    74    76    78   ar
    75    76    75    1
    76    53    55   ar
    77    75    72    1
    78    93    92    2
    79    97    95   am
    80    91    92    1
    81    91    94    1
    82    91    90    1
    83    72    71    1
    84    72    73    1
    85    68    70    1
    86    68    69    1
    87    68    65    1
    88    89    88    1
    89    71    66   am
    90    95    94    1
    91    95    96    2
    92    88    87    1
    93    64    65    1
    94    73    74    2
    95    65    66    1
    96    66    67    2
    97    87    86    1
    98    86    83    1
    99    83    82    1
   100    83    84    1
   101    84    85    2
