@<TRIPOS>MOLECULE
tmp/6ckkB00.pdb
 148 138 0 0 0
SMALL
GASTEIGER

@<TRIPOS>ATOM
      1  N        -11.4040    4.6030   61.3340 N.3    10  LEU10      -0.1245
      2  CA       -11.6690    6.0280   61.0860 C.3    10  LEU10       0.1561
      3  C        -13.0570    6.1040   60.4680 C.2    10  LEU10       0.2260
      4  O        -13.2970    5.4690   59.4600 O.2    10  LEU10      -0.2867
      5  CB       -10.6890    6.6800   60.1150 C.3    10  LEU10       0.0270
      6  CG        -9.2070    6.8040   60.4510 C.3    10  LEU10       0.0019
      7  CD1       -8.4570    7.5220   59.2890 C.3    10  LEU10       0.0001
      8  CD2       -8.9640    7.3950   61.8490 C.3    10  LEU10       0.0001
      9  N        -15.5210    9.1630   59.7760 N.3    12  ARG12      -0.1245
     10  CA       -16.0480   10.5610   59.8550 C.3    12  ARG12       0.1563
     11  C        -17.5210   10.5720   59.3930 C.2    12  ARG12       0.2260
     12  O        -18.0000    9.6050   58.7690 O.2    12  ARG12      -0.2867
     13  CB       -15.2140   11.4900   59.0040 C.3    12  ARG12       0.0307
     14  CG       -15.2200   10.9580   57.5870 C.3    12  ARG12       0.0489
     15  CD       -15.1290   11.9770   56.5360 C.3    12  ARG12       0.2205
     16  NE       -13.8260   11.9930   55.9760 N.pl3  12  ARG12      -0.0865
     17  CZ       -13.5480   12.5180   54.8030 C.cat  12  ARG12       0.5346
     18  NH1      -12.2800   12.5180   54.4120 N.pl3  12  ARG12       0.1354
     19  NH2      -14.5270   13.0540   54.0270 N.pl3  12  ARG12       0.1354
     20  N        -19.1130   12.8640   57.2580 N.3    14  ASN14      -0.1225
     21  CA       -19.3210   13.2590   55.8860 C.3    14  ASN14       0.1785
     22  C        -18.7910   12.2330   54.8640 C.2    14  ASN14       0.2598
     23  O        -17.6620   11.7210   54.9880 O.2    14  ASN14      -0.2718
     24  CB       -18.7500   14.6380   55.5810 C.3    14  ASN14       0.1169
     25  CG       -19.5130   15.3070   54.4650 C.2    14  ASN14       0.2627
     26  OD1      -18.9450   15.7350   53.4620 O.2    14  ASN14      -0.2716
     27  ND2      -20.8350   15.3140   54.5990 N.am   14  ASN14      -0.0877
     28  N        -19.6380   11.9400   53.8790 N.am   15  SER15      -0.1938
     29  CA       -19.2510   11.2390   52.6660 C.3    15  SER15       0.2055
     30  C        -19.9710   11.8890   51.4920 C.2    15  SER15       0.2643
     31  O        -21.1950   11.8430   51.4010 O.2    15  SER15      -0.2714
     32  CB       -19.5880    9.7400   52.7390 C.3    15  SER15       0.2130
     33  OG       -20.7220    9.5080   53.5740 O.3    15  SER15      -0.2179
     34  N        -19.2130   12.5190   50.6100 N.am   16  LYS16      -0.1963
     35  CA       -19.7860   13.0330   49.3720 C.3    16  LYS16       0.1728
     36  C        -20.3800   11.9130   48.5200 C.2    16  LYS16       0.2616
     37  O        -21.5010   12.0620   48.0170 O.2    16  LYS16      -0.2715
     38  CB       -18.7570   13.8570   48.6030 C.3    16  LYS16       0.0311
     39  CG       -18.3610   15.1190   49.3580 C.3    16  LYS16       0.0038
     40  CD       -19.4730   16.1590   49.3200 C.3    16  LYS16       0.0206
     41  CE       -19.0930   17.3830   50.1270 C.3    16  LYS16       0.1093
     42  NZ       -19.1830   17.1360   51.5800 N.3    16  LYS16      -0.1314
     43  N        -19.6600   10.7930   48.4080 N.am   17  GLY17      -0.1955
     44  CA       -20.1200    9.6520   47.6440 C.3    17  GLY17       0.1869
     45  C        -21.5460    9.2770   48.0050 C.2    17  GLY17       0.2309
     46  O        -22.5000    9.7180   47.3460 O.2    17  GLY17      -0.2863
     47  N        -22.5700    7.4090   55.0420 N.3    21  LYS21      -0.1231
     48  CA       -22.4910    5.9770   54.7730 C.3    21  LYS21       0.1693
     49  C        -21.9880    5.1310   55.9100 C.2    21  LYS21       0.2592
     50  O        -22.3550    3.9730   55.9570 O.2    21  LYS21      -0.2718
     51  CB       -21.6890    5.6470   53.5160 C.3    21  LYS21       0.0285
     52  CG       -20.1940    5.9100   53.6170 C.3    21  LYS21       0.0035
     53  CD       -19.5860    5.9970   52.2170 C.3    21  LYS21       0.0206
     54  CE       -18.1180    6.3090   52.2770 C.3    21  LYS21       0.1093
     55  NZ       -17.3570    6.0940   51.0220 N.3    21  LYS21      -0.1314
     56  N        -21.1870    5.6910   56.8240 N.am   22  ASN22      -0.1974
     57  CA       -20.6640    4.8860   57.9350 C.3    22  ASN22       0.1688
     58  C        -21.7780    4.3510   58.8470 C.2    22  ASN22       0.2292
     59  O        -21.5590    3.3990   59.5490 O.2    22  ASN22      -0.2864
     60  CB       -19.5980    5.6700   58.7120 C.3    22  ASN22       0.1181
     61  CG       -18.3590    5.9200   57.9000 C.2    22  ASN22       0.2629
     62  OD1      -17.9600    5.0970   57.0200 O.2    22  ASN22      -0.2716
     63  ND2      -17.7330    7.0560   58.1440 N.am   22  ASN22      -0.0877
     64  N        -12.0310   13.5050   66.6680 N.3    71  ARG71      -0.1245
     65  CA       -11.1930   14.3230   65.7820 C.3    71  ARG71       0.1563
     66  C        -11.7200   15.7340   65.6120 C.2    71  ARG71       0.2260
     67  O        -12.8870   15.8830   65.3860 O.2    71  ARG71      -0.2867
     68  CB       -11.2280   13.6850   64.3990 C.3    71  ARG71       0.0307
     69  CG       -10.0750   12.7200   64.1770 C.3    71  ARG71       0.0489
     70  CD       -10.1420   12.2300   62.7780 C.3    71  ARG71       0.2205
     71  NE       -11.0990   11.1540   62.5840 N.pl3  71  ARG71      -0.0865
     72  CZ       -11.4880   10.7240   61.3890 C.cat  71  ARG71       0.5346
     73  NH1      -11.0920   11.3300   60.2630 N.pl3  71  ARG71       0.1354
     74  NH2      -12.2950    9.7010   61.3120 N.pl3  71  ARG71       0.1354
     75  N         -9.2780   17.5490   60.9110 N.3    75  LEU75      -0.1245
     76  CA        -8.8100   16.1810   60.6990 C.3    75  LEU75       0.1561
     77  C         -9.8850   15.2250   60.2250 C.2    75  LEU75       0.2260
     78  O         -9.5970   14.0660   60.0470 O.2    75  LEU75      -0.2867
     79  CB        -8.1580   15.6340   61.9970 C.3    75  LEU75       0.0270
     80  CG        -6.7260   16.0620   62.2420 C.3    75  LEU75       0.0019
     81  CD1       -6.2890   15.6300   63.6330 C.3    75  LEU75       0.0001
     82  CD2       -5.7970   15.4660   61.1920 C.3    75  LEU75       0.0001
     83  N        -11.9490   16.5260   57.6170 N.3    77  SER77      -0.1202
     84  CA       -12.3490   17.1640   56.3340 C.3    77  SER77       0.2020
     85  C        -12.1560   16.2230   55.1460 C.2    77  SER77       0.2618
     86  O        -11.5510   15.1410   55.2970 O.2    77  SER77      -0.2717
     87  CB       -11.5110   18.4150   56.0710 C.3    77  SER77       0.2103
     88  OG       -10.1720   18.0280   55.7830 O.3    77  SER77      -0.2182
     89  N        -12.6140   16.6530   53.9610 N.am   78  ASP78      -0.1973
     90  CA       -12.5980   15.7900   52.7670 C.3    78  ASP78       0.1709
     91  C        -11.1660   15.5350   52.3100 C.2    78  ASP78       0.2293
     92  O        -10.8990   14.5290   51.6490 O.2    78  ASP78      -0.2864
     93  CB       -13.4160   16.3870   51.5870 C.3    78  ASP78       0.1436
     94  CG       -14.9330   16.1760   51.7300 C.2    78  ASP78       0.3671
     95  OD1      -15.4080   15.4770   52.6750 O.co2  78  ASP78      -0.2456
     96  OD2      -15.6690   16.7450   50.8820 O.co2  78  ASP78      -0.2456
     97  N         -8.4320   15.4590   54.5500 N.3    80  ALA80      -0.1231
     98  CA        -7.6080   15.0110   55.6190 C.3    80  ALA80       0.1694
     99  C         -7.1500   13.5910   55.3280 C.2    80  ALA80       0.2593
    100  O         -7.9570   12.7300   55.0650 O.2    80  ALA80      -0.2718
    101  CB        -8.3790   15.0290   56.9320 C.3    80  ALA80       0.0304
    102  N         -5.8600   13.3550   55.4230 N.am   81  SER81      -0.1938
    103  CA        -5.3210   12.0640   55.1420 C.3    81  SER81       0.2055
    104  C         -5.7080   11.0110   56.2380 C.2    81  SER81       0.2643
    105  O         -5.8570   11.3410   57.4260 O.2    81  SER81      -0.2714
    106  CB        -3.7810   12.1690   55.0910 C.3    81  SER81       0.2130
    107  OG        -3.2400   12.3540   56.3660 O.3    81  SER81      -0.2179
    108  N         -5.8260    9.7510   55.8150 N.am   82  SER82      -0.1949
    109  CA        -6.0620    8.6420   56.7590 C.3    82  SER82       0.1924
    110  C         -4.9060    8.5160   57.7610 C.2    82  SER82       0.2314
    111  O         -5.1640    8.3680   58.9940 O.2    82  SER82      -0.2863
    112  CB        -6.3930    7.3440   56.0290 C.3    82  SER82       0.2116
    113  OG        -7.7720    7.3010   55.7190 O.3    82  SER82      -0.2180
    114  N         -5.2470   10.8320   60.6710 N.3    85  GLY85      -0.1225
    115  CA        -6.2730   10.4300   61.5970 C.3    85  GLY85       0.1811
    116  C         -5.7750    9.2910   62.5090 C.2    85  GLY85       0.2280
    117  O         -6.0530    9.2580   63.7180 O.2    85  GLY85      -0.2866
    118  N        -11.1670    0.0070   57.7350 N.3   104  GLN104     -0.1231
    119  CA       -12.1380    1.0000   57.1470 C.3   104  GLN104      0.1683
    120  C        -13.5450    0.4440   57.1480 C.2   104  GLN104      0.2434
    121  O        -13.7510   -0.6780   56.7140 O.2   104  GLN104     -0.2733
    122  CB       -11.7790    1.3420   55.7070 C.3   104  GLN104      0.0380
    123  CG       -10.4780    2.0930   55.6580 C.3   104  GLN104      0.0905
    124  CD       -10.1380    2.7150   54.3240 C.2   104  GLN104      0.2608
    125  OE1       -9.3060    3.6250   54.2800 O.2   104  GLN104     -0.2717
    126  NE2      -10.6390    2.1600   53.2480 N.am  104  GLN104     -0.0878
    127  N        -14.5150    1.2160   57.6250 N.am  105  PRO105     -0.2718
    128  CA       -15.9260    0.7740   57.5700 C.3   105  PRO105      0.1535
    129  C        -16.4830    0.4670   56.1790 C.2   105  PRO105      0.2599
    130  O        -17.4540   -0.2970   56.0500 O.2   105  PRO105     -0.2715
    131  CB       -16.6730    1.9570   58.1550 C.3   105  PRO105      0.0310
    132  CG       -15.6810    2.6480   59.0250 C.3   105  PRO105      0.0237
    133  CD       -14.3750    2.4980   58.3340 C.3   105  PRO105      0.0939
    134  N        -15.8410    1.0230   55.1740 N.am  106  THR106     -0.1951
    135  CA       -16.1640    0.7670   53.7720 C.3   106  THR106      0.1897
    136  C        -15.8370   -0.6160   53.2350 C.2   106  THR106      0.2313
    137  O        -16.1380   -0.8620   52.0930 O.2   106  THR106     -0.2863
    138  CB       -15.5700    1.8770   52.9010 C.3   106  THR106      0.1794
    139  OG1      -14.1980    2.0970   53.2750 O.3   106  THR106     -0.2208
    140  CG2      -16.3610    3.1320   53.0670 C.3   106  THR106      0.0378
    141  N        -18.8790    2.7830   48.1470 N.3   211  ASP211     -0.1239
    142  CA       -18.9000    4.1880   47.7450 C.3   211  ASP211      0.1674
    143  C        -20.2960    4.6740   47.2990 C.2   211  ASP211      0.2266
    144  O        -20.5960    5.8560   47.4330 O.2   211  ASP211     -0.2867
    145  CB       -17.8570    4.4130   46.6380 C.3   211  ASP211      0.1410
    146  CG       -16.4240    4.2090   47.1520 C.2   211  ASP211      0.3668
    147  OD1      -16.1350    4.7880   48.2010 O.co2 211  ASP211     -0.2456
    148  OD2      -15.5940    3.4720   46.5560 O.co2 211  ASP211     -0.2456
@<TRIPOS>BOND
     1   148   146   ar
     2   145   146    1
     3   145   142    1
     4   146   147   ar
     5   143   144    2
     6   143   142    1
     7    46    45    2
     8    44    45    1
     9    44    43    1
    10   142   141    1
    11    37    36    2
    12    43    36   am
    13    36    35    1
    14    38    39    1
    15    38    35    1
    16    40    39    1
    17    40    41    1
    18    35    34    1
    19    41    42    1
    20    34    30   am
    21    96    94   ar
    22    55    54    1
    23    31    30    2
    24    30    29    1
    25    93    94    1
    26    93    90    1
    27    92    91    2
    28    94    95   ar
    29   137   136    2
    30    53    54    1
    31    53    52    1
    32    91    90    1
    33    29    32    1
    34    29    28    1
    35    32    33    1
    36    90    89    1
    37   138   140    1
    38   138   139    1
    39   138   135    1
    40   136   135    1
    41   126   124   am
    42    26    25    2
    43    51    52    1
    44    51    48    1
    45   135   134    1
    46    28    22   am
    47    89    85   am
    48    19    17    1
    49   125   124    2
    50   124   123    1
    51    18    17    1
    52    25    27   am
    53    25    24    1
    54    97    98    1
    55    48    47    1
    56    48    49    1
    57    17    16    2
    58    22    23    2
    59    22    21    1
    60   100    99    2
    61   106   103    1
    62   106   107    1
    63   103   102    1
    64   103   104    1
    65    85    86    2
    66    85    84    1
    67   134   129   am
    68    99   102   am
    69    99    98    1
    70    24    21    1
    71    98   101    1
    72   123   122    1
    73   122   119    1
    74   113   112    1
    75    88    87    1
    76   108   104   am
    77   108   109    1
    78    21    20    1
    79    49    50    2
    80    49    56   am
    81    16    15    1
    82   112   109    1
    83   130   129    2
    84    87    84    1
    85   129   128    1
    86   104   105    2
    87    84    83    1
    88    15    14    1
    89   121   120    2
    90   109   110    1
    91    56    57    1
    92    62    61    2
    93   119   120    1
    94   119   118    1
    95   120   127   am
    96   128   127    1
    97   128   131    1
    98    14    13    1
    99   127   133    1
   100   110   111    2
   101    61    63   am
   102    61    60    1
   103    57    60    1
   104    57    58    1
   105   131   132    1
   106   133   132    1
   107    12    11    2
   108    58    59    2
   109    13    10    1
   110     7     6    1
   111    11    10    1
   112     4     3    2
   113     9    10    1
   114    78    77    2
   115     5     6    1
   116     5     2    1
   117    77    76    1
   118    73    72    1
   119     6     8    1
   120     3     2    1
   121   114   115    1
   122    76    75    1
   123    76    79    1
   124     2     1    1
   125    82    80    1
   126    74    72    1
   127    72    71    2
   128   115   116    1
   129    79    80    1
   130    80    81    1
   131   116   117    2
   132    71    70    1
   133    70    69    1
   134    69    68    1
   135    68    65    1
   136    67    66    2
   137    66    65    1
   138    65    64    1
