@<TRIPOS>MOLECULE
tmp/6cklA00.pdb
 124 115 0 0 0
SMALL
GASTEIGER

@<TRIPOS>ATOM
      1  N        126.9930   36.1750   -3.4970 N.3    10  LEU10      -0.1245
      2  CA       126.4400   36.6250   -4.7730 C.3    10  LEU10       0.1561
      3  C        126.0790   35.4500   -5.6980 C.2    10  LEU10       0.2260
      4  O        126.9370   34.6180   -6.0050 O.2    10  LEU10      -0.2867
      5  CB       127.4180   37.5080   -5.5010 C.3    10  LEU10       0.0270
      6  CG       127.9010   38.7730   -4.8410 C.3    10  LEU10       0.0019
      7  CD1      128.7890   39.5010   -5.8210 C.3    10  LEU10       0.0001
      8  CD2      126.7750   39.6820   -4.4340 C.3    10  LEU10       0.0001
      9  N        123.7610   35.2800   -9.0010 N.3    12  ARG12      -0.1245
     10  CA       122.9050   35.6980  -10.1050 C.3    12  ARG12       0.1563
     11  C        122.1410   34.4930  -10.6880 C.2    12  ARG12       0.2260
     12  O        122.6070   33.3740  -10.6240 O.2    12  ARG12      -0.2867
     13  CB       123.7320   36.4540  -11.1760 C.3    12  ARG12       0.0307
     14  CG       124.4290   35.6120  -12.2320 C.3    12  ARG12       0.0489
     15  CD       124.6840   36.4310  -13.5010 C.3    12  ARG12       0.2205
     16  NE       125.7700   37.3920  -13.4250 N.pl3  12  ARG12      -0.0865
     17  CZ       127.0560   37.0990  -13.3970 C.cat  12  ARG12       0.5346
     18  NH1      127.4730   35.8410  -13.3980 N.pl3  12  ARG12       0.1354
     19  NH2      127.9390   38.0880  -13.3130 N.pl3  12  ARG12       0.1354
     20  N        122.7980   32.7540  -15.5640 N.3    15  SER15      -0.1217
     21  CA       124.2040   32.4630  -15.7950 C.3    15  SER15       0.1889
     22  C        124.3270   32.0480  -17.2490 C.2    15  SER15       0.2288
     23  O        123.5680   31.2080  -17.7120 O.2    15  SER15      -0.2866
     24  CB       124.7000   31.3730  -14.8110 C.3    15  SER15       0.2089
     25  OG       123.8170   30.2670  -14.7030 O.3    15  SER15      -0.2183
     26  N        123.2270   28.0190  -13.2030 N.3    21  LYS21      -0.1231
     27  CA       124.3860   27.3660  -12.6340 C.3    21  LYS21       0.1693
     28  C        124.2840   27.2960  -11.1180 C.2    21  LYS21       0.2592
     29  O        124.4150   26.2190  -10.5350 O.2    21  LYS21      -0.2718
     30  CB       125.6470   28.0940  -13.0400 C.3    21  LYS21       0.0285
     31  CG       126.9320   27.4540  -12.5390 C.3    21  LYS21       0.0035
     32  CD       128.1440   28.0170  -13.2860 C.3    21  LYS21       0.0206
     33  CE       128.4240   29.4580  -12.9050 C.3    21  LYS21       0.1093
     34  NZ       129.6760   29.9120  -13.5410 N.3    21  LYS21      -0.1314
     35  N        123.9990   28.4250  -10.4880 N.am   22  ASN22      -0.1974
     36  CA       123.9580   28.4790   -9.0270 C.3    22  ASN22       0.1688
     37  C        122.9050   27.5860   -8.3630 C.2    22  ASN22       0.2292
     38  O        122.9920   27.3350   -7.1650 O.2    22  ASN22      -0.2864
     39  CB       123.7980   29.9320   -8.5550 C.3    22  ASN22       0.1181
     40  CG       125.0010   30.8010   -8.9330 C.2    22  ASN22       0.2629
     41  OD1      126.1440   30.3450   -8.8680 O.2    22  ASN22      -0.2716
     42  ND2      124.7440   32.0540   -9.3120 N.am   22  ASN22      -0.0877
     43  N        118.8790   42.2200   -6.3080 N.3    71  ARG71      -0.1245
     44  CA       119.7740   43.0800   -7.0690 C.3    71  ARG71       0.1563
     45  C        119.0590   43.5820   -8.2950 C.2    71  ARG71       0.2260
     46  O        118.3660   42.8290   -8.9630 O.2    71  ARG71      -0.2867
     47  CB       121.0150   42.3330   -7.5220 C.3    71  ARG71       0.0307
     48  CG       122.2270   42.5780   -6.6600 C.3    71  ARG71       0.0489
     49  CD       123.4790   41.9200   -7.2500 C.3    71  ARG71       0.2205
     50  NE       123.5090   40.4610   -7.0670 N.pl3  71  ARG71      -0.0865
     51  CZ       124.2150   39.6060   -7.8060 C.cat  71  ARG71       0.5346
     52  NH1      124.9940   40.0330   -8.8000 N.pl3  71  ARG71       0.1354
     53  NH2      124.1520   38.3090   -7.5390 N.pl3  71  ARG71       0.1354
     54  N        123.4110   45.3920  -11.7000 N.3    75  LEU75      -0.1231
     55  CA       124.3760   44.7500  -10.7950 C.3    75  LEU75       0.1693
     56  C        124.5020   43.2310  -10.9060 C.2    75  LEU75       0.2592
     57  O        125.3410   42.6340  -10.2070 O.2    75  LEU75      -0.2718
     58  CB       124.0680   45.1360   -9.3510 C.3    75  LEU75       0.0284
     59  CG       124.1220   46.6460   -9.0430 C.3    75  LEU75       0.0019
     60  CD1      124.0640   46.8550   -7.5240 C.3    75  LEU75       0.0001
     61  CD2      125.3410   47.3670   -9.6350 C.3    75  LEU75       0.0001
     62  N        123.6900   42.6220  -11.7790 N.am   76  ALA76      -0.1966
     63  CA       123.7250   41.1840  -12.0700 C.3    76  ALA76       0.1728
     64  C        124.0980   40.8250  -13.5080 C.2    76  ALA76       0.2616
     65  O        124.1340   39.6440  -13.8640 O.2    76  ALA76      -0.2715
     66  CB       122.3830   40.5680  -11.7480 C.3    76  ALA76       0.0334
     67  N        124.3810   41.8190  -14.3400 N.am   77  SER77      -0.1950
     68  CA       124.7670   41.5360  -15.7150 C.3    77  SER77       0.1924
     69  C        126.1660   40.8900  -15.7600 C.2    77  SER77       0.2314
     70  O        126.9150   40.9400  -14.7930 O.2    77  SER77      -0.2863
     71  CB       124.7660   42.8150  -16.5420 C.3    77  SER77       0.2116
     72  OG       125.8710   43.6170  -16.1950 O.3    77  SER77      -0.2180
     73  N        128.9780   43.1930  -14.6310 N.3    80  ALA80      -0.1231
     74  CA       129.0330   43.6330  -13.2270 C.3    80  ALA80       0.1694
     75  C        130.1100   42.9210  -12.3640 C.2    80  ALA80       0.2593
     76  O        130.3030   41.7000  -12.4120 O.2    80  ALA80      -0.2718
     77  CB       127.6770   43.4800  -12.5810 C.3    80  ALA80       0.0304
     78  N        130.8140   43.7190  -11.5800 N.am   81  SER81      -0.1938
     79  CA       131.8700   43.2420  -10.6870 C.3    81  SER81       0.2055
     80  C        131.1680   42.7030   -9.4620 C.2    81  SER81       0.2643
     81  O        130.0410   43.1440   -9.1300 O.2    81  SER81      -0.2714
     82  CB       132.7620   44.4160  -10.2730 C.3    81  SER81       0.2130
     83  OG       131.9480   45.5040   -9.7690 O.3    81  SER81      -0.2179
     84  N        131.8400   41.7780   -8.7870 N.am   82  SER82      -0.1949
     85  CA       131.3560   41.2680   -7.5220 C.3    82  SER82       0.1924
     86  C        131.3010   42.3740   -6.4660 C.2    82  SER82       0.2314
     87  O        130.3370   42.4360   -5.6760 O.2    82  SER82      -0.2863
     88  CB       132.2030   40.0970   -7.0190 C.3    82  SER82       0.2116
     89  OG       131.9350   38.9180   -7.7500 O.3    82  SER82      -0.2180
     90  N        128.0520   44.3340   -6.0970 N.3    85  GLY85      -0.1225
     91  CA       126.9830   43.5470   -5.5190 C.3    85  GLY85       0.1811
     92  C        127.0560   43.4540   -4.0200 C.2    85  GLY85       0.2280
     93  O        126.0250   43.5260   -3.3250 O.2    85  GLY85      -0.2866
     94  N        131.4780   32.5050   -2.8840 N.3   104  GLN104     -0.1231
     95  CA       130.9310   32.2740   -4.2160 C.3   104  GLN104      0.1683
     96  C        130.3770   30.8500   -4.3350 C.2   104  GLN104      0.2434
     97  O        131.0510   29.9040   -3.9700 O.2   104  GLN104     -0.2733
     98  CB       132.0000   32.5260   -5.2740 C.3   104  GLN104      0.0380
     99  CG       132.4980   33.9750   -5.2630 C.3   104  GLN104      0.0905
    100  CD       133.2610   34.4020   -6.5170 C.2   104  GLN104      0.2608
    101  OE1      133.1810   35.5600   -6.9210 O.2   104  GLN104     -0.2717
    102  NE2      133.9930   33.4790   -7.1250 N.am  104  GLN104     -0.0878
    103  N        129.1510   30.6900   -4.8450 N.am  105  PRO105     -0.2718
    104  CA       128.5360   29.3580   -4.9270 C.3   105  PRO105      0.1535
    105  C        129.2150   28.3910   -5.8920 C.2   105  PRO105      0.2599
    106  O        128.9790   27.1860   -5.8560 O.2   105  PRO105     -0.2715
    107  CB       127.1080   29.6540   -5.3920 C.3   105  PRO105      0.0310
    108  CG       126.8970   31.1070   -5.1990 C.3   105  PRO105      0.0237
    109  CD       128.2330   31.7560   -5.2600 C.3   105  PRO105      0.0939
    110  N        130.0350   28.9420   -6.7700 N.am  106  THR106     -0.1951
    111  CA       130.8480   28.1760   -7.6840 C.3   106  THR106      0.1897
    112  C        131.9240   27.3750   -6.9960 C.2   106  THR106      0.2313
    113  O        132.5810   26.6030   -7.6700 O.2   106  THR106     -0.2863
    114  CB       131.5140   29.0960   -8.7250 C.3   106  THR106      0.1794
    115  OG1      132.0050   30.2730   -8.0550 O.3   106  THR106     -0.2208
    116  CG2      130.5110   29.4950   -9.7400 C.3   106  THR106      0.0378
    117  N        132.3210   25.8430  -13.9400 N.3   211  ASP211     -0.1239
    118  CA       131.9590   26.5230  -15.2010 C.3   211  ASP211      0.1674
    119  C        131.0860   25.6240  -16.0670 C.2   211  ASP211      0.2266
    120  O        130.2530   26.1340  -16.8040 O.2   211  ASP211     -0.2867
    121  CB       133.1920   26.9780  -15.9950 C.3   211  ASP211      0.1410
    122  CG       133.9670   28.1090  -15.2890 C.2   211  ASP211      0.3668
    123  OD1      133.3680   29.1920  -15.0330 O.co2 211  ASP211     -0.2456
    124  OD2      135.1710   27.9170  -14.9650 O.co2 211  ASP211     -0.2456
@<TRIPOS>BOND
     1    23    22    2
     2    22    21    1
     3   120   119    2
     4    71    72    1
     5    71    68    1
     6   119   118    1
     7   121   122    1
     8   121   118    1
     9    21    20    1
    10    21    24    1
    11    69    68    1
    12    69    70    2
    13    68    67    1
    14   122   123   ar
    15   122   124   ar
    16   118   117    1
    17    24    25    1
    18    73    74    1
    19    67    64   am
    20    65    64    2
    21    34    33    1
    22    64    63    1
    23    15    16    1
    24    15    14    1
    25    16    17    2
    26    18    17    1
    27    17    19    1
    28    32    33    1
    29    32    31    1
    30    74    77    1
    31    74    75    1
    32    26    27    1
    33    30    27    1
    34    30    31    1
    35    27    28    1
    36    76    75    2
    37    75    78   am
    38    14    13    1
    39    63    62    1
    40    63    66    1
    41    62    56   am
    42    54    55    1
    43    78    79    1
    44    13    10    1
    45    28    29    2
    46    28    35   am
    47    56    55    1
    48    56    57    2
    49    55    58    1
    50    11    12    2
    51    11    10    1
    52    79    82    1
    53    79    80    1
    54    35    36    1
    55    82    83    1
    56    10     9    1
    57   116   114    1
    58    61    59    1
    59    80    81    2
    60    80    84   am
    61    58    59    1
    62    42    40   am
    63    59    60    1
    64    36    39    1
    65    36    37    1
    66    46    45    2
    67    40    41    2
    68    40    39    1
    69    52    51    1
    70    84    85    1
    71   114   115    1
    72   114   111    1
    73    37    38    2
    74    45    44    1
    75    51    53    1
    76    51    50    2
    77    89    88    1
    78   111   112    1
    79   111   110    1
    80   113   112    2
    81    47    44    1
    82    47    48    1
    83    85    88    1
    84    85    86    1
    85    49    50    1
    86    49    48    1
    87   102   100   am
    88    44    43    1
    89   101   100    2
    90   110   105   am
    91   100    99    1
    92    86    87    2
    93    90    91    1
    94     4     3    2
    95   105   106    2
    96   105   104    1
    97     7     6    1
    98     3     2    1
    99    91    92    1
   100     5     6    1
   101     5     2    1
   102   107   108    1
   103   107   104    1
   104    98    99    1
   105    98    95    1
   106   109   108    1
   107   109   103    1
   108   104   103    1
   109   103    96   am
   110     6     8    1
   111     2     1    1
   112    96    95    1
   113    96    97    2
   114    95    94    1
   115    92    93    2
