@<TRIPOS>MOLECULE
tmp/6cklA02.pdb
 132 126 0 0 0
SMALL
GASTEIGER

@<TRIPOS>ATOM
      1  N        123.7610   35.2800   -9.0010 N.3    12  ARG12      -0.1245
      2  CA       122.9050   35.6980  -10.1050 C.3    12  ARG12       0.1563
      3  C        122.1410   34.4930  -10.6880 C.2    12  ARG12       0.2260
      4  O        122.6070   33.3740  -10.6240 O.2    12  ARG12      -0.2867
      5  CB       123.7320   36.4540  -11.1760 C.3    12  ARG12       0.0307
      6  CG       124.4290   35.6120  -12.2320 C.3    12  ARG12       0.0489
      7  CD       124.6840   36.4310  -13.5010 C.3    12  ARG12       0.2205
      8  NE       125.7700   37.3920  -13.4250 N.pl3  12  ARG12      -0.0865
      9  CZ       127.0560   37.0990  -13.3970 C.cat  12  ARG12       0.5346
     10  NH1      127.4730   35.8410  -13.3980 N.pl3  12  ARG12       0.1354
     11  NH2      127.9390   38.0880  -13.3130 N.pl3  12  ARG12       0.1354
     12  N        126.5210   40.3460  -16.9140 N.3    78  ASP78      -0.1239
     13  CA       127.8010   39.6900  -17.0830 C.3    78  ASP78       0.1674
     14  C        128.9910   40.6250  -16.8860 C.2    78  ASP78       0.2266
     15  O        130.0620   40.1560  -16.4760 O.2    78  ASP78      -0.2867
     16  CB       127.8700   38.9490  -18.4290 C.3    78  ASP78       0.1410
     17  CG       126.9960   37.6880  -18.4480 C.2    78  ASP78       0.3668
     18  OD1      127.0400   36.8980  -17.4850 O.co2  78  ASP78      -0.2456
     19  OD2      126.2490   37.5010  -19.4260 O.co2  78  ASP78      -0.2456
     20  N        128.9780   43.1930  -14.6310 N.3    80  ALA80      -0.1231
     21  CA       129.0330   43.6330  -13.2270 C.3    80  ALA80       0.1694
     22  C        130.1100   42.9210  -12.3640 C.2    80  ALA80       0.2593
     23  O        130.3030   41.7000  -12.4120 O.2    80  ALA80      -0.2718
     24  CB       127.6770   43.4800  -12.5810 C.3    80  ALA80       0.0304
     25  N        130.8140   43.7190  -11.5800 N.am   81  SER81      -0.1938
     26  CA       131.8700   43.2420  -10.6870 C.3    81  SER81       0.2055
     27  C        131.1680   42.7030   -9.4620 C.2    81  SER81       0.2643
     28  O        130.0410   43.1440   -9.1300 O.2    81  SER81      -0.2714
     29  CB       132.7620   44.4160  -10.2730 C.3    81  SER81       0.2130
     30  OG       131.9480   45.5040   -9.7690 O.3    81  SER81      -0.2179
     31  N        131.8400   41.7780   -8.7870 N.am   82  SER82      -0.1949
     32  CA       131.3560   41.2680   -7.5220 C.3    82  SER82       0.1924
     33  C        131.3010   42.3740   -6.4660 C.2    82  SER82       0.2314
     34  O        130.3370   42.4360   -5.6760 O.2    82  SER82      -0.2863
     35  CB       132.2030   40.0970   -7.0190 C.3    82  SER82       0.2116
     36  OG       131.9350   38.9180   -7.7500 O.3    82  SER82      -0.2180
     37  N        132.8290   37.3440    1.2170 N.3   102  LEU102     -0.1245
     38  CA       132.2260   36.8710   -0.0460 C.3   102  LEU102      0.1561
     39  C        132.4290   35.3850   -0.1710 C.2   102  LEU102      0.2260
     40  O        133.5540   34.9010   -0.0420 O.2   102  LEU102     -0.2867
     41  CB       132.8480   37.5870   -1.2460 C.3   102  LEU102      0.0270
     42  CG       132.3910   37.0880   -2.5950 C.3   102  LEU102      0.0019
     43  CD1      130.9130   37.3250   -2.7590 C.3   102  LEU102      0.0001
     44  CD2      133.1490   37.8170   -3.6710 C.3   102  LEU102      0.0001
     45  N        131.4780   32.5050   -2.8840 N.3   104  GLN104     -0.1245
     46  CA       130.9310   32.2740   -4.2160 C.3   104  GLN104      0.1566
     47  C        130.3770   30.8500   -4.3350 C.2   104  GLN104      0.2260
     48  O        131.0510   29.9040   -3.9700 O.2   104  GLN104     -0.2867
     49  CB       132.0000   32.5260   -5.2740 C.3   104  GLN104      0.0367
     50  CG       132.4980   33.9750   -5.2630 C.3   104  GLN104      0.0905
     51  CD       133.2610   34.4020   -6.5170 C.2   104  GLN104      0.2608
     52  OE1      133.1810   35.5600   -6.9210 O.2   104  GLN104     -0.2717
     53  NE2      133.9930   33.4790   -7.1250 N.am  104  GLN104     -0.0878
     54  N        130.0350   28.9420   -6.7700 N.3   106  THR106     -0.1218
     55  CA       130.8480   28.1760   -7.6840 C.3   106  THR106      0.1862
     56  C        131.9240   27.3750   -6.9960 C.2   106  THR106      0.2287
     57  O        132.5810   26.6030   -7.6700 O.2   106  THR106     -0.2866
     58  CB       131.5140   29.0960   -8.7250 C.3   106  THR106      0.1770
     59  OG1      132.0050   30.2730   -8.0550 O.3   106  THR106     -0.2211
     60  CG2      130.5110   29.4950   -9.7400 C.3   106  THR106      0.0375
     61  N        146.5710   30.9350   -7.3760 N.3   173  ARG173     -0.1231
     62  CA       145.2930   31.3650   -7.9460 C.3   173  ARG173      0.1679
     63  C        144.3140   31.6060   -6.7970 C.2   173  ARG173      0.2434
     64  O        143.9810   30.6660   -6.0880 O.2   173  ARG173     -0.2733
     65  CB       144.7540   30.2770   -8.8860 C.3   173  ARG173      0.0321
     66  CG       143.3470   30.5150   -9.4080 C.3   173  ARG173      0.0489
     67  CD       142.9480   29.4890  -10.4660 C.3   173  ARG173      0.2205
     68  NE       142.5710   28.1990   -9.9140 N.pl3 173  ARG173     -0.0865
     69  CZ       141.3960   27.8940   -9.3420 C.cat 173  ARG173      0.5346
     70  NH1      140.4270   28.7930   -9.2050 N.pl3 173  ARG173      0.1354
     71  NH2      141.1990   26.6540   -8.8820 N.pl3 173  ARG173      0.1354
     72  N        143.8600   32.8510   -6.5930 N.am  174  PRO174     -0.2718
     73  CA       142.6720   33.0420   -5.7420 C.3   174  PRO174      0.1535
     74  C        141.5230   32.2330   -6.3270 C.2   174  PRO174      0.2599
     75  O        141.2100   32.3540   -7.5120 O.2   174  PRO174     -0.2715
     76  CB       142.3940   34.5430   -5.8530 C.3   174  PRO174      0.0310
     77  CG       143.7280   35.1240   -6.2050 C.3   174  PRO174      0.0237
     78  CD       144.3370   34.1230   -7.1360 C.3   174  PRO174      0.0939
     79  N        140.9220   31.3970   -5.5140 N.am  175  ASN175     -0.1959
     80  CA       140.0520   30.3550   -6.0500 C.3   175  ASN175      0.1819
     81  C        138.5540   30.7180   -6.0930 C.2   175  ASN175      0.2621
     82  O        137.7510   29.9280   -6.5790 O.2   175  ASN175     -0.2715
     83  CB       140.3090   29.0180   -5.3360 C.3   175  ASN175      0.1195
     84  CG       140.0170   29.0630   -3.8660 C.2   175  ASN175      0.2630
     85  OD1      139.3870   30.0010   -3.3620 O.2   175  ASN175     -0.2716
     86  ND2      140.4620   28.0370   -3.1530 N.am  175  ASN175     -0.0877
     87  N        138.2040   31.8880   -5.5830 N.am  176  GLY176     -0.1954
     88  CA       136.8340   32.3510   -5.5680 C.3   176  GLY176      0.1869
     89  C        136.0350   31.9380   -4.3440 C.2   176  GLY176      0.2309
     90  O        134.9790   32.4650   -4.1040 O.2   176  GLY176     -0.2863
     91  N        136.5680   35.3030    0.5250 N.3   179  TYR179     -0.1241
     92  CA       137.2290   36.5870    0.5950 C.3   179  TYR179      0.1605
     93  C        136.7070   37.2870    1.8500 C.2   179  TYR179      0.2264
     94  O        135.5420   37.6880    1.8910 O.2   179  TYR179     -0.2867
     95  CB       136.8860   37.4690   -0.5920 C.3   179  TYR179      0.0534
     96  CG       137.1210   36.9300   -1.9570 C.ar  179  TYR179     -0.0201
     97  CD1      136.2190   36.0600   -2.5340 C.ar  179  TYR179     -0.0009
     98  CD2      138.2020   37.3570   -2.7050 C.ar  179  TYR179     -0.0009
     99  CE1      136.4210   35.5880   -3.8200 C.ar  179  TYR179      0.0417
    100  CE2      138.4170   36.9100   -3.9870 C.ar  179  TYR179      0.0417
    101  CZ       137.5420   36.0170   -4.5290 C.ar  179  TYR179      0.1957
    102  OH       137.7460   35.5580   -5.7740 O.3   179  TYR179     -0.2866
    103  N        138.3440   43.6310   -3.0710 N.3   192  PHE192     -0.1227
    104  CA       138.4420   42.5150   -2.1310 C.3   192  PHE192      0.1736
    105  C        139.8660   42.1880   -1.6580 C.2   192  PHE192      0.2595
    106  O        140.0400   41.3610   -0.7380 O.2   192  PHE192     -0.2718
    107  CB       137.8500   41.2880   -2.7820 C.3   192  PHE192      0.0547
    108  CG       136.3840   41.3840   -2.9690 C.ar  192  PHE192     -0.0202
    109  CD1      135.5180   41.2130   -1.8840 C.ar  192  PHE192     -0.0042
    110  CD2      135.8520   41.6510   -4.2190 C.ar  192  PHE192     -0.0042
    111  CE1      134.1490   41.2990   -2.0650 C.ar  192  PHE192     -0.0003
    112  CE2      134.4910   41.7480   -4.4080 C.ar  192  PHE192     -0.0003
    113  CZ       133.6350   41.5580   -3.3410 C.ar  192  PHE192     -0.0000
    114  N        140.8660   42.7970   -2.3150 N.am  193  PHE193     -0.1976
    115  CA       142.2840   42.5590   -2.0480 C.3   193  PHE193      0.1639
    116  C        142.8550   43.8470   -1.4440 C.2   193  PHE193      0.2290
    117  O        143.1100   44.8240   -2.1370 O.2   193  PHE193     -0.2864
    118  CB       143.0090   42.2010   -3.3400 C.3   193  PHE193      0.0560
    119  CG       142.5910   40.8970   -3.9400 C.ar  193  PHE193     -0.0200
    120  CD1      141.4910   40.8250   -4.7660 C.ar  193  PHE193     -0.0042
    121  CD2      143.3280   39.7410   -3.7000 C.ar  193  PHE193     -0.0042
    122  CE1      141.1100   39.6070   -5.3360 C.ar  193  PHE193     -0.0003
    123  CE2      142.9650   38.5230   -4.2610 C.ar  193  PHE193     -0.0003
    124  CZ       141.8450   38.4460   -5.0820 C.ar  193  PHE193     -0.0000
    125  N        136.0900   24.7950   -9.1610 N.3   209  ASP209     -0.1239
    126  CA       134.9810   25.6920   -9.3880 C.3   209  ASP209      0.1674
    127  C        134.1990   25.2480  -10.6110 C.2   209  ASP209      0.2266
    128  O        134.7310   24.5430  -11.4800 O.2   209  ASP209     -0.2867
    129  CB       135.4150   27.1580   -9.4520 C.3   209  ASP209      0.1410
    130  CG       136.6150   27.3850  -10.3250 C.2   209  ASP209      0.3668
    131  OD1      136.8370   26.6690  -11.3250 O.co2 209  ASP209     -0.2456
    132  OD2      137.3660   28.3100  -10.0110 O.co2 209  ASP209     -0.2456
@<TRIPOS>BOND
     1    19    17   ar
     2    17    16    1
     3    17    18   ar
     4    16    13    1
     5    13    12    1
     6    13    14    1
     7    14    15    2
     8    20    21    1
     9     7     8    1
    10     7     6    1
    11     8     9    2
    12    10     9    1
    13     9    11    1
    14    21    24    1
    15    21    22    1
    16    23    22    2
    17    22    25   am
    18     6     5    1
    19    25    26    1
    20   128   127    2
    21   131   130   ar
    22     5     2    1
    23     3     4    2
    24     3     2    1
    25    26    29    1
    26    26    27    1
    27   127   126    1
    28    67    68    1
    29    67    66    1
    30   130   132   ar
    31   130   129    1
    32    29    30    1
    33     2     1    1
    34    68    69    2
    35    60    58    1
    36    27    28    2
    37    27    31   am
    38   129   126    1
    39    66    65    1
    40   126   125    1
    41    69    70    1
    42    69    71    1
    43    65    62    1
    44    31    32    1
    45    58    59    1
    46    58    55    1
    47    62    61    1
    48    62    63    1
    49    36    35    1
    50    55    56    1
    51    55    54    1
    52    57    56    2
    53    32    35    1
    54    32    33    1
    55    75    74    2
    56    78    72    1
    57    78    77    1
    58    53    51   am
    59    52    51    2
    60    63    72   am
    61    63    64    2
    62    72    73    1
    63    82    81    2
    64    51    50    1
    65    33    34    2
    66    74    73    1
    67    74    79   am
    68    77    76    1
    69    81    80    1
    70    81    87   am
    71    80    79    1
    72    80    83    1
    73    76    73    1
    74   102   101    1
    75    87    88    1
    76    88    89    1
    77    83    84    1
    78   122   124   ar
    79   122   120   ar
    80    49    50    1
    81    49    46    1
    82   124   123   ar
    83   120   119   ar
    84   101   100   ar
    85   101    99   ar
    86   112   110   ar
    87   112   113   ar
    88    89    90    2
    89    47    46    1
    90    47    48    2
    91   123   121   ar
    92   110   108   ar
    93    46    45    1
    94   100    98   ar
    95   119   121   ar
    96   119   118    1
    97    84    85    2
    98    84    86   am
    99    99    97   ar
   100    44    42    1
   101   113   111   ar
   102   118   115    1
   103   103   104    1
   104   108   107    1
   105   108   109   ar
   106   107   104    1
   107    43    42    1
   108    98    96   ar
   109    42    41    1
   110    97    96   ar
   111   114   115    1
   112   114   105   am
   113   117   116    2
   114   104   105    1
   115   111   109   ar
   116   115   116    1
   117    96    95    1
   118   105   106    2
   119    41    38    1
   120    95    92    1
   121    39    38    1
   122    39    40    2
   123    38    37    1
   124    91    92    1
   125    92    93    1
   126    93    94    2
