@<TRIPOS>MOLECULE
tmp/6ckmA00.pdb
 202 192 0 0 0
SMALL
GASTEIGER

@<TRIPOS>ATOM
      1  N         22.9600  180.4180    7.6370 N.3    10  LEU10      -0.1245
      2  CA        23.1180  180.1040    9.0560 C.3    10  LEU10       0.1561
      3  C         24.4500  179.3920    9.2530 C.2    10  LEU10       0.2260
      4  O         24.6910  178.3490    8.6400 O.2    10  LEU10      -0.2867
      5  CB        21.9770  179.2190    9.5770 C.3    10  LEU10       0.0270
      6  CG        20.5350  179.7290    9.5300 C.3    10  LEU10       0.0019
      7  CD1       19.5890  178.6610   10.0670 C.3    10  LEU10       0.0001
      8  CD2       20.3740  181.0340   10.3170 C.3    10  LEU10       0.0001
      9  N         26.5630  178.5300   12.6280 N.3    12  ARG12      -0.1245
     10  CA        26.8630  178.5990   14.0490 C.3    12  ARG12       0.1563
     11  C         28.2970  178.1470   14.3050 C.2    12  ARG12       0.2260
     12  O         28.9370  177.5010   13.4670 O.2    12  ARG12      -0.2867
     13  CB        25.8760  177.7560   14.8640 C.3    12  ARG12       0.0307
     14  CG        25.9910  176.2540   14.6480 C.3    12  ARG12       0.0489
     15  CD        24.9300  175.4730   15.4360 C.3    12  ARG12       0.2205
     16  NE        24.6310  174.2010   14.7800 N.pl3  12  ARG12      -0.0865
     17  CZ        23.5030  173.5140   14.9370 C.cat  12  ARG12       0.5346
     18  NH1       22.5470  173.9710   15.7370 N.pl3  12  ARG12       0.1354
     19  NH2       23.3280  172.3690   14.2860 N.pl3  12  ARG12       0.1354
     20  N         29.9800  173.1170   15.8380 N.3    15  SER15      -0.1202
     21  CA        29.5600  172.0460   14.9460 C.3    15  SER15       0.2020
     22  C         29.6080  170.7310   15.7130 C.2    15  SER15       0.2618
     23  O         30.6720  170.3290   16.1980 O.2    15  SER15      -0.2717
     24  CB        30.4530  171.9960   13.7090 C.3    15  SER15       0.2103
     25  OG        30.4510  173.2440   13.0350 O.3    15  SER15      -0.2182
     26  N         28.4560  170.0660   15.8270 N.am   16  LYS16      -0.1979
     27  CA        28.3690  168.8590   16.6430 C.3    16  LYS16       0.1596
     28  C         29.2720  167.7410   16.1370 C.2    16  LYS16       0.2287
     29  O         29.5180  166.7810   16.8740 O.2    16  LYS16      -0.2864
     30  CB        26.9200  168.3730   16.7080 C.3    16  LYS16       0.0298
     31  CG        26.3750  167.9400   15.3810 C.3    16  LYS16       0.0038
     32  CD        25.0870  167.2020   15.5750 C.3    16  LYS16       0.0206
     33  CE        24.0400  168.1190   16.1440 C.3    16  LYS16       0.1093
     34  NZ        22.8710  167.3070   16.6160 N.3    16  LYS16      -0.1314
     35  N         33.5150  173.5720   11.7110 N.3    21  LYS21      -0.1231
     36  CA        33.3520  173.1330   10.3270 C.3    21  LYS21       0.1693
     37  C         33.1300  174.2980    9.3660 C.2    21  LYS21       0.2592
     38  O         33.6380  174.2800    8.2390 O.2    21  LYS21      -0.2718
     39  CB        32.1920  172.1390   10.2300 C.3    21  LYS21       0.0285
     40  CG        31.8980  171.6910    8.7990 C.3    21  LYS21       0.0035
     41  CD        31.1520  170.3740    8.7550 C.3    21  LYS21       0.0206
     42  CE        29.7810  170.4970    9.3720 C.3    21  LYS21       0.1093
     43  NZ        29.1080  169.1640    9.4720 N.3    21  LYS21      -0.1314
     44  N         32.3730  175.3170    9.7810 N.am   22  ASN22      -0.1974
     45  CA        31.9870  176.3510    8.8260 C.3    22  ASN22       0.1688
     46  C         33.1700  177.2020    8.3810 C.2    22  ASN22       0.2292
     47  O         33.0920  177.8550    7.3330 O.2    22  ASN22      -0.2864
     48  CB        30.8800  177.2360    9.4140 C.3    22  ASN22       0.1181
     49  CG        29.5450  176.5090    9.5140 C.2    22  ASN22       0.2629
     50  OD1       29.1820  175.7320    8.6300 O.2    22  ASN22      -0.2716
     51  ND2       28.8290  176.7250   10.6110 N.am   22  ASN22      -0.0877
     52  N         23.3320  185.7890   16.6300 N.3    71  ARG71      -0.1245
     53  CA        22.3360  184.9650   17.3150 C.3    71  ARG71       0.1563
     54  C         22.6930  184.7870   18.7840 C.2    71  ARG71       0.2260
     55  O         23.8320  184.4110   19.0980 O.2    71  ARG71      -0.2867
     56  CB        22.2410  183.5950   16.6710 C.3    71  ARG71       0.0307
     57  CG        21.2020  183.4810   15.6170 C.3    71  ARG71       0.0489
     58  CD        21.1310  182.0340   15.1570 C.3    71  ARG71       0.2205
     59  NE        22.1590  181.7140   14.1690 N.pl3  71  ARG71      -0.0865
     60  CZ        22.5320  180.4720   13.8660 C.cat  71  ARG71       0.5346
     61  NH1       21.9790  179.4330   14.4850 N.pl3  71  ARG71       0.1354
     62  NH2       23.4480  180.2620   12.9230 N.pl3  71  ARG71       0.1354
     63  N         19.4140  180.4470   20.2280 N.3    75  LEU75      -0.1245
     64  CA        19.1270  180.1950   18.8230 C.3    75  LEU75       0.1561
     65  C         20.2820  179.5210   18.0930 C.2    75  LEU75       0.2260
     66  O         20.1880  179.2880   16.8790 O.2    75  LEU75      -0.2867
     67  CB        18.7730  181.5110   18.1190 C.3    75  LEU75       0.0270
     68  CG        17.4550  182.1340   18.5740 C.3    75  LEU75       0.0019
     69  CD1       17.2350  183.4560   17.8340 C.3    75  LEU75       0.0001
     70  CD2       16.3100  181.1760   18.3180 C.3    75  LEU75       0.0001
     71  N         18.5750  173.9960   18.3930 N.3    80  ALA80      -0.1231
     72  CA        17.8550  175.1130   17.7980 C.3    80  ALA80       0.1694
     73  C         17.4960  174.8280   16.3420 C.2    80  ALA80       0.2593
     74  O         18.3390  174.3960   15.5480 O.2    80  ALA80      -0.2718
     75  CB        18.6940  176.3880   17.8890 C.3    80  ALA80       0.0304
     76  N         16.2480  175.1040   15.9810 N.am   81  SER81      -0.1938
     77  CA        15.8070  174.8310   14.6200 C.3    81  SER81       0.2055
     78  C         16.3820  175.8480   13.6430 C.2    81  SER81       0.2643
     79  O         16.5770  177.0270   13.9690 O.2    81  SER81      -0.2714
     80  CB        14.2840  174.8640   14.5340 C.3    81  SER81       0.2130
     81  OG        13.8160  176.1850   14.7720 O.3    81  SER81      -0.2179
     82  N         16.6230  175.3970   12.4090 N.am   82  SER82      -0.1949
     83  CA        17.0410  176.3450   11.3760 C.3    82  SER82       0.1924
     84  C         15.9720  177.4060   11.1360 C.2    82  SER82       0.2314
     85  O         16.2970  178.5770   10.8930 O.2    82  SER82      -0.2863
     86  CB        17.3680  175.6250   10.0600 C.3    82  SER82       0.2116
     87  OG        18.6210  174.9580   10.1420 O.3    82  SER82      -0.2180
     88  N         16.2160  180.3700   13.3310 N.3    85  GLY85      -0.1225
     89  CA        17.3250  181.2500   12.9800 C.3    85  GLY85       0.1811
     90  C         17.0060  182.1480   11.8000 C.2    85  GLY85       0.2280
     91  O         17.3640  183.3330   11.7910 O.2    85  GLY85      -0.2866
     92  N         17.4590  180.0450    2.2110 N.3   102  LEU102     -0.1245
     93  CA        18.4610  179.4710    3.1070 C.3   102  LEU102      0.1561
     94  C         19.5520  178.8060    2.2740 C.2   102  LEU102      0.2260
     95  O         19.2520  177.9950    1.3840 O.2   102  LEU102     -0.2867
     96  CB        17.8290  178.4470    4.0560 C.3   102  LEU102      0.0270
     97  CG        18.8030  177.7320    5.0030 C.3   102  LEU102      0.0019
     98  CD1       19.3310  178.6700    6.0920 C.3   102  LEU102      0.0001
     99  CD2       18.1460  176.4970    5.6390 C.3   102  LEU102      0.0001
    100  N         22.9740  176.7010    3.0480 N.3   104  GLN104     -0.1231
    101  CA        23.7700  176.0780    4.1010 C.3   104  GLN104      0.1683
    102  C         25.2360  175.9940    3.6870 C.2   104  GLN104      0.2434
    103  O         25.5310  175.5330    2.5810 O.2   104  GLN104     -0.2733
    104  CB        23.2340  174.6750    4.4120 C.3   104  GLN104      0.0380
    105  CG        21.8410  174.7210    5.0530 C.3   104  GLN104      0.0905
    106  CD        21.3240  173.3960    5.5850 C.2   104  GLN104      0.2608
    107  OE1       20.5350  173.3870    6.5380 O.2   104  GLN104     -0.2717
    108  NE2       21.7490  172.2770    4.9860 N.am  104  GLN104     -0.0878
    109  N         26.1760  176.3940    4.5490 N.am  105  PRO105     -0.2718
    110  CA        27.6060  176.2580    4.2050 C.3   105  PRO105      0.1535
    111  C         28.0620  174.8280    3.9720 C.2   105  PRO105      0.2599
    112  O         29.1270  174.6220    3.3750 O.2   105  PRO105     -0.2715
    113  CB        28.3250  176.8650    5.4210 C.3   105  PRO105      0.0310
    114  CG        27.3230  177.8040    6.0310 C.3   105  PRO105      0.0237
    115  CD        25.9680  177.1790    5.7800 C.3   105  PRO105      0.0939
    116  N         27.3050  173.8330    4.4230 N.am  106  THR106     -0.1951
    117  CA        27.6750  172.4410    4.2440 C.3   106  THR106      0.1897
    118  C         27.5020  171.9470    2.8060 C.2   106  THR106      0.2313
    119  O         27.8130  170.7840    2.5460 O.2   106  THR106     -0.2863
    120  CB        26.8700  171.5690    5.2230 C.3   106  THR106      0.1794
    121  OG1       25.5290  172.0650    5.3370 O.3   106  THR106     -0.2208
    122  CG2       27.5190  171.6040    6.6010 C.3   106  THR106      0.0378
    123  N         15.4170  163.4120   -3.3970 N.3   173  ARG173     -0.1231
    124  CA        15.4760  163.8640   -2.0120 C.3   173  ARG173      0.1679
    125  C         16.0820  165.2550   -1.9440 C.2   173  ARG173      0.2434
    126  O         16.9800  165.5800   -2.7250 O.2   173  ARG173     -0.2733
    127  CB        16.3150  162.9220   -1.1420 C.3   173  ARG173      0.0321
    128  CG        17.7600  162.8020   -1.5810 C.3   173  ARG173      0.0489
    129  CD        18.5730  162.0590   -0.5220 C.3   173  ARG173      0.2205
    130  NE        19.9710  161.9160   -0.9190 N.pl3 173  ARG173     -0.0865
    131  CZ        20.9110  162.8290   -0.6900 C.cat 173  ARG173      0.5346
    132  NH1       20.6110  163.9580   -0.0580 N.pl3 173  ARG173      0.1354
    133  NH2       22.1580  162.6120   -1.0950 N.pl3 173  ARG173      0.1354
    134  N         15.6160  166.0950   -1.0250 N.am  174  PRO174     -0.2718
    135  CA        16.2970  167.3720   -0.7860 C.3   174  PRO174      0.1535
    136  C         17.7640  167.1300   -0.4650 C.2   174  PRO174      0.2599
    137  O         18.1230  166.1590    0.2060 O.2   174  PRO174     -0.2715
    138  CB        15.5450  167.9580    0.4140 C.3   174  PRO174      0.0310
    139  CG        14.1990  167.3000    0.3780 C.3   174  PRO174      0.0237
    140  CD        14.4860  165.8900   -0.0980 C.3   174  PRO174      0.0939
    141  N         18.6320  168.0070   -0.9610 N.am  175  ASN175     -0.1959
    142  CA        20.0550  167.8490   -0.6930 C.3   175  ASN175      0.1819
    143  C         20.6120  168.8820    0.2860 C.2   175  ASN175      0.2621
    144  O         21.8140  168.8470    0.5800 O.2   175  ASN175     -0.2715
    145  CB        20.8530  167.8640   -2.0080 C.3   175  ASN175      0.1195
    146  CG        20.7810  169.2000   -2.7410 C.2   175  ASN175      0.2630
    147  OD1       20.2590  170.1930   -2.2290 O.2   175  ASN175     -0.2716
    148  ND2       21.3250  169.2260   -3.9550 N.am  175  ASN175     -0.0877
    149  N         19.7770  169.7910    0.8000 N.am  176  GLY176     -0.1954
    150  CA        20.2080  170.7730    1.7920 C.3   176  GLY176      0.1869
    151  C         20.8090  172.0600    1.2480 C.2   176  GLY176      0.2309
    152  O         21.0600  172.9870    2.0340 O.2   176  GLY176     -0.2863
    153  N         16.9570  176.4010   -0.2380 N.3   179  TYR179     -0.1241
    154  CA        15.5160  176.4360    0.0340 C.3   179  TYR179      0.1605
    155  C         15.0380  177.8650   -0.2020 C.2   179  TYR179      0.2264
    156  O         15.4270  178.7680    0.5450 O.2   179  TYR179     -0.2867
    157  CB        15.1750  176.0100    1.4760 C.3   179  TYR179      0.0534
    158  CG        15.7520  174.6930    1.9690 C.ar  179  TYR179     -0.0201
    159  CD1       17.0730  174.6030    2.4150 C.ar  179  TYR179     -0.0009
    160  CD2       14.9590  173.5540    2.0280 C.ar  179  TYR179     -0.0009
    161  CE1       17.5930  173.4120    2.8910 C.ar  179  TYR179      0.0417
    162  CE2       15.4760  172.3450    2.5010 C.ar  179  TYR179      0.0417
    163  CZ        16.7920  172.2840    2.9310 C.ar  179  TYR179      0.1957
    164  OH        17.3150  171.0930    3.4060 O.3   179  TYR179     -0.2866
    165  N         10.1150  175.3750    6.0420 N.3   192  PHE192     -0.1227
    166  CA        10.7800  175.5850    4.7540 C.3   192  PHE192      0.1736
    167  C         10.0920  174.9110    3.5780 C.2   192  PHE192      0.2595
    168  O         10.4140  175.2430    2.4320 O.2   192  PHE192     -0.2718
    169  CB        12.2380  175.0880    4.8070 C.3   192  PHE192      0.0547
    170  CG        13.1220  175.8970    5.7250 C.ar  192  PHE192     -0.0202
    171  CD1       13.5850  177.1510    5.3220 C.ar  192  PHE192     -0.0042
    172  CD2       13.5000  175.4150    6.9720 C.ar  192  PHE192     -0.0042
    173  CE1       14.3840  177.9240    6.1580 C.ar  192  PHE192     -0.0003
    174  CE2       14.3130  176.1810    7.8140 C.ar  192  PHE192     -0.0003
    175  CZ        14.7530  177.4310    7.4100 C.ar  192  PHE192     -0.0000
    176  N          9.1830  173.9660    3.8150 N.am  193  PHE193     -0.1976
    177  CA         8.4800  173.2700    2.7340 C.3   193  PHE193      0.1639
    178  C          7.0280  173.7310    2.7170 C.2   193  PHE193      0.2290
    179  O          6.2570  173.4260    3.6360 O.2   193  PHE193     -0.2864
    180  CB         8.5520  171.7520    2.8880 C.3   193  PHE193      0.0560
    181  CG         9.9030  171.1540    2.5860 C.ar  193  PHE193     -0.0200
    182  CD1       10.9330  171.2240    3.5150 C.ar  193  PHE193     -0.0042
    183  CD2       10.1320  170.4910    1.3890 C.ar  193  PHE193     -0.0042
    184  CE1       12.1730  170.6550    3.2460 C.ar  193  PHE193     -0.0003
    185  CE2       11.3720  169.9110    1.1220 C.ar  193  PHE193     -0.0003
    186  CZ        12.3840  170.0030    2.0410 C.ar  193  PHE193     -0.0000
    187  N         27.5800  166.9640    0.7550 N.3   209  ASP209     -0.1239
    188  CA        27.3790  167.6630    2.0200 C.3   209  ASP209      0.1674
    189  C         28.5360  167.3220    2.9470 C.2   209  ASP209      0.2266
    190  O         28.8940  166.1470    3.0800 O.2   209  ASP209     -0.2867
    191  CB        26.0430  167.2690    2.6630 C.3   209  ASP209      0.1410
    192  CG        25.7900  167.9760    3.9920 C.2   209  ASP209      0.3668
    193  OD1       26.5520  167.7700    4.9620 O.co2 209  ASP209     -0.2456
    194  OD2       24.8160  168.7480    4.0670 O.co2 209  ASP209     -0.2456
    195  N         30.3460  166.4740    6.1390 N.3   211  ASP211     -0.1239
    196  CA        30.3110  166.0050    7.5140 C.3   211  ASP211      0.1674
    197  C         31.6590  165.5310    8.0260 C.2   211  ASP211      0.2266
    198  O         31.9120  165.6240    9.2290 O.2   211  ASP211     -0.2867
    199  CB        29.3010  164.8580    7.6670 C.3   211  ASP211      0.1410
    200  CG        27.8680  165.3450    7.6680 C.2   211  ASP211      0.3668
    201  OD1       27.5440  166.2310    8.4880 O.co2 211  ASP211     -0.2456
    202  OD2       27.0720  164.8520    6.8390 O.co2 211  ASP211     -0.2456
@<TRIPOS>BOND
     1   148   146   am
     2   123   124    1
     3   146   147    2
     4   146   145    1
     5   126   125    2
     6   124   125    1
     7   124   127    1
     8   145   142    1
     9   125   134   am
    10   128   127    1
    11   128   129    1
    12   133   131    1
    13   134   135    1
    14   134   140    1
    15   141   142    1
    16   141   136   am
    17   130   131    2
    18   130   129    1
    19   135   136    1
    20   135   138    1
    21   142   143    1
    22   131   132    1
    23   136   137    2
    24   153   154    1
    25   155   154    1
    26   155   156    2
    27   140   139    1
    28   154   157    1
    29   143   144    2
    30   143   149   am
    31   139   138    1
    32   187   188    1
    33   149   150    1
    34   185   183   ar
    35   185   186   ar
    36   151   150    1
    37   151   152    2
    38    95    94    2
    39   183   181   ar
    40   157   158    1
    41   158   160   ar
    42   158   159   ar
    43   188   191    1
    44   188   189    1
    45   160   162   ar
    46   186   184   ar
    47    92    93    1
    48    94    93    1
    49   159   161   ar
    50   168   167    2
    51   162   163   ar
    52   119   118    2
    53   103   102    2
    54   181   180    1
    55   181   182   ar
    56   191   192    1
    57   178   177    1
    58   178   179    2
    59   177   180    1
    60   177   176    1
    61   118   117    1
    62   161   163   ar
    63   163   164    1
    64   189   190    2
    65   100   101    1
    66    93    96    1
    67   184   182   ar
    68   112   111    2
    69   167   176   am
    70   167   166    1
    71   102   101    1
    72   102   109   am
    73   111   110    1
    74   111   116   am
    75   192   194   ar
    76   192   193   ar
    77    96    97    1
    78   101   104    1
    79   110   109    1
    80   110   113    1
    81   117   116    1
    82   117   120    1
    83   104   105    1
    84   109   115    1
    85   166   169    1
    86   166   165    1
    87   169   170    1
    88   108   106   am
    89    97    99    1
    90    97    98    1
    91   105   106    1
    92   120   121    1
    93   120   122    1
    94   171   170   ar
    95   171   173   ar
    96   113   114    1
    97   106   107    2
    98   170   172   ar
    99   115   114    1
   100   195   196    1
   101   173   175   ar
   102   202   200   ar
   103   172   174   ar
   104    47    46    2
   105   175   174   ar
   106   196   199    1
   107   196   197    1
   108     1     2    1
   109   199   200    1
   110   200   201   ar
   111   197   198    2
   112    38    37    2
   113    46    45    1
   114    50    49    2
   115     4     3    2
   116    41    40    1
   117    41    42    1
   118    40    39    1
   119    45    48    1
   120    45    44    1
   121     2     3    1
   122     2     5    1
   123    37    44   am
   124    37    36    1
   125    42    43    1
   126    48    49    1
   127    49    51   am
   128     6     5    1
   129     6     7    1
   130     6     8    1
   131    86    87    1
   132    86    83    1
   133    39    36    1
   134    36    35    1
   135    85    84    2
   136    84    83    1
   137    83    82    1
   138    91    90    2
   139    90    89    1
   140    82    78   am
   141     9    10    1
   142    62    60    1
   143    89    88    1
   144    25    24    1
   145    12    11    2
   146    78    79    2
   147    78    77    1
   148    24    21    1
   149    60    59    2
   150    60    61    1
   151    10    11    1
   152    10    13    1
   153    59    58    1
   154    19    17    1
   155    80    77    1
   156    80    81    1
   157    77    76    1
   158    14    13    1
   159    14    15    1
   160    16    17    2
   161    16    15    1
   162    17    18    1
   163    21    22    1
   164    21    20    1
   165    58    57    1
   166    31    32    1
   167    31    30    1
   168    74    73    2
   169    32    33    1
   170    57    56    1
   171    22    26   am
   172    22    23    2
   173    26    27    1
   174    76    73   am
   175    28    27    1
   176    28    29    2
   177    33    34    1
   178    73    72    1
   179    52    53    1
   180    27    30    1
   181    56    53    1
   182    66    65    2
   183    53    54    1
   184    72    75    1
   185    72    71    1
   186    69    68    1
   187    65    64    1
   188    67    68    1
   189    67    64    1
   190    70    68    1
   191    54    55    2
   192    64    63    1
