@<TRIPOS>MOLECULE
tmp/6ckrB00.pdb
 142 140 0 0 0
SMALL
GASTEIGER

@<TRIPOS>ATOM
      1  N         -2.9950  -24.2810   36.0350 N.3    38  TRP38      -0.1228
      2  CA        -2.6870  -25.7210   35.9050 C.3    38  TRP38       0.1722
      3  C         -3.6980  -26.6230   35.1210 C.2    38  TRP38       0.2437
      4  O         -3.1840  -27.4340   34.3330 O.2    38  TRP38      -0.2733
      5  CB        -2.2120  -26.3090   37.2420 C.3    38  TRP38       0.0563
      6  CG        -3.3260  -26.3120   38.1910 C.ar   38  TRP38       0.0003
      7  CD1       -3.7740  -25.2460   38.9350 C.ar   38  TRP38       0.0946
      8  CD2       -4.2360  -27.3830   38.4420 C.ar   38  TRP38       0.0152
      9  NE1       -4.9080  -25.5960   39.6400 N.ar   38  TRP38      -0.2442
     10  CE2       -5.2100  -26.8980   39.3710 C.ar   38  TRP38       0.0810
     11  CE3       -4.3410  -28.7090   37.9720 C.ar   38  TRP38       0.0012
     12  CZ2       -6.2580  -27.7040   39.8630 C.ar   38  TRP38       0.0191
     13  CZ3       -5.3730  -29.5010   38.4720 C.ar   38  TRP38       0.0001
     14  CH2       -6.3150  -28.9890   39.4090 C.ar   38  TRP38       0.0015
     15  N         -5.0620  -26.3870   35.1920 N.am   39  PRO39      -0.2718
     16  CA        -5.8840  -27.2730   34.3430 C.3    39  PRO39       0.1535
     17  C         -5.7900  -26.9700   32.8440 C.2    39  PRO39       0.2598
     18  O         -6.3070  -27.7260   32.0450 O.2    39  PRO39      -0.2715
     19  CB        -7.2850  -26.9970   34.7790 C.3    39  PRO39       0.0310
     20  CG        -7.1900  -26.2580   36.1140 C.3    39  PRO39       0.0237
     21  CD        -5.9080  -25.5180   36.0250 C.3    39  PRO39       0.0939
     22  N         -5.1170  -25.8740   32.5120 N.am   40  PHE40      -0.1974
     23  CA        -5.0230  -25.3890   31.1290 C.3    40  PHE40       0.1639
     24  C         -3.5660  -25.4730   30.6270 C.2    40  PHE40       0.2290
     25  O         -3.2620  -24.9990   29.5400 O.2    40  PHE40      -0.2864
     26  CB        -5.4540  -23.9000   31.0930 C.3    40  PHE40       0.0560
     27  CG        -6.8480  -23.6760   31.5920 C.ar   40  PHE40      -0.0200
     28  CD1       -7.9300  -23.9330   30.7170 C.ar   40  PHE40      -0.0042
     29  CD2       -7.1080  -23.2190   32.9130 C.ar   40  PHE40      -0.0042
     30  CE1       -9.2500  -23.7750   31.1880 C.ar   40  PHE40      -0.0003
     31  CE2       -8.4020  -23.1080   33.4060 C.ar   40  PHE40      -0.0003
     32  CZ        -9.4920  -23.3360   32.5380 C.ar   40  PHE40      -0.0000
     33  N         -1.7630  -28.2080   29.8860 N.3    42  GLN42      -0.1231
     34  CA        -1.5320  -29.3440   28.9680 C.3    42  GLN42       0.1683
     35  C         -2.8860  -29.7490   28.4040 C.2    42  GLN42       0.2434
     36  O         -3.9030  -29.3590   28.9280 O.2    42  GLN42      -0.2733
     37  CB        -0.8500  -30.5430   29.6910 C.3    42  GLN42       0.0380
     38  CG        -1.7440  -31.3030   30.6470 C.3    42  GLN42       0.0905
     39  CD        -0.9970  -32.4230   31.4210 C.2    42  GLN42       0.2608
     40  OE1       -0.4860  -32.1870   32.5350 O.2    42  GLN42      -0.2717
     41  NE2       -0.9840  -33.6490   30.8600 N.am   42  GLN42      -0.0878
     42  N         -2.9040  -30.5150   27.3270 N.am   43  PRO43      -0.2718
     43  CA        -4.2390  -30.9690   26.8440 C.3    43  PRO43       0.1535
     44  C         -5.1400  -31.6790   27.9240 C.2    43  PRO43       0.2598
     45  O         -4.6110  -32.3810   28.7910 O.2    43  PRO43      -0.2715
     46  CB        -3.8370  -31.9920   25.7680 C.3    43  PRO43       0.0310
     47  CG        -2.4480  -31.5220   25.2840 C.3    43  PRO43       0.0237
     48  CD        -1.7810  -31.0790   26.5610 C.3    43  PRO43       0.0939
     49  N         -6.4680  -31.4880   27.8320 N.am   44  VAL44      -0.1964
     50  CA        -7.4150  -32.2350   28.6820 C.3    44  VAL44       0.1727
     51  C         -7.1230  -33.6760   28.4910 C.2    44  VAL44       0.2616
     52  O         -7.1660  -34.1840   27.3560 O.2    44  VAL44      -0.2715
     53  CB        -8.8970  -31.8780   28.3870 C.3    44  VAL44       0.0290
     54  CG1       -9.8250  -32.7400   29.2370 C.3    44  VAL44       0.0023
     55  CG2       -9.1160  -30.4030   28.6580 C.3    44  VAL44       0.0023
     56  N         -6.6700  -34.3330   29.5740 N.am   45  ASP45      -0.1971
     57  CA        -6.5140  -35.7720   29.5560 C.3    45  ASP45       0.1709
     58  C         -7.8220  -36.4830   29.9060 C.2    45  ASP45       0.2293
     59  O         -8.0780  -36.8190   31.0760 O.2    45  ASP45      -0.2864
     60  CB        -5.3550  -36.1460   30.5450 C.3    45  ASP45       0.1436
     61  CG        -4.8990  -37.6220   30.4730 C.2    45  ASP45       0.3671
     62  OD1       -5.6190  -38.5060   29.9950 O.co2  45  ASP45      -0.2456
     63  OD2       -3.7800  -37.8800   30.9440 O.co2  45  ASP45      -0.2456
     64  N         -7.4730  -39.9990   31.7490 N.3    48  LYS48      -0.1231
     65  CA        -7.1910  -39.8060   33.2050 C.3    48  LYS48       0.1693
     66  C         -8.3820  -39.2590   34.0310 C.2    48  LYS48       0.2591
     67  O         -8.5870  -39.6790   35.1930 O.2    48  LYS48      -0.2718
     68  CB        -6.0070  -38.8730   33.3570 C.3    48  LYS48       0.0285
     69  CG        -5.3080  -38.8270   34.6990 C.3    48  LYS48       0.0035
     70  CD        -4.1920  -37.7840   34.6580 C.3    48  LYS48       0.0206
     71  CE        -4.7270  -36.3510   34.7340 C.3    48  LYS48       0.1093
     72  NZ        -3.6080  -35.3780   34.6200 N.3    48  LYS48      -0.1314
     73  N         -9.1300  -38.3120   33.4560 N.am   49  LEU49      -0.1980
     74  CA       -10.2560  -37.6890   34.1460 C.3    49  LEU49       0.1596
     75  C        -11.5670  -38.4880   34.0540 C.2    49  LEU49       0.2287
     76  O        -12.5740  -38.0720   34.5870 O.2    49  LEU49      -0.2864
     77  CB       -10.4840  -36.2370   33.6560 C.3    49  LEU49       0.0297
     78  CG        -9.2670  -35.3150   33.8280 C.3    49  LEU49       0.0022
     79  CD1       -9.4940  -34.0000   33.1150 C.3    49  LEU49       0.0001
     80  CD2       -8.8840  -35.1170   35.2960 C.3    49  LEU49       0.0001
     81  N        -13.5600  -38.7230   31.3880 N.3    51  LEU51      -0.1245
     82  CA       -14.4530  -37.8340   30.6890 C.3    51  LEU51       0.1561
     83  C        -14.5560  -38.3360   29.2300 C.2    51  LEU51       0.2260
     84  O        -14.0370  -37.6850   28.3090 O.2    51  LEU51      -0.2867
     85  CB       -13.8890  -36.4080   30.7300 C.3    51  LEU51       0.0270
     86  CG       -13.7130  -35.7120   32.0700 C.3    51  LEU51       0.0019
     87  CD1      -13.1250  -34.3140   31.8040 C.3    51  LEU51       0.0001
     88  CD2      -15.0800  -35.5900   32.7470 C.3    51  LEU51       0.0001
     89  N        -15.4930  -35.8850   26.3280 N.3    54  TYR54      -0.1241
     90  CA       -14.7740  -34.5940   26.1640 C.3    54  TYR54       0.1605
     91  C        -14.4510  -34.3750   24.7000 C.2    54  TYR54       0.2264
     92  O        -14.8120  -33.3420   24.1250 O.2    54  TYR54      -0.2867
     93  CB       -13.4970  -34.4390   27.0590 C.3    54  TYR54       0.0534
     94  CG       -12.9390  -33.0090   26.8730 C.ar   54  TYR54      -0.0201
     95  CD1      -13.4290  -31.9470   27.6260 C.ar   54  TYR54      -0.0009
     96  CD2      -11.8900  -32.7200   25.9400 C.ar   54  TYR54      -0.0009
     97  CE1      -12.9520  -30.6510   27.5010 C.ar   54  TYR54       0.0417
     98  CE2      -11.4370  -31.4290   25.7740 C.ar   54  TYR54       0.0417
     99  CZ       -11.9460  -30.4000   26.5410 C.ar   54  TYR54       0.1957
    100  OH       -11.5330  -29.1750   26.3350 O.3    54  TYR54      -0.2866
    101  N         -9.0700  -22.0350   23.5460 N.3    89  MET89      -0.1245
    102  CA        -8.9330  -22.6120   24.8800 C.3    89  MET89       0.1570
    103  C        -10.0180  -22.1570   25.8510 C.2    89  MET89       0.2261
    104  O        -10.6800  -23.0050   26.4350 O.2    89  MET89      -0.2867
    105  CB        -7.5090  -22.4080   25.3860 C.3    89  MET89       0.0387
    106  CG        -7.3280  -22.8400   26.7980 C.3    89  MET89       0.0595
    107  SD        -5.6450  -22.5390   27.4130 S.3    89  MET89      -0.1393
    108  CE        -5.8790  -20.8320   27.9570 C.3    89  MET89       0.0692
    109  N        -13.6260  -24.4440   27.1860 N.3    93  CYS93      -0.1235
    110  CA       -14.0170  -24.5590   28.5810 C.3    93  CYS93       0.1677
    111  C        -15.5150  -24.0980   28.8210 C.2    93  CYS93       0.2270
    112  O        -16.3010  -24.7970   29.4910 O.2    93  CYS93      -0.2867
    113  CB       -13.0120  -23.7990   29.4330 C.3    93  CYS93       0.0956
    114  SG       -13.3060  -24.0550   31.1960 S.3    93  CYS93      -0.0801
    115  N        -17.8990  -26.9460   27.0870 N.3    96  TYR96      -0.1227
    116  CA       -17.9900  -28.2310   27.6560 C.3    96  TYR96       0.1736
    117  C        -18.5880  -28.1050   29.0280 C.2    96  TYR96       0.2595
    118  O        -19.3150  -28.9890   29.4160 O.2    96  TYR96      -0.2718
    119  CB       -16.5730  -28.9050   27.7890 C.3    96  TYR96       0.0548
    120  CG       -16.6780  -30.2690   28.3530 C.ar   96  TYR96      -0.0200
    121  CD1      -17.1590  -31.3280   27.5750 C.ar   96  TYR96      -0.0009
    122  CD2      -16.3510  -30.5170   29.7060 C.ar   96  TYR96      -0.0009
    123  CE1      -17.3030  -32.6010   28.1210 C.ar   96  TYR96       0.0417
    124  CE2      -16.4910  -31.7880   30.2710 C.ar   96  TYR96       0.0417
    125  CZ       -16.9650  -32.8290   29.4610 C.ar   96  TYR96       0.1957
    126  OH       -17.0910  -34.0760   29.9820 O.3    96  TYR96      -0.2866
    127  N        -18.3110  -27.0020   29.7540 N.am   97  ASN97      -0.1974
    128  CA       -18.7920  -26.8950   31.1620 C.3    97  ASN97       0.1688
    129  C        -20.0480  -25.9830   31.2120 C.2    97  ASN97       0.2292
    130  O        -20.6130  -25.6240   30.1660 O.2    97  ASN97      -0.2864
    131  CB       -17.6300  -26.4570   32.1020 C.3    97  ASN97       0.1181
    132  CG       -16.4390  -27.3590   31.9850 C.2    97  ASN97       0.2629
    133  OD1      -16.3990  -28.4910   32.5430 O.2    97  ASN97      -0.2716
    134  ND2      -15.4040  -26.9030   31.2070 N.am   97  ASN97      -0.0877
    135  N        -14.3020  -24.4480   37.2860 N.3   103  ILE103     -0.1245
    136  CA       -13.4160  -24.4040   36.0640 C.3   103  ILE103      0.1561
    137  C        -13.7140  -23.2570   35.0880 C.2   103  ILE103      0.2260
    138  O        -12.7730  -22.6210   34.5410 O.2   103  ILE103     -0.2867
    139  CB       -13.2990  -25.7960   35.3570 C.3   103  ILE103      0.0252
    140  CG1      -12.0600  -25.8300   34.3980 C.3   103  ILE103      0.0019
    141  CG2      -14.5850  -26.1000   34.5190 C.3   103  ILE103      0.0019
    142  CD1      -10.7500  -25.9310   35.1390 C.3   103  ILE103      0.0001
@<TRIPOS>BOND
     1   101   102    1
     2    92    91    2
     3    91    90    1
     4   102   105    1
     5   102   103    1
     6    47    46    1
     7    47    48    1
     8   105   106    1
     9    46    43    1
    10    98    96   ar
    11    98    99   ar
    12   103   104    2
    13    96    94   ar
    14    90    89    1
    15    90    93    1
    16   100    99    1
    17    99    97   ar
    18    48    42    1
    19   106   107    1
    20    43    42    1
    21    43    44    1
    22    94    93    1
    23    94    95   ar
    24   115   116    1
    25   109   110    1
    26    42    35   am
    27    52    51    2
    28   107   108    1
    29    97    95   ar
    30   121   123   ar
    31   121   120   ar
    32   116   119    1
    33   116   117    1
    34   119   120    1
    35    49    44   am
    36    49    50    1
    37    44    45    2
    38   123   125   ar
    39    84    83    2
    40   120   122   ar
    41    53    55    1
    42    53    50    1
    43    53    54    1
    44    35    36    2
    45    35    34    1
    46    51    50    1
    47    51    56   am
    48   110   111    1
    49   110   113    1
    50   111   112    2
    51    34    37    1
    52    34    33    1
    53   117   118    2
    54   117   127   am
    55    83    82    1
    56   113   114    1
    57   125   126    1
    58   125   124   ar
    59    25    24    2
    60    57    56    1
    61    57    58    1
    62    57    60    1
    63    37    38    1
    64   122   124   ar
    65   127   128    1
    66    58    59    2
    67    62    61   ar
    68   130   129    2
    69    61    60    1
    70    61    63   ar
    71    24    23    1
    72    38    39    1
    73    82    85    1
    74    82    81    1
    75    28    30   ar
    76    28    27   ar
    77    85    86    1
    78    41    39   am
    79    26    23    1
    80    26    27    1
    81    23    22    1
    82   128   129    1
    83   128   131    1
    84    30    32   ar
    85   134   132   am
    86    39    40    2
    87    27    29   ar
    88    64    65    1
    89    87    86    1
    90   132   131    1
    91   132   133    2
    92    18    17    2
    93    86    88    1
    94    22    17   am
    95    32    31   ar
    96    17    16    1
    97    29    31   ar
    98    79    78    1
    99    65    68    1
   100    65    66    1
   101    68    69    1
   102    73    66   am
   103    73    74    1
   104    77    78    1
   105    77    74    1
   106    78    80    1
   107    66    67    2
   108    75    74    1
   109    75    76    2
   110     4     3    2
   111    16    19    1
   112    16    15    1
   113   140   142    1
   114   140   139    1
   115   141   139    1
   116   138   137    2
   117    72    71    1
   118    70    69    1
   119    70    71    1
   120    19    20    1
   121   137   136    1
   122     3    15   am
   123     3     2    1
   124    15    21    1
   125   139   136    1
   126     2     1    1
   127     2     5    1
   128    21    20    1
   129   136   135    1
   130     5     6    1
   131    11     8   ar
   132    11    13   ar
   133     6     8   ar
   134     6     7   ar
   135     8    10   ar
   136    13    14   ar
   137     7     9   ar
   138    10     9   ar
   139    10    12   ar
   140    14    12   ar
