@<TRIPOS>MOLECULE
tmp/6cksA00.pdb
 150 147 0 0 0
SMALL
GASTEIGER

@<TRIPOS>ATOM
      1  N          9.5440    3.6060    6.7140 N.3    39  TRP39      -0.1228
      2  CA        10.9630    3.4240    7.1080 C.3    39  TRP39       0.1722
      3  C         11.7050    4.6850    7.5230 C.2    39  TRP39       0.2437
      4  O         12.3800    4.6760    8.5670 O.2    39  TRP39      -0.2733
      5  CB        11.7930    2.7150    6.0430 C.3    39  TRP39       0.0563
      6  CG        13.2550    2.5560    6.4680 C.ar   39  TRP39       0.0003
      7  CD1       13.6780    1.8850    7.5780 C.ar   39  TRP39       0.0946
      8  CD2       14.4140    3.0090    5.8240 C.ar   39  TRP39       0.0152
      9  NE1       15.0040    1.8910    7.6620 N.ar   39  TRP39      -0.2442
     10  CE2       15.5050    2.5780    6.6030 C.ar   39  TRP39       0.0810
     11  CE3       14.6540    3.7330    4.6690 C.ar   39  TRP39       0.0012
     12  CZ2       16.8110    2.8350    6.2680 C.ar   39  TRP39       0.0191
     13  CZ3       15.9560    3.9930    4.3120 C.ar   39  TRP39       0.0001
     14  CH2       17.0310    3.5460    5.1210 C.ar   39  TRP39       0.0015
     15  N         11.5520    5.8030    6.7850 N.am   40  PRO40      -0.2718
     16  CA        12.3290    6.9450    7.2400 C.3    40  PRO40       0.1535
     17  C         11.8970    7.4860    8.6320 C.2    40  PRO40       0.2598
     18  O         12.6000    8.2970    9.1540 O.2    40  PRO40      -0.2715
     19  CB        12.0780    7.9880    6.1820 C.3    40  PRO40       0.0310
     20  CG        11.7550    7.1970    4.9460 C.3    40  PRO40       0.0237
     21  CD        11.0290    5.9740    5.4220 C.3    40  PRO40       0.0939
     22  N         10.7340    7.0640    9.1550 N.am   41  PHE41      -0.1974
     23  CA        10.1990    7.4610   10.4710 C.3    41  PHE41       0.1639
     24  C         10.2900    6.4040   11.5560 C.2    41  PHE41       0.2290
     25  O          9.7940    6.6300   12.6900 O.2    41  PHE41      -0.2864
     26  CB         8.7110    7.8690   10.2310 C.3    41  PHE41       0.0560
     27  CG         8.5940    8.9080    9.1710 C.ar   41  PHE41      -0.0200
     28  CD1        8.7600   10.2330    9.4850 C.ar   41  PHE41      -0.0042
     29  CD2        8.3620    8.5620    7.8130 C.ar   41  PHE41      -0.0042
     30  CE1        8.6740   11.2320    8.5240 C.ar   41  PHE41      -0.0003
     31  CE2        8.2530    9.5580    6.8610 C.ar   41  PHE41      -0.0003
     32  CZ         8.4450   10.8870    7.2050 C.ar   41  PHE41      -0.0000
     33  N         13.0030    5.0650   13.0610 N.3    43  GLN43      -0.1231
     34  CA        14.1830    5.2280   13.9050 C.3    43  GLN43       0.1683
     35  C         14.5490    6.7010   13.8470 C.2    43  GLN43       0.2434
     36  O         14.1490    7.4350   12.9250 O.2    43  GLN43      -0.2733
     37  CB        15.3420    4.3670   13.3980 C.3    43  GLN43       0.0380
     38  CG        14.9220    3.1270   12.6010 C.3    43  GLN43       0.0905
     39  CD        14.6170    3.3230   11.0610 C.2    43  GLN43       0.2608
     40  OE1       14.4510    2.3370   10.3540 O.2    43  GLN43      -0.2717
     41  NE2       14.5430    4.5640   10.5540 N.am   43  GLN43      -0.0878
     42  N         15.3130    7.1600   14.8270 N.am   44  PRO44      -0.2718
     43  CA        15.8130    8.4900   14.7460 C.3    44  PRO44       0.1535
     44  C         16.5300    8.7940   13.4470 C.2    44  PRO44       0.2598
     45  O         17.1600    7.8580   12.8470 O.2    44  PRO44      -0.2715
     46  CB        16.7780    8.5760   15.9100 C.3    44  PRO44       0.0310
     47  CG        16.3840    7.5170   16.8660 C.3    44  PRO44       0.0237
     48  CD        15.7270    6.4570   16.0570 C.3    44  PRO44       0.0939
     49  N         16.4230   10.0520   12.9730 N.am   45  VAL45      -0.1964
     50  CA        17.2220   10.4780   11.8360 C.3    45  VAL45       0.1727
     51  C         18.7160   10.3090   12.1560 C.2    45  VAL45       0.2616
     52  O         19.2510   10.8710   13.1380 O.2    45  VAL45      -0.2715
     53  CB        16.9280   11.9000   11.3500 C.3    45  VAL45       0.0290
     54  CG1       17.8860   12.2680   10.2200 C.3    45  VAL45       0.0023
     55  CG2       15.4360   12.0160   11.0250 C.3    45  VAL45       0.0023
     56  N         19.3990    9.5240   11.3220 N.am   46  ASP46      -0.1971
     57  CA        20.8240    9.2340   11.5460 C.3    46  ASP46       0.1709
     58  C         21.5990   10.2640   10.7300 C.2    46  ASP46       0.2293
     59  O         21.8630   10.1030    9.5580 O.2    46  ASP46      -0.2864
     60  CB        21.1380    7.7730   11.1570 C.3    46  ASP46       0.1436
     61  CG        22.5470    7.3640   11.5000 C.2    46  ASP46       0.3671
     62  OD1       23.4150    8.2410   11.6200 O.co2  46  ASP46      -0.2456
     63  OD2       22.8110    6.1290   11.6560 O.co2  46  ASP46      -0.2456
     64  N         24.9940    9.0270    9.2990 N.3    49  LYS49      -0.1231
     65  CA        24.8940    8.1480    8.1720 C.3    49  LYS49       0.1693
     66  C         24.5280    8.9630    6.9450 C.2    49  LYS49       0.2591
     67  O         25.0560    8.7250    5.8530 O.2    49  LYS49      -0.2718
     68  CB        23.8080    7.1210    8.4070 C.3    49  LYS49       0.0285
     69  CG        23.7820    5.9680    7.4200 C.3    49  LYS49       0.0035
     70  CD        22.5270    5.1240    7.6440 C.3    49  LYS49       0.0206
     71  CE        22.3890    4.0540    6.5750 C.3    49  LYS49       0.1093
     72  NZ        20.9960    3.5220    6.4680 N.3    49  LYS49      -0.1314
     73  N         23.5920    9.8960    7.1040 N.am   50  LEU50      -0.1980
     74  CA        23.1010   10.6720    6.0100 C.3    50  LEU50       0.1596
     75  C         23.9350   11.9060    5.6550 C.2    50  LEU50       0.2287
     76  O         23.6350   12.5190    4.6490 O.2    50  LEU50      -0.2864
     77  CB        21.6760   11.0920    6.3020 C.3    50  LEU50       0.0297
     78  CG        20.6520    9.9980    6.5140 C.3    50  LEU50       0.0022
     79  CD1       19.4020   10.6490    6.9740 C.3    50  LEU50       0.0001
     80  CD2       20.3860    9.2490    5.2380 C.3    50  LEU50       0.0001
     81  N         24.1930   14.8940    7.3540 N.3    52  LEU52      -0.1245
     82  CA        23.3210   16.0530    7.4870 C.3    52  LEU52       0.1561
     83  C         23.6780   16.7530    8.7680 C.2    52  LEU52       0.2260
     84  O         22.9020   16.7080    9.7000 O.2    52  LEU52      -0.2867
     85  CB        21.8510   15.6250    7.6010 C.3    52  LEU52       0.0270
     86  CG        21.2020   14.7910    6.5280 C.3    52  LEU52       0.0019
     87  CD1       19.7520   14.6440    6.8870 C.3    52  LEU52       0.0001
     88  CD2       21.3950   15.5060    5.1950 C.3    52  LEU52       0.0001
     89  N         20.9720   18.8740   10.6180 N.3    55  TYR55      -0.1241
     90  CA        19.6930   18.3190   11.0700 C.3    55  TYR55       0.1605
     91  C         19.4400   18.6660   12.5430 C.2    55  TYR55       0.2264
     92  O         18.3920   19.2370   12.8810 O.2    55  TYR55      -0.2867
     93  CB        19.5410   16.7960   10.8390 C.3    55  TYR55       0.0534
     94  CG        18.1590   16.3710   11.1850 C.ar   55  TYR55      -0.0201
     95  CD1       17.1270   16.5300   10.2730 C.ar   55  TYR55      -0.0009
     96  CD2       17.8230   15.9210   12.4560 C.ar   55  TYR55      -0.0009
     97  CE1       15.7850   16.1650   10.5850 C.ar   55  TYR55       0.0417
     98  CE2       16.5180   15.5250   12.7670 C.ar   55  TYR55       0.0417
     99  CZ        15.4850   15.7190   11.8600 C.ar   55  TYR55       0.1957
    100  OH        14.1860   15.3290   12.1900 O.3    55  TYR55      -0.2866
    101  N          6.9920   14.6390   15.4530 N.3    90  MET90      -0.1245
    102  CA         7.6860   13.8960   14.4180 C.3    90  MET90       0.1570
    103  C          7.3230   14.5050   13.0570 C.2    90  MET90       0.2261
    104  O          8.2100   14.8110   12.2320 O.2    90  MET90      -0.2867
    105  CB         7.3540   12.4000   14.5050 C.3    90  MET90       0.0387
    106  CG         7.8970   11.6400   13.3590 C.3    90  MET90       0.0595
    107  SD         7.4750    9.8770   13.3420 S.3    90  MET90      -0.1393
    108  CE         5.8250    9.9600   12.6350 C.3    90  MET90       0.0692
    109  N          9.6770   17.0840   10.3120 N.3    94  CYS94      -0.1235
    110  CA         9.8350   16.8000    8.8810 C.3    94  CYS94       0.1677
    111  C          9.4750   18.0570    8.0260 C.2    94  CYS94       0.2270
    112  O         10.1960   18.4550    7.1110 O.2    94  CYS94      -0.2867
    113  CB         9.0380   15.5900    8.5390 C.3    94  CYS94       0.0956
    114  SG         9.3250   15.0230    6.8310 S.3    94  CYS94      -0.0801
    115  N         12.3000   20.8880    8.6030 N.3    97  TYR97      -0.1227
    116  CA        13.6120   20.6590    8.0480 C.3    97  TYR97       0.1736
    117  C         13.5750   20.6440    6.4900 C.2    97  TYR97       0.2595
    118  O         14.5200   21.0790    5.8350 O.2    97  TYR97      -0.2718
    119  CB        14.2190   19.3200    8.5960 C.3    97  TYR97       0.0548
    120  CG        15.5970   19.0970    8.0770 C.ar   97  TYR97      -0.0200
    121  CD1       16.6530   19.7760    8.6120 C.ar   97  TYR97      -0.0009
    122  CD2       15.8270   18.2740    7.0000 C.ar   97  TYR97      -0.0009
    123  CE1       17.9330   19.6430    8.0780 C.ar   97  TYR97       0.0417
    124  CE2       17.1150   18.0830    6.4880 C.ar   97  TYR97       0.0417
    125  CZ        18.1530   18.7830    7.0070 C.ar   97  TYR97       0.1957
    126  OH        19.4720   18.6520    6.5020 O.3    97  TYR97      -0.2866
    127  N         12.5290   20.0780    5.9200 N.am   98  ASN98      -0.1974
    128  CA        12.4510   19.7930    4.4490 C.3    98  ASN98       0.1688
    129  C         11.5280   20.8440    3.7880 C.2    98  ASN98       0.2292
    130  O         10.9780   21.6850    4.4690 O.2    98  ASN98      -0.2864
    131  CB        11.9130   18.3870    4.2870 C.3    98  ASN98       0.1181
    132  CG        12.7970   17.3470    4.9490 C.2    98  ASN98       0.2629
    133  OD1       13.9250   17.1160    4.4950 O.2    98  ASN98      -0.2716
    134  ND2       12.3110   16.7510    6.0610 N.am   98  ASN98      -0.0877
    135  N         10.2000   13.1500    0.9320 N.3   104  ILE104     -0.1245
    136  CA        10.0340   12.8710    2.4030 C.3   104  ILE104      0.1561
    137  C          8.8700   13.6520    3.0140 C.2   104  ILE104      0.2260
    138  O          8.1560   13.1450    3.8770 O.2   104  ILE104     -0.2867
    139  CB        11.3520   13.1490    3.1420 C.3   104  ILE104      0.0252
    140  CG1       11.3550   12.5790    4.5700 C.3   104  ILE104      0.0019
    141  CG2       11.7360   14.6490    3.0990 C.3   104  ILE104      0.0019
    142  CD1       11.2930   11.0950    4.6470 C.3   104  ILE104      0.0001
    143  N          5.7200   11.8830    1.8510 N.3   107  MET107     -0.1245
    144  CA         5.6200   10.7030    2.7070 C.3   107  MET107      0.1570
    145  C          5.0250   11.0140    4.0650 C.2   107  MET107      0.2261
    146  O          4.0000   10.4030    4.4970 O.2   107  MET107     -0.2867
    147  CB         6.9900   10.0650    2.8110 C.3   107  MET107      0.0387
    148  CG         7.4630    9.3940    1.5040 C.3   107  MET107      0.0595
    149  SD         9.1780    8.8220    1.6300 S.3   107  MET107     -0.1393
    150  CE         8.8110    7.3940    2.5000 C.3   107  MET107      0.0692
@<TRIPOS>BOND
     1   135   136    1
     2   148   149    1
     3   148   147    1
     4   149   150    1
     5   143   144    1
     6   136   137    1
     7   136   139    1
     8   144   147    1
     9   144   145    1
    10   137   138    2
    11   141   139    1
    12   139   140    1
    13   129   128    1
    14   129   130    2
    15   145   146    2
    16   131   128    1
    17   131   132    1
    18    13    11   ar
    19    13    14   ar
    20   128   127    1
    21   133   132    2
    22   140   142    1
    23    76    75    2
    24    11     8   ar
    25    20    21    1
    26    20    19    1
    27   132   134   am
    28    14    12   ar
    29    88    86    1
    30    80    78    1
    31    21    15    1
    32    75    74    1
    33     8     6   ar
    34     8    10   ar
    35   118   117    2
    36    67    66    2
    37   127   117   am
    38    74    77    1
    39    74    73    1
    40     5     6    1
    41     5     2    1
    42    19    16    1
    43    12    10   ar
    44    77    78    1
    45     6     7   ar
    46    72    71    1
    47   124   122   ar
    48   124   125   ar
    49   117   116    1
    50   126   125    1
    51    78    79    1
    52    86    87    1
    53    86    85    1
    54    71    70    1
    55    10     9   ar
    56     1     2    1
    57    15    16    1
    58    15     3   am
    59   114   113    1
    60    31    32   ar
    61    31    29   ar
    62    66    73   am
    63    66    65    1
    64   122   120   ar
    65   125   123   ar
    66     2     3    1
    67   112   111    2
    68    32    30   ar
    69    16    17    1
    70    81    82    1
    71    69    70    1
    72    69    68    1
    73    82    85    1
    74    82    83    1
    75     3     4    2
    76     7     9   ar
    77    29    27   ar
    78   111   110    1
    79   116   119    1
    80   116   115    1
    81   120   119    1
    82   120   121   ar
    83   123   121   ar
    84    65    68    1
    85    65    64    1
    86    30    28   ar
    87   113   110    1
    88    17    18    2
    89    17    22   am
    90    83    84    2
    91   110   109    1
    92    22    23    1
    93    27    28   ar
    94    27    26    1
    95    59    58    2
    96    54    53    1
    97    26    23    1
    98    95    97   ar
    99    95    94   ar
   100    40    39    2
   101    23    24    1
   102    41    39   am
   103    97    99   ar
   104    89    90    1
   105    58    57    1
   106    93    90    1
   107    93    94    1
   108    55    53    1
   109    39    38    1
   110    90    91    1
   111    60    61    1
   112    60    57    1
   113    94    96   ar
   114    56    57    1
   115    56    51   am
   116    53    50    1
   117    61    62   ar
   118    61    63   ar
   119    24    25    2
   120    50    51    1
   121    50    49    1
   122    99   100    1
   123    99    98   ar
   124    51    52    2
   125   104   103    2
   126    96    98   ar
   127    91    92    2
   128    38    37    1
   129   108   107    1
   130    45    44    2
   131    36    35    2
   132    49    44   am
   133   103   102    1
   134    33    34    1
   135   107   106    1
   136   106   105    1
   137    37    34    1
   138    44    43    1
   139    35    34    1
   140    35    42   am
   141   102   105    1
   142   102   101    1
   143    43    42    1
   144    43    46    1
   145    42    48    1
   146    46    47    1
   147    48    47    1
