@<TRIPOS>MOLECULE
tmp/6ckwA00.pdb
 161 157 0 0 0
SMALL
GASTEIGER

@<TRIPOS>ATOM
      1  N         23.4920  -11.1250   41.1260 N.3     6  PRO6       -0.2102
      2  CA        22.9090  -10.7350   39.8290 C.3     6  PRO6        0.1504
      3  C         22.4970  -11.9240   38.9580 C.2     6  PRO6        0.2576
      4  O         23.1470  -12.9630   38.9600 O.2     6  PRO6       -0.2718
      5  CB        24.0530   -9.9620   39.1670 C.3     6  PRO6        0.0282
      6  CG        25.3190  -10.6520   39.6900 C.3     6  PRO6        0.0208
      7  CD        24.9580  -11.3130   41.0170 C.3     6  PRO6        0.0893
      8  N         21.4490  -11.7370   38.1770 N.am    7  GLY7       -0.1943
      9  CA        20.9640  -12.7930   37.2980 C.3     7  GLY7        0.2014
     10  C         19.8000  -12.3300   36.4580 C.2     7  GLY7        0.2639
     11  O         19.2930  -11.2310   36.6770 O.2     7  GLY7       -0.2714
     12  N         19.3490  -13.1750   35.5160 N.am    8  THR8       -0.1950
     13  CA        18.1740  -12.8630   34.6700 C.3     8  THR8        0.1897
     14  C         16.8840  -13.0490   35.4620 C.2     8  THR8        0.2313
     15  O         15.9510  -12.2670   35.2910 O.2     8  THR8       -0.2863
     16  CB        18.2410  -13.6740   33.3620 C.3     8  THR8        0.1794
     17  OG1       19.4420  -13.2830   32.6950 O.3     8  THR8       -0.2208
     18  CG2       17.0270  -13.4460   32.4360 C.3     8  THR8        0.0378
     19  N         18.8550   -8.5440   35.7890 N.3    35  ALA35      -0.1231
     20  CA        19.3620   -7.9950   34.5400 C.3    35  ALA35       0.1694
     21  C         18.2600   -7.9380   33.5120 C.2    35  ALA35       0.2592
     22  O         17.5070   -8.9060   33.3910 O.2    35  ALA35      -0.2718
     23  CB        20.5030   -8.8540   34.0220 C.3    35  ALA35       0.0304
     24  N         18.1660   -6.8200   32.7540 N.am   36  ALA36      -0.1966
     25  CA        17.1590   -6.6870   31.6750 C.3    36  ALA36       0.1728
     26  C         17.2990   -7.9130   30.7360 C.2    36  ALA36       0.2617
     27  O         16.2970   -8.5390   30.3720 O.2    36  ALA36      -0.2715
     28  CB        17.3760   -5.3890   30.9130 C.3    36  ALA36       0.0334
     29  N         18.5650   -8.3130   30.4550 N.am   37  SER37      -0.1936
     30  CA        18.9460   -9.5340   29.7280 C.3    37  SER37       0.2040
     31  C         18.1760   -9.7090   28.3970 C.2    37  SER37       0.2485
     32  O         17.5620  -10.7580   28.1830 O.2    37  SER37      -0.2729
     33  CB        18.7660  -10.7280   30.6730 C.3    37  SER37       0.2129
     34  OG        19.3420  -11.9410   30.2270 O.3    37  SER37      -0.2179
     35  N         18.1650   -8.6960   27.4880 N.am   38  PRO38      -0.2715
     36  CA        17.4100   -8.8620   26.2270 C.3    38  PRO38       0.1536
     37  C         17.9020   -9.9810   25.2940 C.2    38  PRO38       0.2599
     38  O         17.0820  -10.4920   24.5350 O.2    38  PRO38      -0.2715
     39  CB        17.4820   -7.4830   25.5680 C.3    38  PRO38       0.0310
     40  CG        18.7250   -6.8690   26.1120 C.3    38  PRO38       0.0237
     41  CD        18.8370   -7.3790   27.5380 C.3    38  PRO38       0.0939
     42  N         19.2000  -10.3670   25.3510 N.am   39  SER39      -0.1936
     43  CA        19.7450  -11.4380   24.5020 C.3    39  SER39       0.2055
     44  C         19.1260  -12.8110   24.8140 C.2    39  SER39       0.2642
     45  O         19.1690  -13.7040   23.9670 O.2    39  SER39      -0.2714
     46  CB        21.2700  -11.4830   24.5700 C.3    39  SER39       0.2130
     47  OG        21.7460  -12.1560   25.7240 O.3    39  SER39      -0.2179
     48  N         18.5240  -12.9630   26.0160 N.am   40  LYS40      -0.1977
     49  CA        17.8440  -14.1890   26.4320 C.3    40  LYS40       0.1596
     50  C         16.3650  -14.0890   26.0450 C.2    40  LYS40       0.2287
     51  O         15.6350  -15.0610   26.2380 O.2    40  LYS40      -0.2864
     52  CB        18.0150  -14.4360   27.9500 C.3    40  LYS40       0.0298
     53  CG        19.4390  -14.8420   28.3420 C.3    40  LYS40       0.0038
     54  CD        19.5480  -15.2740   29.7920 C.3    40  LYS40       0.0206
     55  CE        20.1740  -16.6400   29.9280 C.3    40  LYS40       0.1093
     56  NZ        20.0180  -17.1900   31.3020 N.3    40  LYS40      -0.1314
     57  N         18.8320   -3.8470   36.4610 N.3    68  PHE68      -0.1227
     58  CA        20.0240   -3.2180   35.8530 C.3    68  PHE68       0.1736
     59  C         20.2620   -3.6630   34.4070 C.2    68  PHE68       0.2596
     60  O         19.8580   -4.7530   34.0290 O.2    68  PHE68      -0.2718
     61  CB        21.2950   -3.4820   36.6980 C.3    68  PHE68       0.0547
     62  CG        21.9190   -4.8680   36.5930 C.ar   68  PHE68      -0.0202
     63  CD1       21.3320   -5.9620   37.2160 C.ar   68  PHE68      -0.0042
     64  CD2       23.1320   -5.0540   35.9380 C.ar   68  PHE68      -0.0042
     65  CE1       21.9300   -7.2290   37.1460 C.ar   68  PHE68      -0.0003
     66  CE2       23.7260   -6.3160   35.8630 C.ar   68  PHE68      -0.0003
     67  CZ        23.1320   -7.3910   36.4800 C.ar   68  PHE68      -0.0000
     68  N         20.9440   -2.8270   33.6100 N.am   69  SER69      -0.1938
     69  CA        21.3430   -3.2150   32.2470 C.3    69  SER69       0.2055
     70  C         22.8850   -3.0220   32.1270 C.2    69  SER69       0.2643
     71  O         23.4680   -3.3120   31.0870 O.2    69  SER69      -0.2714
     72  CB        20.5900   -2.3810   31.2020 C.3    69  SER69       0.2130
     73  OG        20.8610   -0.9960   31.3960 O.3    69  SER69      -0.2179
     74  N         23.5320   -2.5050   33.2000 N.am   70  ASP70      -0.1957
     75  CA        24.9750   -2.2090   33.2440 C.3    70  ASP70       0.1840
     76  C         25.8330   -3.4640   33.2290 C.2    70  ASP70       0.2622
     77  O         25.3440   -4.5460   33.4920 O.2    70  ASP70      -0.2715
     78  CB        25.3140   -1.4680   34.5640 C.3    70  ASP70       0.1450
     79  CG        24.8320   -0.0400   34.6260 C.2    70  ASP70       0.3671
     80  OD1       24.2350    0.4350   33.6270 O.co2  70  ASP70      -0.2456
     81  OD2       25.0600    0.6060   35.6510 O.co2  70  ASP70      -0.2456
     82  N         27.1430   -3.2880   33.0330 N.am   71  LEU71      -0.1963
     83  CA        28.1350   -4.3650   33.1960 C.3    71  LEU71       0.1728
     84  C         27.9950   -4.7570   34.6830 C.2    71  LEU71       0.2616
     85  O         27.9540   -3.8650   35.5500 O.2    71  LEU71      -0.2715
     86  CB        29.5210   -3.7430   32.9240 C.3    71  LEU71       0.0311
     87  CG        30.7530   -4.6390   32.8860 C.3    71  LEU71       0.0022
     88  CD1       30.7380   -5.5950   31.6280 C.3    71  LEU71       0.0001
     89  CD2       32.0370   -3.7700   32.9500 C.3    71  LEU71       0.0001
     90  N         27.8260   -6.0510   34.9810 N.am   72  MET72      -0.1977
     91  CA        27.5580   -6.4650   36.3680 C.3    72  MET72       0.1605
     92  C         28.6650   -6.0380   37.3750 C.2    72  MET72       0.2287
     93  O         28.3400   -5.8020   38.5360 O.2    72  MET72      -0.2864
     94  CB        27.2300   -7.9700   36.4760 C.3    72  MET72       0.0413
     95  CG        28.4240   -8.8930   36.2870 C.3    72  MET72       0.0598
     96  SD        27.9270  -10.6300   36.4520 S.3    72  MET72      -0.1393
     97  CE        27.2910  -10.9010   34.7840 C.3    72  MET72       0.0692
     98  N         27.0110  -16.0460   43.0400 N.3    86  ARG86      -0.1245
     99  CA        26.4150  -16.8220   41.9540 C.3    86  ARG86       0.1563
    100  C         26.1560  -18.2360   42.4910 C.2    86  ARG86       0.2260
    101  O         26.9200  -18.7110   43.3310 O.2    86  ARG86      -0.2867
    102  CB        27.3400  -16.8460   40.7160 C.3    86  ARG86       0.0307
    103  CG        27.5330  -15.4610   40.0060 C.3    86  ARG86       0.0489
    104  CD        26.3360  -15.0110   39.1730 C.3    86  ARG86       0.2205
    105  NE        26.2060  -15.8330   37.9680 N.pl3  86  ARG86      -0.0865
    106  CZ        25.3170  -15.6440   37.0050 C.cat  86  ARG86       0.5346
    107  NH1       24.4380  -14.6470   37.0860 N.pl3  86  ARG86       0.1354
    108  NH2       25.3030  -16.4410   35.9450 N.pl3  86  ARG86       0.1354
    109  N         31.0340  -21.9480   32.6980 N.3    96  TYR96      -0.1241
    110  CA        30.5450  -20.6020   32.4010 C.3    96  TYR96       0.1605
    111  C         30.9360  -19.6630   33.5610 C.2    96  TYR96       0.2264
    112  O         31.4650  -18.5870   33.3040 O.2    96  TYR96      -0.2867
    113  CB        29.0160  -20.6500   32.2500 C.3    96  TYR96       0.0534
    114  CG        28.3460  -19.3170   32.0360 C.ar   96  TYR96      -0.0201
    115  CD1       27.8910  -18.5640   33.1140 C.ar   96  TYR96      -0.0009
    116  CD2       28.0660  -18.8520   30.7490 C.ar   96  TYR96      -0.0009
    117  CE1       27.2250  -17.3530   32.9240 C.ar   96  TYR96       0.0417
    118  CE2       27.3750  -17.6500   30.5460 C.ar   96  TYR96       0.0417
    119  CZ        26.9720  -16.9020   31.6410 C.ar   96  TYR96       0.1957
    120  OH        26.3340  -15.7060   31.4890 O.3    96  TYR96      -0.2866
    121  N         34.6060  -18.5920   33.6470 N.3    99  GLN99      -0.1231
    122  CA        34.8830  -17.5330   32.6670 C.3    99  GLN99       0.1698
    123  C         34.3900  -16.1810   33.1670 C.2    99  GLN99       0.2592
    124  O         35.1030  -15.1870   33.0570 O.2    99  GLN99      -0.2718
    125  CB        34.2470  -17.8550   31.3160 C.3    99  GLN99       0.0381
    126  CG        34.9190  -19.0400   30.6080 C.3    99  GLN99       0.0905
    127  CD        34.3750  -19.2330   29.2120 C.2    99  GLN99       0.2608
    128  OE1       33.3060  -18.7340   28.8500 O.2    99  GLN99      -0.2717
    129  NE2       35.1170  -19.9440   28.3940 N.am   99  GLN99      -0.0878
    130  N         33.1750  -16.1560   33.7290 N.am  100  LEU100     -0.1980
    131  CA        32.5490  -14.9560   34.2630 C.3   100  LEU100      0.1596
    132  C         33.3520  -14.3730   35.4200 C.2   100  LEU100      0.2287
    133  O         33.6230  -13.1640   35.4180 O.2   100  LEU100     -0.2864
    134  CB        31.0800  -15.2390   34.6920 C.3   100  LEU100      0.0297
    135  CG        30.2460  -14.0140   35.0190 C.3   100  LEU100      0.0022
    136  CD1       30.0750  -13.1240   33.7830 C.3   100  LEU100      0.0001
    137  CD2       28.8870  -14.4000   35.5990 C.3   100  LEU100      0.0001
    138  N         36.7300  -12.9120   34.2570 N.3   103  MET103     -0.1230
    139  CA        36.5170  -11.6400   33.5610 C.3   103  MET103      0.1702
    140  C         36.1650  -10.5570   34.5800 C.2   103  MET103      0.2592
    141  O         36.6700   -9.4390   34.4800 O.2   103  MET103     -0.2718
    142  CB        35.4040  -11.7490   32.5050 C.3   103  MET103      0.0401
    143  CG        35.2660  -10.4850   31.6430 C.3   103  MET103      0.0596
    144  SD        36.7590   -9.8980   30.7920 S.3   103  MET103     -0.1393
    145  CE        36.8720  -11.1390   29.4560 C.3   103  MET103      0.0692
    146  N         35.2840  -10.8730   35.5420 N.am  104  ASN104     -0.1974
    147  CA        34.8910   -9.8960   36.5570 C.3   104  ASN104      0.1688
    148  C         36.0920   -9.4820   37.3920 C.2   104  ASN104      0.2292
    149  O         36.1590   -8.3380   37.8430 O.2   104  ASN104     -0.2864
    150  CB        33.7570  -10.4330   37.4530 C.3   104  ASN104      0.1181
    151  CG        32.3990  -10.2540   36.8320 C.2   104  ASN104      0.2629
    152  OD1       32.1930   -9.3760   35.9960 O.2   104  ASN104     -0.2716
    153  ND2       31.4460  -11.0850   37.2060 N.am  104  ASN104     -0.0877
    154  N         38.1000   -6.9630   35.3840 N.3   107  LEU107     -0.1245
    155  CA        37.4090   -5.6600   35.3850 C.3   107  LEU107      0.1561
    156  C         37.3920   -4.9840   36.7720 C.2   107  LEU107      0.2260
    157  O         37.4260   -3.7680   36.8340 O.2   107  LEU107     -0.2867
    158  CB        35.9600   -5.8210   34.8780 C.3   107  LEU107      0.0270
    159  CG        35.7630   -6.3420   33.4330 C.3   107  LEU107      0.0019
    160  CD1       34.3510   -6.8930   33.2490 C.3   107  LEU107      0.0001
    161  CD2       36.0660   -5.2560   32.3940 C.3   107  LEU107      0.0001
@<TRIPOS>BOND
     1    45    44    2
     2    43    46    1
     3    43    44    1
     4    43    42    1
     5    38    37    2
     6    46    47    1
     7    44    48   am
     8    37    42   am
     9    37    36    1
    10    39    40    1
    11    39    36    1
    12    48    49    1
    13    50    51    2
    14    50    49    1
    15    40    41    1
    16    36    35    1
    17    49    52    1
    18    35    41    1
    19    35    31   am
    20    52    53    1
    21    32    31    2
    22    53    54    1
    23   129   127   am
    24    31    30    1
    25   128   127    2
    26   127   126    1
    27   145   144    1
    28    30    29    1
    29    30    33    1
    30    54    55    1
    31    55    56    1
    32    34    33    1
    33    27    26    2
    34    29    26   am
    35   118   116   ar
    36   118   119   ar
    37   126   125    1
    38    26    25    1
    39   116   114   ar
    40   144   143    1
    41    28    25    1
    42    71    70    2
    43    72    73    1
    44    72    69    1
    45   125   122    1
    46   120   119    1
    47    88    87    1
    48   119   117   ar
    49   143   142    1
    50    25    24    1
    51   114   113    1
    52   114   115   ar
    53    70    69    1
    54    70    74   am
    55    69    68    1
    56   113   110    1
    57   161   159    1
    58   110   109    1
    59   110   111    1
    60    18    16    1
    61   142   139    1
    62   122   123    1
    63   122   121    1
    64    17    16    1
    65    24    21   am
    66    87    86    1
    67    87    89    1
    68   117   115   ar
    69    86    83    1
    70    82    83    1
    71    82    76   am
    72   124   123    2
    73   123   130   am
    74    83    84    1
    75    74    75    1
    76    76    75    1
    77    76    77    2
    78    75    78    1
    79   160   159    1
    80   112   111    2
    81    16    13    1
    82    22    21    2
    83   159   158    1
    84    21    20    1
    85   139   138    1
    86   139   140    1
    87    68    59   am
    88    80    79   ar
    89   130   131    1
    90   136   135    1
    91    23    20    1
    92    60    59    2
    93   131   134    1
    94   131   132    1
    95    59    58    1
    96   141   140    2
    97    20    19    1
    98    78    79    1
    99   140   146   am
   100    79    81   ar
   101    13    14    1
   102    13    12    1
   103    84    90   am
   104    84    85    2
   105   134   135    1
   106    97    96    1
   107   158   155    1
   108    90    91    1
   109   135   137    1
   110    15    14    2
   111   154   155    1
   112   155   156    1
   113   133   132    2
   114    12    10   am
   115   146   147    1
   116    58    57    1
   117    58    61    1
   118    66    64   ar
   119    66    67   ar
   120    64    62   ar
   121   108   106    1
   122   152   151    2
   123    95    96    1
   124    95    94    1
   125    91    94    1
   126    91    92    1
   127    10    11    2
   128    10     9    1
   129    67    65   ar
   130   147   148    1
   131   147   150    1
   132    62    61    1
   133    62    63   ar
   134   156   157    2
   135   151   153   am
   136   151   150    1
   137   106   107    1
   138   106   105    2
   139    65    63   ar
   140     9     8    1
   141    92    93    2
   142   148   149    2
   143   105   104    1
   144     8     3   am
   145     3     4    2
   146     3     2    1
   147     5     6    1
   148     5     2    1
   149   104   103    1
   150     6     7    1
   151     2     1    1
   152   103   102    1
   153   102    99    1
   154     7     1    1
   155    99   100    1
   156    99    98    1
   157   100   101    2
