@<TRIPOS>MOLECULE
tmp/6ckxA00.pdb
 148 142 0 0 0
SMALL
GASTEIGER

@<TRIPOS>ATOM
      1  N          6.1800  -30.2140   45.6540 N.3    11  ILE11      -0.1231
      2  CA         7.5390  -30.1930   45.0900 C.3    11  ILE11       0.1692
      3  C          7.5730  -29.3080   43.8450 C.2    11  ILE11       0.2592
      4  O          6.7780  -29.5200   42.9260 O.2    11  ILE11      -0.2718
      5  CB         7.9950  -31.6400   44.7380 C.3    11  ILE11       0.0266
      6  CG1        8.2200  -32.4520   46.0260 C.3    11  ILE11       0.0019
      7  CG2        9.2590  -31.6590   43.8810 C.3    11  ILE11       0.0020
      8  CD1        8.0550  -33.9560   45.8720 C.3    11  ILE11       0.0001
      9  N          8.4910  -28.3350   43.8070 N.am   12  ILE12      -0.1966
     10  CA         8.5680  -27.3840   42.6880 C.3    12  ILE12       0.1727
     11  C          9.9610  -27.2700   42.0760 C.2    12  ILE12       0.2617
     12  O         10.3450  -26.2120   41.5490 O.2    12  ILE12      -0.2715
     13  CB         8.0640  -25.9860   43.0840 C.3    12  ILE12       0.0290
     14  CG1        8.9460  -25.3780   44.1650 C.3    12  ILE12       0.0022
     15  CG2        6.6100  -26.0610   43.5320 C.3    12  ILE12       0.0023
     16  CD1        8.6570  -23.9130   44.4040 C.3    12  ILE12       0.0001
     17  N         10.6960  -28.3780   42.1030 N.am   13  GLY13      -0.1940
     18  CA        12.0320  -28.4300   41.5140 C.3    13  GLY13       0.2014
     19  C         12.8410  -29.6120   42.0080 C.2    13  GLY13       0.2638
     20  O         12.4860  -30.2540   42.9970 O.2    13  GLY13      -0.2714
     21  N         13.8950  -29.9270   41.2660 N.am   14  GLU14      -0.1977
     22  CA        14.9600  -30.7660   41.7660 C.3    14  GLU14       0.1602
     23  C         16.1620  -29.8440   41.8440 C.2    14  GLU14       0.2287
     24  O         16.5370  -29.2140   40.8620 O.2    14  GLU14      -0.2864
     25  CB        15.2480  -31.9420   40.8260 C.3    14  GLU14       0.0415
     26  CG        15.7220  -33.1990   41.5470 C.3    14  GLU14       0.1163
     27  CD        14.5830  -34.1330   41.8560 C.2    14  GLU14       0.3649
     28  OE1       13.8810  -34.5320   40.9020 O.co2  14  GLU14      -0.2457
     29  OE2       14.3840  -34.4680   43.0420 O.co2  14  GLU14      -0.2457
     30  N         13.3690  -28.8960   45.7520 N.3    20  VAL20      -0.1245
     31  CA        12.8510  -27.6290   46.2100 C.3    20  VAL20       0.1561
     32  C         11.3710  -27.8390   46.5060 C.2    20  VAL20       0.2260
     33  O         10.7360  -28.6650   45.8850 O.2    20  VAL20      -0.2867
     34  CB        13.0340  -26.5430   45.1680 C.3    20  VAL20       0.0252
     35  CG1       12.7150  -25.1850   45.7660 C.3    20  VAL20       0.0019
     36  CG2       14.4570  -26.5760   44.6350 C.3    20  VAL20       0.0019
     37  N          9.8690  -20.6690   48.7970 N.3    33  ALA33      -0.1245
     38  CA        10.4900  -21.8910   48.2820 C.3    33  ALA33       0.1562
     39  C         11.5340  -22.3810   49.2770 C.2    33  ALA33       0.2260
     40  O         12.2390  -21.5720   49.8880 O.2    33  ALA33      -0.2867
     41  CB        11.1440  -21.6330   46.9490 C.3    33  ALA33       0.0290
     42  N         14.7930  -24.8300   49.4280 N.3    35  LYS35      -0.1245
     43  CA        15.7800  -25.7580   48.8480 C.3    35  LYS35       0.1561
     44  C         16.3050  -26.6960   49.9150 C.2    35  LYS35       0.2260
     45  O         17.0140  -26.2600   50.8060 O.2    35  LYS35      -0.2867
     46  CB        16.9800  -25.0300   48.2850 C.3    35  LYS35       0.0271
     47  CG        16.7370  -24.3200   46.9910 C.3    35  LYS35       0.0035
     48  CD        18.0610  -23.9670   46.3240 C.3    35  LYS35       0.0206
     49  CE        18.7430  -25.1910   45.7260 C.3    35  LYS35       0.1093
     50  NZ        20.1620  -24.8660   45.4740 N.3    35  LYS35      -0.1314
     51  N         18.0680  -13.5390   43.3620 N.3    66  VAL66      -0.1245
     52  CA        17.5060  -14.3440   44.4430 C.3    66  VAL66       0.1561
     53  C         18.1270  -13.9260   45.7920 C.2    66  VAL66       0.2260
     54  O         19.3140  -13.6320   45.8660 O.2    66  VAL66      -0.2867
     55  CB        17.6890  -15.8560   44.0870 C.3    66  VAL66       0.0252
     56  CG1       18.0070  -16.7050   45.2930 C.3    66  VAL66       0.0019
     57  CG2       16.4590  -16.4040   43.3700 C.3    66  VAL66       0.0019
     58  N         13.7520  -19.1080   50.5380 N.3    82  PHE82      -0.1227
     59  CA        13.5840  -17.9670   49.6040 C.3    82  PHE82       0.1736
     60  C         12.1260  -17.5170   49.4260 C.2    82  PHE82       0.2595
     61  O         11.2030  -18.3110   49.5610 O.2    82  PHE82      -0.2718
     62  CB        14.0560  -18.3470   48.2070 C.3    82  PHE82       0.0547
     63  CG        15.4600  -18.8380   48.1360 C.ar   82  PHE82      -0.0202
     64  CD1       16.4900  -17.9560   47.9290 C.ar   82  PHE82      -0.0042
     65  CD2       15.7370  -20.1930   48.2460 C.ar   82  PHE82      -0.0042
     66  CE1       17.7910  -18.4130   47.8320 C.ar   82  PHE82      -0.0003
     67  CE2       17.0310  -20.6590   48.1650 C.ar   82  PHE82      -0.0003
     68  CZ        18.0630  -19.7630   47.9450 C.ar   82  PHE82      -0.0000
     69  N         11.9450  -16.2500   49.0630 N.am   83  GLU83      -0.1965
     70  CA        10.6390  -15.7090   48.6880 C.3    83  GLU83       0.1733
     71  C         10.1740  -16.4100   47.4030 C.2    83  GLU83       0.2616
     72  O         10.9550  -16.5410   46.4560 O.2    83  GLU83      -0.2715
     73  CB        10.7660  -14.1900   48.4780 C.3    83  GLU83       0.0429
     74  CG         9.4660  -13.3980   48.3930 C.3    83  GLU83       0.1163
     75  CD         9.5890  -12.1600   47.4870 C.2    83  GLU83       0.3649
     76  OE1       10.5830  -12.0310   46.7240 O.co2  83  GLU83      -0.2457
     77  OE2        8.6810  -11.3070   47.5240 O.co2  83  GLU83      -0.2457
     78  N          8.9240  -16.8670   47.3680 N.am   84  TYR84      -0.1960
     79  CA         8.4080  -17.7000   46.2480 C.3    84  TYR84       0.1771
     80  C          8.1420  -16.9120   44.9520 C.2    84  TYR84       0.2619
     81  O          7.7360  -15.7530   44.9990 O.2    84  TYR84      -0.2715
     82  CB         7.1450  -18.4530   46.6930 C.3    84  TYR84       0.0574
     83  CG         6.3880  -19.2400   45.6260 C.ar   84  TYR84      -0.0198
     84  CD1        6.7890  -20.5240   45.2420 C.ar   84  TYR84      -0.0009
     85  CD2        5.2330  -18.7180   45.0500 C.ar   84  TYR84      -0.0009
     86  CE1        6.0870  -21.2440   44.2800 C.ar   84  TYR84       0.0417
     87  CE2        4.5210  -19.4290   44.1040 C.ar   84  TYR84       0.0417
     88  CZ         4.9460  -20.6880   43.7180 C.ar   84  TYR84       0.1957
     89  OH         4.2080  -21.3700   42.7650 O.3    84  TYR84      -0.2866
     90  N          8.3980  -17.5630   43.8130 N.am   85  MET85      -0.1963
     91  CA         8.3110  -16.9680   42.4780 C.3    85  MET85       0.1736
     92  C          7.4570  -17.8680   41.5920 C.2    85  MET85       0.2616
     93  O          7.6640  -19.0770   41.5620 O.2    85  MET85      -0.2715
     94  CB         9.7100  -16.8470   41.8690 C.3    85  MET85       0.0427
     95  CG        10.6340  -15.8870   42.5980 C.3    85  MET85       0.0599
     96  SD        10.2240  -14.1540   42.3030 S.3    85  MET85      -0.1393
     97  CE        10.7790  -13.9690   40.6320 C.3    85  MET85       0.0692
     98  N          6.5250  -17.2810   40.8420 N.am   86  ASP86      -0.1957
     99  CA         5.4360  -18.0630   40.2440 C.3    86  ASP86       0.1840
    100  C          5.8990  -19.0560   39.1700 C.2    86  ASP86       0.2622
    101  O          5.4230  -20.1960   39.1470 O.2    86  ASP86      -0.2715
    102  CB         4.3320  -17.1460   39.7110 C.3    86  ASP86       0.1450
    103  CG         3.6550  -16.3340   40.8150 C.2    86  ASP86       0.3671
    104  OD1        2.8830  -16.9090   41.6180 O.co2  86  ASP86      -0.2456
    105  OD2        3.8830  -15.1070   40.8710 O.co2  86  ASP86      -0.2456
    106  N          6.8300  -18.6310   38.3160 N.am   87  HIS87      -0.1959
    107  CA         7.3130  -19.4450   37.1850 C.3    87  HIS87       0.1787
    108  C          8.8260  -19.4060   37.1080 C.2    87  HIS87       0.2620
    109  O          9.4510  -18.5170   37.6860 O.2    87  HIS87      -0.2715
    110  CB         6.7830  -18.8780   35.8560 C.3    87  HIS87       0.0785
    111  CG         5.3590  -18.4000   35.9090 C.ar   87  HIS87       0.0821
    112  ND1        4.2900  -19.1870   35.5320 N.ar   87  HIS87      -0.2267
    113  CD2        4.8330  -17.2050   36.2770 C.ar   87  HIS87       0.1154
    114  CE1        3.1680  -18.5060   35.6850 C.ar   87  HIS87       0.1986
    115  NE2        3.4700  -17.3010   36.1340 N.ar   87  HIS87      -0.2212
    116  N          9.4280  -20.3460   36.3780 N.am   88  ASP88      -0.1971
    117  CA        10.7820  -20.0990   35.7970 C.3    88  ASP88       0.1709
    118  C         10.6080  -19.7920   34.3130 C.2    88  ASP88       0.2293
    119  O          9.5430  -20.0360   33.7560 O.2    88  ASP88      -0.2864
    120  CB        11.8220  -21.2260   36.0760 C.3    88  ASP88       0.1436
    121  CG        11.5090  -22.5640   35.3750 C.2    88  ASP88       0.3671
    122  OD1       11.9550  -23.5970   35.9220 O.co2  88  ASP88      -0.2456
    123  OD2       10.8430  -22.6090   34.3090 O.co2  88  ASP88      -0.2456
    124  N          9.6340  -22.6770   31.8840 N.3    91  GLY91      -0.1225
    125  CA         8.2540  -23.1380   32.0350 C.3    91  GLY91       0.1811
    126  C          7.2450  -22.3710   31.2030 C.2    91  GLY91       0.2280
    127  O          6.3730  -22.9770   30.6060 O.2    91  GLY91      -0.2866
    128  N         13.9070  -16.9070   37.2450 N.3   135  LEU135     -0.1245
    129  CA        12.6160  -16.9750   37.8850 C.3   135  LEU135      0.1561
    130  C         11.9060  -15.6840   37.6010 C.2   135  LEU135      0.2260
    131  O         12.5310  -14.6460   37.3870 O.2   135  LEU135     -0.2867
    132  CB        12.7770  -17.1450   39.3880 C.3   135  LEU135      0.0270
    133  CG        13.6410  -18.3250   39.8230 C.3   135  LEU135      0.0019
    134  CD1       13.6900  -18.3890   41.3400 C.3   135  LEU135      0.0001
    135  CD2       13.1130  -19.6350   39.2520 C.3   135  LEU135      0.0001
    136  N         18.7510  -16.8990   39.5050 N.3   145  ALA145     -0.1231
    137  CA        18.7570  -17.9410   40.5400 C.3   145  ALA145      0.1694
    138  C         19.7840  -19.0550   40.2970 C.2   145  ALA145      0.2592
    139  O         20.5240  -19.0120   39.3260 O.2   145  ALA145     -0.2718
    140  CB        17.3660  -18.5330   40.6330 C.3   145  ALA145      0.0304
    141  N         19.7870  -20.0580   41.1770 N.am  146  ASP146     -0.1974
    142  CA        20.7400  -21.1820   41.1460 C.3   146  ASP146      0.1709
    143  C         22.2060  -20.7570   41.0350 C.2   146  ASP146      0.2293
    144  O         22.7980  -20.7910   39.9640 O.2   146  ASP146     -0.2864
    145  CB        20.3930  -22.1920   40.0460 C.3   146  ASP146      0.1436
    146  CG        21.0000  -23.5810   40.2940 C.2   146  ASP146      0.3671
    147  OD1       22.0660  -23.6540   40.9430 O.co2 146  ASP146     -0.2456
    148  OD2       20.4170  -24.5990   39.8400 O.co2 146  ASP146     -0.2456
@<TRIPOS>BOND
     1   127   126    2
     2   126   125    1
     3   124   125    1
     4   119   118    2
     5   123   121   ar
     6   118   117    1
     7   121   122   ar
     8   121   120    1
     9   112   114   ar
    10   112   111   ar
    11   114   115   ar
    12   117   120    1
    13   117   116    1
    14   110   111    1
    15   110   107    1
    16   111   113   ar
    17   115   113   ar
    18   116   108   am
    19   108   107    1
    20   108   109    2
    21   107   106    1
    22   128   129    1
    23   131   130    2
    24   130   129    1
    25   129   132    1
    26   106   100   am
    27   101   100    2
    28   100    99    1
    29   135   133    1
    30   139   138    2
    31   132   133    1
    32   136   137    1
    33   102    99    1
    34   102   103    1
    35   133   134    1
    36   148   146   ar
    37   144   143    2
    38   145   146    1
    39   145   142    1
    40    99    98    1
    41   146   147   ar
    42   138   137    1
    43   138   141   am
    44   137   140    1
    45    97    96    1
    46   103   105   ar
    47   103   104   ar
    48    25    26    1
    49    25    22    1
    50    98    92   am
    51    24    23    2
    52    28    27   ar
    53   143   142    1
    54   142   141    1
    55    21    22    1
    56    21    19   am
    57    18    19    1
    58    18    17    1
    59    26    27    1
    60    12    11    2
    61    93    92    2
    62    92    91    1
    63    22    23    1
    64    27    29   ar
    65    94    91    1
    66    94    95    1
    67    19    20    2
    68    11    17   am
    69    11    10    1
    70    96    95    1
    71    91    90    1
    72    10    13    1
    73    10     9    1
    74    89    88    1
    75     4     3    2
    76    13    15    1
    77    13    14    1
    78    51    52    1
    79    57    55    1
    80    88    87   ar
    81    88    86   ar
    82     9     3   am
    83    90    80   am
    84     3     2    1
    85     7     5    1
    86    55    52    1
    87    55    56    1
    88    87    85   ar
    89    14    16    1
    90    86    84   ar
    91    52    53    1
    92    36    34    1
    93     5     2    1
    94     5     6    1
    95    80    81    2
    96    80    79    1
    97    85    83   ar
    98     2     1    1
    99    34    35    1
   100    34    31    1
   101    84    83   ar
   102    50    49    1
   103    83    82    1
   104    49    48    1
   105    30    31    1
   106    53    54    2
   107     8     6    1
   108    33    32    2
   109    31    32    1
   110    79    82    1
   111    79    78    1
   112    48    47    1
   113    72    71    2
   114    76    75   ar
   115    41    38    1
   116    47    46    1
   117    78    71   am
   118    71    70    1
   119    75    77   ar
   120    75    74    1
   121    66    64   ar
   122    66    68   ar
   123    64    63   ar
   124    68    67   ar
   125    63    62    1
   126    63    65   ar
   127    67    65   ar
   128    62    59    1
   129    38    37    1
   130    38    39    1
   131    46    43    1
   132    74    73    1
   133    73    70    1
   134    70    69    1
   135    43    42    1
   136    43    44    1
   137    69    60   am
   138    39    40    2
   139    60    61    2
   140    60    59    1
   141    59    58    1
   142    44    45    2
