@<TRIPOS>MOLECULE
tmp/6cl0A00.pdb
 69 65 0 0 0
SMALL
GASTEIGER

@<TRIPOS>ATOM
      1  N         30.3460    8.8810   73.1760 N.3    36  ARG36      -0.1231
      2  CA        31.0800    9.9870   72.6010 C.3    36  ARG36       0.1694
      3  C         31.2130   11.2140   73.4740 C.2    36  ARG36       0.2592
      4  O         30.6540   12.1780   73.2540 O.2    36  ARG36      -0.2718
      5  CB        30.4410   10.3210   71.2490 C.3    36  ARG36       0.0321
      6  CG        30.5210    9.1910   70.2220 C.3    36  ARG36       0.0489
      7  CD        29.8020    9.4960   68.9140 C.3    36  ARG36       0.2205
      8  NE        30.3870   10.6630   68.2910 N.pl3  36  ARG36      -0.0865
      9  CZ        29.8950   11.8800   68.3470 C.cat  36  ARG36       0.5346
     10  NH1       28.7440   12.1170   68.8850 N.pl3  36  ARG36       0.1354
     11  NH2       30.6100   12.8590   67.8570 N.pl3  36  ARG36       0.1354
     12  N         32.0620   11.0870   74.4540 N.am   37  SER37      -0.1952
     13  CA        32.3020   12.1670   75.3940 C.3    37  SER37       0.1924
     14  C         32.6240   13.4450   74.6550 C.2    37  SER37       0.2314
     15  O         33.4500   13.4710   73.7340 O.2    37  SER37      -0.2863
     16  CB        33.5320   11.7900   76.2080 C.3    37  SER37       0.2116
     17  OG        33.2540   10.5990   76.9470 O.3    37  SER37      -0.2180
     18  N         27.9930   11.6860   65.3280 N.3    92  SER92      -0.1202
     19  CA        27.9850   10.2560   65.6840 C.3    92  SER92       0.2020
     20  C         29.3140    9.5870   65.3210 C.2    92  SER92       0.2619
     21  O         30.2150   10.1950   64.7230 O.2    92  SER92      -0.2717
     22  CB        26.8050    9.5520   64.9900 C.3    92  SER92       0.2103
     23  OG        26.5370    8.3200   65.7130 O.3    92  SER92      -0.2182
     24  N         29.3760    8.2850   65.5990 N.am   93  HIS93      -0.1961
     25  CA        30.4040    7.4910   64.9530 C.3    93  HIS93       0.1787
     26  C         30.0130    7.3430   63.4950 C.2    93  HIS93       0.2620
     27  O         28.8330    7.4670   63.1340 O.2    93  HIS93      -0.2715
     28  CB        30.4710    6.0840   65.5640 C.3    93  HIS93       0.0785
     29  CG        30.9850    6.0820   66.9670 C.ar   93  HIS93       0.0821
     30  ND1       30.2470    5.7190   68.0760 N.ar   93  HIS93      -0.2267
     31  CD2       32.1990    6.4430   67.4150 C.ar   93  HIS93       0.1154
     32  CE1       31.0160    5.7950   69.1570 C.ar   93  HIS93       0.1986
     33  NE2       32.1880    6.2820   68.7820 N.ar   93  HIS93      -0.2212
     34  N         31.0120    7.0720   62.6540 N.am   94  GLY94      -0.1954
     35  CA        30.6990    6.9270   61.2340 C.3    94  GLY94       0.1869
     36  C         31.8290    6.2250   60.5130 C.2    94  GLY94       0.2309
     37  O         32.8620    5.9040   61.1030 O.2    94  GLY94      -0.2863
     38  N         29.8090   15.4460   61.5850 N.3   133  GLN133     -0.1231
     39  CA        30.9340   15.1280   62.4840 C.3   133  GLN133      0.1698
     40  C         30.8920   13.6270   62.7240 C.2   133  GLN133      0.2592
     41  O         30.0490   13.1530   63.4840 O.2   133  GLN133     -0.2718
     42  CB        30.7800   15.9430   63.7710 C.3   133  GLN133      0.0381
     43  CG        31.7630   15.4770   64.8880 C.3   133  GLN133      0.0905
     44  CD        33.2150   15.4740   64.4260 C.2   133  GLN133      0.2608
     45  OE1       33.6700   16.4250   63.7320 O.2   133  GLN133     -0.2717
     46  NE2       33.9570   14.4440   64.8090 N.am  133  GLN133     -0.0878
     47  N         31.7860   12.9150   62.0650 N.am  134  ALA134     -0.1966
     48  CA        31.9020   11.4670   62.1050 C.3   134  ALA134      0.1728
     49  C         33.1530   11.0880   61.3270 C.2   134  ALA134      0.2616
     50  O         33.5700   11.8100   60.4040 O.2   134  ALA134     -0.2715
     51  CB        30.6590   10.7900   61.4630 C.3   134  ALA134      0.0334
     52  N         33.7320    9.9260   61.6770 N.am  135  CYS135     -0.1968
     53  CA        34.8570    9.4600   60.8810 C.3   135  CYS135      0.1712
     54  C         34.4190    9.0620   59.4840 C.2   135  CYS135      0.2296
     55  O         33.2480    8.7640   59.2490 O.2   135  CYS135     -0.2864
     56  CB        35.4710    8.2130   61.5000 C.3   135  CYS135      0.0983
     57  SG        36.3470    8.6040   63.0400 S.3   135  CYS135     -0.0798
     58  N         36.5580    6.7630   57.7810 N.3   137  GLY137     -0.1225
     59  CA        37.5330    5.7060   57.6000 C.3   137  GLY137      0.1811
     60  C         38.5570    5.7530   58.7200 C.2   137  GLY137      0.2280
     61  O         38.2860    6.3180   59.7860 O.2   137  GLY137     -0.2866
     62  N         45.1260    8.0210   59.1220 N.3   140  LEU140     -0.1245
     63  CA        45.6510    9.0090   60.0560 C.3   140  LEU140      0.1561
     64  C         46.5270    9.9700   59.2750 C.2   140  LEU140      0.2260
     65  O         47.2960    9.5570   58.3970 O.2   140  LEU140     -0.2867
     66  CB        46.5630    8.2930   61.0830 C.3   140  LEU140      0.0270
     67  CG        45.7200    7.4820   62.0550 C.3   140  LEU140      0.0019
     68  CD1       46.5850    6.3420   62.7060 C.3   140  LEU140      0.0001
     69  CD2       45.0830    8.3310   63.1480 C.3   140  LEU140      0.0001
@<TRIPOS>BOND
     1    59    58    1
     2    59    60    1
     3    65    64    2
     4    60    61    2
     5    62    63    1
     6    55    54    2
     7    64    63    1
     8    54    53    1
     9    63    66    1
    10    50    49    2
    11    36    37    2
    12    36    35    1
    13    53    56    1
    14    53    52    1
    15    66    67    1
    16    35    34    1
    17    49    52   am
    18    49    48    1
    19    51    48    1
    20    56    57    1
    21    38    39    1
    22    67    68    1
    23    67    69    1
    24    47    48    1
    25    47    40   am
    26    39    40    1
    27    39    42    1
    28    34    26   am
    29    40    41    2
    30    27    26    2
    31    26    25    1
    32    45    44    2
    33    42    43    1
    34    44    46   am
    35    44    43    1
    36    21    20    2
    37    25    28    1
    38    25    24    1
    39    22    19    1
    40    22    23    1
    41    20    24   am
    42    20    19    1
    43    18    19    1
    44    28    29    1
    45    29    31   ar
    46    29    30   ar
    47    31    33   ar
    48    11     9    1
    49    30    32   ar
    50     8     9    2
    51     8     7    1
    52     9    10    1
    53    33    32   ar
    54     7     6    1
    55     6     5    1
    56     5     2    1
    57     2     1    1
    58     2     3    1
    59     4     3    2
    60     3    12   am
    61    15    14    2
    62    12    13    1
    63    14    13    1
    64    13    16    1
    65    16    17    1
