@<TRIPOS>MOLECULE
tmp/6cl1B00.pdb
 97 100 0 0 0
SMALL
GASTEIGER

@<TRIPOS>ATOM
      1  N         38.6740   18.0530    2.4810 N.3    19  TYR19      -0.1227
      2  CA        38.3830   19.1910    1.6290 C.3    19  TYR19       0.1736
      3  C         39.2240   20.3920    2.0360 C.2    19  TYR19       0.2596
      4  O         39.7490   20.4660    3.1510 O.2    19  TYR19      -0.2718
      5  CB        36.9050   19.5880    1.7260 C.3    19  TYR19       0.0548
      6  CG        35.9760   18.8940    0.7500 C.ar   19  TYR19      -0.0200
      7  CD1       35.9030   17.4990    0.6890 C.ar   19  TYR19      -0.0009
      8  CD2       35.1860   19.6380   -0.1380 C.ar   19  TYR19      -0.0009
      9  CE1       35.0540   16.8630   -0.2090 C.ar   19  TYR19       0.0417
     10  CE2       34.3340   19.0080   -1.0490 C.ar   19  TYR19       0.0417
     11  CZ        34.2750   17.6190   -1.0770 C.ar   19  TYR19       0.1957
     12  OH        33.4380   16.9780   -1.9640 O.3    19  TYR19      -0.2866
     13  N         39.3140   21.3590    1.1180 N.am   20  SER20      -0.1938
     14  CA        39.9330   22.6560    1.3670 C.3    20  SER20       0.2055
     15  C         38.9840   23.7000    0.8070 C.2    20  SER20       0.2643
     16  O         38.5620   23.5950   -0.3470 O.2    20  SER20      -0.2714
     17  CB        41.3290   22.7410    0.7210 C.3    20  SER20       0.2130
     18  OG        42.1490   23.7490    1.3010 O.3    20  SER20      -0.2179
     19  N         38.6180   24.6740    1.6220 N.am   21  TRP21      -0.1959
     20  CA        37.4900   25.5450    1.3240 C.3    21  TRP21       0.1771
     21  C         37.9130   26.8860    0.7280 C.2    21  TRP21       0.2620
     22  O         38.8930   27.4980    1.1700 O.2    21  TRP21      -0.2715
     23  CB        36.6630   25.7720    2.5910 C.3    21  TRP21       0.0590
     24  CG        35.9790   24.5220    3.0700 C.ar   21  TRP21       0.0006
     25  CD1       36.4890   23.5850    3.9190 C.ar   21  TRP21       0.0946
     26  CD2       34.6690   24.0640    2.7100 C.ar   21  TRP21       0.0152
     27  NE1       35.5790   22.5760    4.1120 N.ar   21  TRP21      -0.2442
     28  CE2       34.4540   22.8460    3.3810 C.ar   21  TRP21       0.0810
     29  CE3       33.6580   24.5680    1.8850 C.ar   21  TRP21       0.0012
     30  CZ2       33.2690   22.1240    3.2570 C.ar   21  TRP21       0.0191
     31  CZ3       32.4820   23.8510    1.7660 C.ar   21  TRP21       0.0001
     32  CH2       32.2970   22.6420    2.4510 C.ar   21  TRP21       0.0015
     33  N         37.1290   27.3570   -0.2490 N.am   22  ARG22      -0.1963
     34  CA        37.4010   28.5930   -0.9770 C.3    22  ARG22       0.1729
     35  C         36.1200   29.4110   -1.0790 C.2    22  ARG22       0.2617
     36  O         35.1460   28.9620   -1.6910 O.2    22  ARG22      -0.2715
     37  CB        37.9400   28.2980   -2.3720 C.3    22  ARG22       0.0348
     38  CG        38.3210   29.5260   -3.1550 C.3    22  ARG22       0.0492
     39  CD        39.1200   29.1140   -4.3760 C.3    22  ARG22       0.2205
     40  NE        38.5910   27.8850   -4.9640 N.pl3  22  ARG22      -0.0865
     41  CZ        37.4180   27.7930   -5.5940 C.cat  22  ARG22       0.5346
     42  NH1       36.6450   28.8600   -5.7480 N.pl3  22  ARG22       0.1354
     43  NH2       37.0160   26.6270   -6.0840 N.pl3  22  ARG22       0.1354
     44  N         36.1170   30.6010   -0.4810 N.am   23  SER23      -0.1936
     45  CA        35.0030   31.5250   -0.6560 C.3    23  SER23       0.2040
     46  C         35.1400   32.2180   -2.0090 C.2    23  SER23       0.2485
     47  O         36.1570   32.8850   -2.2540 O.2    23  SER23      -0.2729
     48  CB        34.9820   32.5380    0.4830 C.3    23  SER23       0.2129
     49  OG        34.4700   33.7940    0.0770 O.3    23  SER23      -0.2179
     50  N         34.1580   32.0980   -2.9150 N.am   24  PRO24      -0.2726
     51  CA        34.3350   32.6590   -4.2680 C.3    24  PRO24       0.1402
     52  C         34.5780   34.1590   -4.2840 C.2    24  PRO24       0.2269
     53  O         35.2200   34.6560   -5.2180 O.2    24  PRO24      -0.2865
     54  CB        33.0230   32.2970   -4.9830 C.3    24  PRO24       0.0296
     55  CG        32.4550   31.1320   -4.2090 C.3    24  PRO24       0.0237
     56  CD        32.8790   31.3730   -2.7750 C.3    24  PRO24       0.0939
     57  N         40.3750   31.7360   -0.7390 N.3    28  SER28      -0.1202
     58  CA        40.4640   30.5020    0.0390 C.3    28  SER28       0.2020
     59  C         40.8020   30.7900    1.5130 C.2    28  SER28       0.2618
     60  O         41.4800   31.7700    1.8390 O.2    28  SER28      -0.2717
     61  CB        41.4990   29.5580   -0.5810 C.3    28  SER28       0.2103
     62  OG        42.8080   29.8360   -0.1180 O.3    28  SER28      -0.2182
     63  N         40.3060   29.9240    2.4120 N.am   29  TRP29      -0.1975
     64  CA        40.4460   30.1730    3.8500 C.3    29  TRP29       0.1640
     65  C         41.9110   30.2230    4.2700 C.2    29  TRP29       0.2290
     66  O         42.3310   31.0950    5.0410 O.2    29  TRP29      -0.2864
     67  CB        39.7420   29.0870    4.6660 C.3    29  TRP29       0.0576
     68  CG        38.2750   28.9080    4.4570 C.ar   29  TRP29       0.0006
     69  CD1       37.4740   29.5680    3.5730 C.ar   29  TRP29       0.0946
     70  CD2       37.4170   28.0220    5.1950 C.ar   29  TRP29       0.0152
     71  NE1       36.1750   29.1270    3.6920 N.ar   29  TRP29      -0.2442
     72  CE2       36.1120   28.1870    4.6880 C.ar   29  TRP29       0.0810
     73  CE3       37.6300   27.0990    6.2300 C.ar   29  TRP29       0.0012
     74  CZ2       35.0260   27.4570    5.1740 C.ar   29  TRP29       0.0191
     75  CZ3       36.5540   26.3850    6.7120 C.ar   29  TRP29       0.0001
     76  CH2       35.2680   26.5660    6.1840 C.ar   29  TRP29       0.0015
     77  N         31.9840   26.7330    7.0800 N.3    64  SER64      -0.1202
     78  CA        31.3780   26.7880    5.7580 C.3    64  SER64       0.2020
     79  C         29.8830   27.0600    5.8660 C.2    64  SER64       0.2619
     80  O         29.1710   26.3810    6.6110 O.2    64  SER64      -0.2717
     81  CB        31.6360   25.4820    5.0060 C.3    64  SER64       0.2103
     82  OG        30.7450   24.4670    5.4190 O.3    64  SER64      -0.2182
     83  N         29.4130   28.0770    5.1380 N.am   65  GLN65      -0.1965
     84  CA        27.9910   28.4140    5.0450 C.3    65  GLN65       0.1733
     85  C         27.4550   27.9250    3.6980 C.2    65  GLN65       0.2617
     86  O         27.6900   28.5450    2.6590 O.2    65  GLN65      -0.2715
     87  CB        27.7810   29.9140    5.2300 C.3    65  GLN65       0.0408
     88  CG        28.1460   30.4780    6.6010 C.3    65  GLN65       0.0908
     89  CD        27.3850   29.8120    7.7180 C.2    65  GLN65       0.2608
     90  OE1       26.1430   29.7430    7.6480 O.2    65  GLN65      -0.2717
     91  NE2       28.0640   29.2250    8.6540 N.am   65  GLN65      -0.0878
     92  N         26.7360   26.8030    3.7190 N.am   66  SER66      -0.1950
     93  CA        26.1450   26.2160    2.5230 C.3    66  SER66       0.1924
     94  C         24.7550   25.6980    2.8770 C.2    66  SER66       0.2314
     95  O         24.4550   25.4060    4.0390 O.2    66  SER66      -0.2863
     96  CB        27.0170   25.0910    1.9380 C.3    66  SER66       0.2116
     97  OG        26.3750   24.4160    0.8640 O.3    66  SER66      -0.2180
@<TRIPOS>BOND
     1    43    41    1
     2    42    41    1
     3    41    40    2
     4    53    52    2
     5    54    51    1
     6    54    55    1
     7    40    39    1
     8    39    38    1
     9    52    51    1
    10    51    50    1
    11    55    56    1
    12    38    37    1
    13    50    56    1
    14    50    46   am
    15    37    34    1
    16    47    46    2
    17    46    45    1
    18    12    11    1
    19    36    35    2
    20    35    34    1
    21    35    44   am
    22    11    10   ar
    23    11     9   ar
    24    10     8   ar
    25    34    33    1
    26    57    58    1
    27    45    44    1
    28    45    48    1
    29    61    62    1
    30    61    58    1
    31    16    15    2
    32    33    21   am
    33     9     7   ar
    34     8     6   ar
    35    58    59    1
    36    49    48    1
    37     7     6   ar
    38    17    18    1
    39    17    14    1
    40    21    22    2
    41    21    20    1
    42     6     5    1
    43    15    14    1
    44    15    19   am
    45    97    96    1
    46    13    14    1
    47    13     3   am
    48    20    19    1
    49    20    23    1
    50    59    60    2
    51    59    63   am
    52     2     5    1
    53     2     3    1
    54     2     1    1
    55    31    29   ar
    56    31    32   ar
    57    29    26   ar
    58    96    93    1
    59     3     4    2
    60    63    64    1
    61    32    30   ar
    62    93    94    1
    63    93    92    1
    64    23    24    1
    65    86    85    2
    66    26    24   ar
    67    26    28   ar
    68    94    95    2
    69    24    25   ar
    70    30    28   ar
    71    28    27   ar
    72    69    71   ar
    73    69    68   ar
    74    71    72   ar
    75    85    92   am
    76    85    84    1
    77    64    65    1
    78    64    67    1
    79    25    27   ar
    80    65    66    2
    81    68    67    1
    82    68    70   ar
    83    72    74   ar
    84    72    70   ar
    85    81    82    1
    86    81    78    1
    87    84    83    1
    88    84    87    1
    89    83    79   am
    90    74    76   ar
    91    70    73   ar
    92    87    88    1
    93    78    79    1
    94    78    77    1
    95    79    80    2
    96    76    75   ar
    97    73    75   ar
    98    88    89    1
    99    90    89    2
   100    89    91   am
