@<TRIPOS>MOLECULE
tmp/6cl1A00.pdb
 67 63 0 0 0
SMALL
GASTEIGER

@<TRIPOS>ATOM
      1  N         36.7360   20.1350  -14.2260 N.3    28  MET28      -0.1230
      2  CA        36.7850   20.8910  -12.9820 C.3    28  MET28       0.1702
      3  C         36.4270   22.3530  -13.1770 C.2    28  MET28       0.2592
      4  O         36.8710   22.9940  -14.1370 O.2    28  MET28      -0.2718
      5  CB        38.1450   20.7850  -12.3190 C.3    28  MET28       0.0401
      6  CG        37.9360   20.6870  -10.8110 C.3    28  MET28       0.0596
      7  SD        37.7080   18.9490  -10.4770 S.3    28  MET28      -0.1393
      8  CE        39.1470   18.2610  -11.1940 C.3    28  MET28       0.0692
      9  N         35.6960   22.8940  -12.2110 N.am   29  GLY29      -0.1957
     10  CA        35.1470   24.2190  -12.3360 C.3    29  GLY29       0.1869
     11  C         36.1370   25.3350  -12.0590 C.2    29  GLY29       0.2309
     12  O         37.2810   25.1470  -11.6160 O.2    29  GLY29      -0.2863
     13  N         37.9080   28.2940  -10.3470 N.3    31  ARG31      -0.1245
     14  CA        38.2740   28.5590   -8.9600 C.3    31  ARG31       0.1563
     15  C         38.1210   30.0540   -8.7110 C.2    31  ARG31       0.2260
     16  O         39.0830   30.8180   -8.6780 O.2    31  ARG31      -0.2867
     17  CB        39.6910   28.0780   -8.6600 C.3    31  ARG31       0.0307
     18  CG        39.9170   26.5980   -8.8930 C.3    31  ARG31       0.0489
     19  CD        41.2700   26.0950   -8.3690 C.3    31  ARG31       0.2205
     20  NE        41.5630   26.5450   -7.0070 N.pl3  31  ARG31      -0.0865
     21  CZ        42.4590   27.4780   -6.6870 C.cat  31  ARG31       0.5346
     22  NH1       43.1850   28.0770   -7.6200 N.pl3  31  ARG31       0.1354
     23  NH2       42.6360   27.8190   -5.4230 N.pl3  31  ARG31       0.1354
     24  N         45.3960   25.5920   -6.6930 N.3    87  SER87      -0.1202
     25  CA        44.7470   24.8030   -7.7430 C.3    87  SER87       0.2020
     26  C         43.7390   23.8330   -7.1250 C.2    87  SER87       0.2619
     27  O         43.5450   23.7890   -5.9070 O.2    87  SER87      -0.2717
     28  CB        45.7790   24.0490   -8.5750 C.3    87  SER87       0.2103
     29  OG        45.1350   23.3630   -9.6090 O.3    87  SER87      -0.2182
     30  N         43.0800   23.0700   -7.9910 N.am   88  HIS88      -0.1961
     31  CA        42.3350   21.9080   -7.5430 C.3    88  HIS88       0.1787
     32  C         43.3190   20.8200   -7.1670 C.2    88  HIS88       0.2620
     33  O         44.4360   20.7570   -7.6920 O.2    88  HIS88      -0.2715
     34  CB        41.3900   21.3880   -8.6380 C.3    88  HIS88       0.0785
     35  CG        40.1950   22.2570   -8.8790 C.ar   88  HIS88       0.0821
     36  ND1       39.2030   22.4400   -7.9380 N.ar   88  HIS88      -0.2267
     37  CD2       39.8540   23.0280   -9.9400 C.ar   88  HIS88       0.1154
     38  CE1       38.2890   23.2640   -8.4200 C.ar   88  HIS88       0.1986
     39  NE2       38.6600   23.6330   -9.6340 N.ar   88  HIS88      -0.2212
     40  N         42.9040   19.9550   -6.2500 N.am   89  GLY89      -0.1954
     41  CA        43.7840   18.8720   -5.8680 C.3    89  GLY89       0.1869
     42  C         43.0440   17.6530   -5.3740 C.2    89  GLY89       0.2309
     43  O         41.8690   17.7050   -4.9940 O.2    89  GLY89      -0.2863
     44  N         47.5550   25.2230   -1.5500 N.3   128  GLN128     -0.1231
     45  CA        46.1160   25.4090   -1.3680 C.3   128  GLN128      0.1698
     46  C         45.4040   24.5350   -2.4000 C.2   128  GLN128      0.2592
     47  O         45.4270   24.8400   -3.6000 O.2   128  GLN128     -0.2718
     48  CB        45.7550   26.8850   -1.5350 C.3   128  GLN128      0.0381
     49  CG        44.2930   27.1880   -1.8030 C.3   128  GLN128      0.0905
     50  CD        43.3700   26.6560   -0.7380 C.2   128  GLN128      0.2608
     51  OE1       43.5810   26.8940    0.4490 O.2   128  GLN128     -0.2717
     52  NE2       42.3380   25.9240   -1.1490 N.am  128  GLN128     -0.0878
     53  N         44.7930   23.4400   -1.9300 N.am  129  ALA129     -0.1966
     54  CA        44.2150   22.3880   -2.7650 C.3   129  ALA129      0.1728
     55  C         43.5290   21.3360   -1.9060 C.2   129  ALA129      0.2616
     56  O         43.9030   21.1410   -0.7460 O.2   129  ALA129     -0.2715
     57  CB        45.2880   21.7090   -3.6160 C.3   129  ALA129      0.0334
     58  N         42.5240   20.6570   -2.4430 N.am  130  CYS130     -0.1968
     59  CA        41.9550   19.5340   -1.7230 C.3   130  CYS130      0.1712
     60  C         42.9600   18.4000   -1.6530 C.2   130  CYS130      0.2296
     61  O         43.8400   18.2640   -2.5020 O.2   130  CYS130     -0.2864
     62  CB        40.6710   19.0660   -2.3830 C.3   130  CYS130      0.0983
     63  SG        39.3550   20.2710   -2.1910 S.3   130  CYS130     -0.0798
     64  N         41.6020   15.2510   -0.7400 N.3   132  GLY132     -0.1225
     65  CA        40.6850   14.1510   -0.6390 C.3   132  GLY132      0.1811
     66  C         39.2760   14.6740   -0.4760 C.2   132  GLY132      0.2280
     67  O         38.9970   15.8320   -0.7750 O.2   132  GLY132     -0.2866
@<TRIPOS>BOND
     1     1     2    1
     2     4     3    2
     3     3     2    1
     4     3     9   am
     5     2     5    1
     6    10     9    1
     7    10    11    1
     8     5     6    1
     9    11    12    2
    10     8     7    1
    11     6     7    1
    12    13    14    1
    13    37    39   ar
    14    37    35   ar
    15    39    38   ar
    16    29    28    1
    17    14    15    1
    18    14    17    1
    19    18    17    1
    20    18    19    1
    21    35    34    1
    22    35    36   ar
    23    15    16    2
    24    34    31    1
    25    28    25    1
    26    38    36   ar
    27    19    20    1
    28    30    31    1
    29    30    26   am
    30    25    26    1
    31    25    24    1
    32    33    32    2
    33    22    21    1
    34    31    32    1
    35    32    40   am
    36    26    27    2
    37    20    21    2
    38    21    23    1
    39    40    41    1
    40    41    42    1
    41    42    43    2
    42    57    54    1
    43    47    46    2
    44    54    53    1
    45    54    55    1
    46    61    60    2
    47    58    55   am
    48    58    59    1
    49    46    53   am
    50    46    45    1
    51    62    63    1
    52    62    59    1
    53    55    56    2
    54    49    48    1
    55    49    50    1
    56    59    60    1
    57    44    45    1
    58    48    45    1
    59    52    50   am
    60    67    66    2
    61    64    65    1
    62    50    51    2
    63    65    66    1
