@<TRIPOS>MOLECULE
tmp/6cl2B00.pdb
 129 132 0 0 0
SMALL
GASTEIGER

@<TRIPOS>ATOM
      1  N         38.9430   17.9400    2.4190 N.3    19  TYR19      -0.1227
      2  CA        38.6620   19.0610    1.5400 C.3    19  TYR19       0.1736
      3  C         39.4630   20.2810    1.9630 C.2    19  TYR19       0.2596
      4  O         39.9210   20.3910    3.1050 O.2    19  TYR19      -0.2718
      5  CB        37.1700   19.4020    1.5590 C.3    19  TYR19       0.0548
      6  CG        36.3060   18.4490    0.7510 C.ar   19  TYR19      -0.0200
      7  CD1       36.3850   18.4050   -0.6480 C.ar   19  TYR19      -0.0009
      8  CD2       35.4180   17.5870    1.3830 C.ar   19  TYR19      -0.0009
      9  CE1       35.5920   17.5250   -1.3880 C.ar   19  TYR19       0.0417
     10  CE2       34.6270   16.7110    0.6610 C.ar   19  TYR19       0.0417
     11  CZ        34.7130   16.6840   -0.7220 C.ar   19  TYR19       0.1957
     12  OH        33.9220   15.8050   -1.4260 O.3    19  TYR19      -0.2866
     13  N         39.6240   21.2090    1.0220 N.am   20  SER20      -0.1938
     14  CA        40.1590   22.5370    1.2950 C.3    20  SER20       0.2055
     15  C         39.1590   23.5520    0.7710 C.2    20  SER20       0.2643
     16  O         38.7160   23.4450   -0.3750 O.2    20  SER20      -0.2714
     17  CB        41.5330   22.7260    0.6460 C.3    20  SER20       0.2130
     18  OG        42.3120   23.6540    1.3730 O.3    20  SER20      -0.2179
     19  N         38.7890   24.5120    1.6100 N.am   21  TRP21      -0.1959
     20  CA        37.6550   25.3820    1.3370 C.3    21  TRP21       0.1771
     21  C         38.0950   26.7370    0.8000 C.2    21  TRP21       0.2620
     22  O         39.1360   27.2760    1.1910 O.2    21  TRP21      -0.2715
     23  CB        36.8180   25.5820    2.6010 C.3    21  TRP21       0.0590
     24  CG        36.0420   24.3670    2.9580 C.ar   21  TRP21       0.0006
     25  CD1       36.3670   23.4390    3.9000 C.ar   21  TRP21       0.0946
     26  CD2       34.8140   23.9250    2.3640 C.ar   21  TRP21       0.0152
     27  NE1       35.4220   22.4470    3.9330 N.ar   21  TRP21      -0.2442
     28  CE2       34.4520   22.7220    3.0060 C.ar   21  TRP21       0.0810
     29  CE3       33.9830   24.4290    1.3530 C.ar   21  TRP21       0.0012
     30  CZ2       33.2940   22.0120    2.6750 C.ar   21  TRP21       0.0191
     31  CZ3       32.8390   23.7240    1.0220 C.ar   21  TRP21       0.0001
     32  CH2       32.5040   22.5270    1.6830 C.ar   21  TRP21       0.0015
     33  N         37.2550   27.3040   -0.0710 N.am   22  ARG22      -0.1963
     34  CA        37.5480   28.5640   -0.7470 C.3    22  ARG22       0.1729
     35  C         36.2730   29.3880   -0.8790 C.2    22  ARG22       0.2617
     36  O         35.2530   28.8780   -1.3520 O.2    22  ARG22      -0.2715
     37  CB        38.1640   28.3030   -2.1320 C.3    22  ARG22       0.0348
     38  CG        38.3100   29.5390   -3.0050 C.3    22  ARG22       0.0492
     39  CD        39.0210   29.2080   -4.3080 C.3    22  ARG22       0.2205
     40  NE        38.6810   27.8570   -4.7390 N.pl3  22  ARG22      -0.0865
     41  CZ        37.5880   27.5470   -5.4300 C.cat  22  ARG22       0.5346
     42  NH1       36.7340   28.5030   -5.7920 N.pl3  22  ARG22       0.1354
     43  NH2       37.3490   26.2820   -5.7570 N.pl3  22  ARG22       0.1354
     44  N         36.3270   30.6840   -0.4350 N.am   23  SER23      -0.1936
     45  CA        35.2200   31.6200   -0.6380 C.3    23  SER23       0.2040
     46  C         35.3900   32.3320   -1.9710 C.2    23  SER23       0.2485
     47  O         36.4260   32.9730   -2.1910 O.2    23  SER23      -0.2729
     48  CB        35.1520   32.6630    0.4710 C.3    23  SER23       0.2129
     49  OG        35.0230   32.0560    1.7440 O.3    23  SER23      -0.2179
     50  N         34.3880   32.2960   -2.8570 N.am   24  PRO24      -0.2715
     51  CA        34.5740   32.9220   -4.1740 C.3    24  PRO24       0.1536
     52  C         34.7860   34.4230   -4.0930 C.2    24  PRO24       0.2599
     53  O         35.4790   34.9820   -4.9490 O.2    24  PRO24      -0.2715
     54  CB        33.2820   32.5720   -4.9280 C.3    24  PRO24       0.0310
     55  CG        32.3140   32.1030   -3.9000 C.3    24  PRO24       0.0237
     56  CD        32.9700   32.0520   -2.5550 C.3    24  PRO24       0.0939
     57  N         34.2350   35.0910   -3.0860 N.am   25  GLY25      -0.1955
     58  CA        34.4100   36.5230   -2.9690 C.3    25  GLY25       0.1869
     59  C         35.5950   36.9890   -2.1560 C.2    25  GLY25       0.2309
     60  O         35.9680   38.1640   -2.2480 O.2    25  GLY25      -0.2863
     61  N         40.6250   31.5800   -0.7050 N.3    28  SER28      -0.1202
     62  CA        40.6610   30.3660    0.0930 C.3    28  SER28       0.2020
     63  C         40.9070   30.7020    1.5660 C.2    28  SER28       0.2618
     64  O         41.5370   31.7120    1.9050 O.2    28  SER28      -0.2717
     65  CB        41.7230   29.4060   -0.4470 C.3    28  SER28       0.2103
     66  OG        43.0110   29.8180   -0.0630 O.3    28  SER28      -0.2182
     67  N         40.3540   29.8630    2.4470 N.am   29  TRP29      -0.1975
     68  CA        40.4880   30.0860    3.8890 C.3    29  TRP29       0.1640
     69  C         41.9520   30.1370    4.3070 C.2    29  TRP29       0.2290
     70  O         42.3760   31.0320    5.0540 O.2    29  TRP29      -0.2864
     71  CB        39.7710   28.9770    4.6510 C.3    29  TRP29       0.0576
     72  CG        38.2920   28.9320    4.4390 C.ar   29  TRP29       0.0006
     73  CD1       37.5430   29.7670    3.6600 C.ar   29  TRP29       0.0946
     74  CD2       37.3740   28.0140    5.0430 C.ar   29  TRP29       0.0152
     75  NE1       36.2160   29.4150    3.7310 N.ar   29  TRP29      -0.2442
     76  CE2       36.0860   28.3400    4.5710 C.ar   29  TRP29       0.0810
     77  CE3       37.5160   26.9450    5.9400 C.ar   29  TRP29       0.0012
     78  CZ2       34.9490   27.6350    4.9620 C.ar   29  TRP29       0.0191
     79  CZ3       36.3950   26.2450    6.3170 C.ar   29  TRP29       0.0001
     80  CH2       35.1250   26.5930    5.8350 C.ar   29  TRP29       0.0015
     81  N         33.9180   28.7760    8.8020 N.3    63  GLU63      -0.1231
     82  CA        32.8960   27.7380    8.7860 C.3    63  GLU63       0.1699
     83  C         32.1800   27.8010    7.4420 C.2    63  GLU63       0.2593
     84  O         31.7700   28.8810    7.0080 O.2    63  GLU63      -0.2718
     85  CB        31.9090   27.9330    9.9400 C.3    63  GLU63       0.0402
     86  CG        31.1460   26.6900   10.3570 C.3    63  GLU63       0.1161
     87  CD        30.2190   26.9660   11.5250 C.2    63  GLU63       0.3649
     88  OE1       29.0080   27.1670   11.2860 O.co2  63  GLU63      -0.2457
     89  OE2       30.7060   27.0020   12.6790 O.co2  63  GLU63      -0.2457
     90  N         32.0370   26.6560    6.7840 N.am   64  SER64      -0.1938
     91  CA        31.5000   26.6480    5.4300 C.3    64  SER64       0.2055
     92  C         30.0210   27.0270    5.4180 C.2    64  SER64       0.2643
     93  O         29.2570   26.6560    6.3120 O.2    64  SER64      -0.2714
     94  CB        31.6960   25.2760    4.7860 C.3    64  SER64       0.2130
     95  OG        30.9670   24.2840    5.4780 O.3    64  SER64      -0.2179
     96  N         29.6240   27.7810    4.3940 N.am   65  GLN65      -0.1963
     97  CA        28.2310   28.1350    4.1540 C.3    65  GLN65       0.1733
     98  C         27.8330   27.5650    2.7980 C.2    65  GLN65       0.2617
     99  O         28.5310   27.7790    1.8010 O.2    65  GLN65      -0.2715
    100  CB        28.0290   29.6550    4.2100 C.3    65  GLN65       0.0408
    101  CG        28.2820   30.3160    5.5630 C.3    65  GLN65       0.0908
    102  CD        27.4160   29.7420    6.6550 C.2    65  GLN65       0.2608
    103  OE1       26.1830   29.6800    6.4800 O.2    65  GLN65      -0.2717
    104  NE2       28.0010   29.2200    7.6860 N.am   65  GLN65      -0.0878
    105  N         26.7330   26.8150    2.7650 N.am   66  SER66      -0.1936
    106  CA        26.4110   26.0330    1.5790 C.3    66  SER66       0.2055
    107  C         24.9100   25.7900    1.4990 C.2    66  SER66       0.2643
    108  O         24.2180   25.7260    2.5210 O.2    66  SER66      -0.2714
    109  CB        27.1590   24.6950    1.5880 C.3    66  SER66       0.2130
    110  OG        26.7980   23.8720    0.4920 O.3    66  SER66      -0.2179
    111  N         24.4240   25.6520    0.2610 N.am   67  ASP67      -0.1971
    112  CA        23.0490   25.2160    0.0330 C.3    67  ASP67       0.1709
    113  C         22.8650   23.7580    0.4580 C.2    67  ASP67       0.2293
    114  O         21.9960   23.4410    1.2790 O.2    67  ASP67      -0.2864
    115  CB        22.6780   25.4140   -1.4420 C.3    67  ASP67       0.1436
    116  CG        22.2070   26.7790   -1.8050 C.2    67  ASP67       0.3671
    117  OD1       22.0400   27.6260   -0.9540 O.co2  67  ASP67      -0.2456
    118  OD2       21.9450   26.9520   -3.0630 O.co2  67  ASP67      -0.2456
    119  N         27.2640   19.7850    3.0780 N.3    71  PHE71      -0.1241
    120  CA        28.4320   20.6570    3.1400 C.3    71  PHE71       0.1605
    121  C         28.1920   21.8850    4.0120 C.2    71  PHE71       0.2264
    122  O         28.9740   22.8410    3.9580 O.2    71  PHE71      -0.2867
    123  CB        28.8480   21.0830    1.7260 C.3    71  PHE71       0.0534
    124  CG        29.1310   19.9290    0.8000 C.ar   71  PHE71      -0.0203
    125  CD1       30.1810   19.0610    1.0480 C.ar   71  PHE71      -0.0042
    126  CD2       28.3590   19.7240   -0.3270 C.ar   71  PHE71      -0.0042
    127  CE1       30.4570   17.9970    0.1910 C.ar   71  PHE71      -0.0003
    128  CE2       28.6250   18.6610   -1.1930 C.ar   71  PHE71      -0.0003
    129  CZ        29.6750   17.7950   -0.9310 C.ar   71  PHE71      -0.0000
@<TRIPOS>BOND
     1    42    41    1
     2    43    41    1
     3    41    40    2
     4    53    52    2
     5    54    51    1
     6    54    55    1
     7    40    39    1
     8    39    38    1
     9    51    52    1
    10    51    50    1
    11    52    57   am
    12    55    56    1
    13    57    58    1
    14   118   116   ar
    15    38    37    1
    16    58    59    1
    17    50    56    1
    18    50    46   am
    19    60    59    2
    20    47    46    2
    21    37    34    1
    22    46    45    1
    23   116   115    1
    24   116   117   ar
    25   115   112    1
    26    12    11    1
    27     9    11   ar
    28     9     7   ar
    29    36    35    2
    30   128   129   ar
    31   128   126   ar
    32   129   127   ar
    33    35    34    1
    34    35    44   am
    35    34    33    1
    36    11    10   ar
    37    61    62    1
    38     7     6   ar
    39    45    44    1
    40    45    48    1
    41    65    66    1
    42    65    62    1
    43    16    15    2
    44   126   124   ar
    45    33    21   am
    46   112   111    1
    47   112   113    1
    48    62    63    1
    49   127   125   ar
    50   111   107   am
    51   113   114    2
    52    48    49    1
    53   110   109    1
    54    17    14    1
    55    17    18    1
    56    10     8   ar
    57     6     8   ar
    58     6     5    1
    59    15    14    1
    60    15    19   am
    61    21    22    2
    62    21    20    1
    63   124   125   ar
    64   124   123    1
    65    13    14    1
    66    13     3   am
    67    31    29   ar
    68    31    32   ar
    69    20    19    1
    70    20    23    1
    71    29    26   ar
    72   107   106    1
    73   107   108    2
    74     2     5    1
    75     2     3    1
    76     2     1    1
    77    63    64    2
    78    63    67   am
    79   106   109    1
    80   106   105    1
    81    32    30   ar
    82   123   120    1
    83    99    98    2
    84     3     4    2
    85    26    24   ar
    86    26    28   ar
    87    67    68    1
    88    23    24    1
    89    30    28   ar
    90   105    98   am
    91    98    97    1
    92    24    25   ar
    93    28    27   ar
    94   119   120    1
    95   120   121    1
    96    73    75   ar
    97    73    72   ar
    98    75    76   ar
    99    68    69    1
   100    68    71    1
   101    25    27   ar
   102   122   121    2
   103    97   100    1
   104    97    96    1
   105   100   101    1
   106    69    70    2
   107    96    92   am
   108    72    71    1
   109    72    74   ar
   110    76    78   ar
   111    76    74   ar
   112    94    91    1
   113    94    95    1
   114    78    80   ar
   115    74    77   ar
   116    92    91    1
   117    92    93    2
   118    91    90    1
   119   101   102    1
   120    80    79   ar
   121    77    79   ar
   122   103   102    2
   123   102   104   am
   124    90    83   am
   125    84    83    2
   126    83    82    1
   127    82    81    1
   128    82    85    1
   129    85    86    1
   130    86    87    1
   131    88    87   ar
   132    87    89   ar
