@<TRIPOS>MOLECULE
tmp/6cl2C00.pdb
 79 74 0 0 0
SMALL
GASTEIGER

@<TRIPOS>ATOM
      1  N         59.0080  -10.4010   10.1100 N.3    28  MET28      -0.1245
      2  CA        59.7660   -9.3230   10.7330 C.3    28  MET28       0.1570
      3  C         60.6780   -9.8610   11.8250 C.2    28  MET28       0.2261
      4  O         60.3000  -10.7600   12.5890 O.2    28  MET28      -0.2867
      5  CB        58.8210   -8.2670   11.3110 C.3    28  MET28       0.0387
      6  CG        58.0410   -7.4870   10.2760 C.3    28  MET28       0.0595
      7  SD        59.0890   -6.4020    9.2730 S.3    28  MET28      -0.1393
      8  CE        59.0090   -7.2580    7.7060 C.3    28  MET28       0.0692
      9  N         63.8090   -6.4390   16.9270 N.3    31  ARG31      -0.1231
     10  CA        64.2810   -5.0530   16.8100 C.3    31  ARG31       0.1694
     11  C         65.2770   -4.7610   17.9310 C.2    31  ARG31       0.2592
     12  O         64.9700   -4.1230   18.9400 O.2    31  ARG31      -0.2718
     13  CB        63.1100   -4.0760   16.8220 C.3    31  ARG31       0.0321
     14  CG        62.0820   -4.3080   15.7010 C.3    31  ARG31       0.0489
     15  CD        61.0190   -3.2200   15.6930 C.3    31  ARG31       0.2205
     16  NE        61.6000   -1.8820   15.6850 N.pl3  31  ARG31      -0.0865
     17  CZ        61.5310   -1.0210   16.6990 C.cat  31  ARG31       0.5346
     18  NH1       60.8900   -1.3550   17.8180 N.pl3  31  ARG31       0.1354
     19  NH2       62.0990    0.1820   16.5920 N.pl3  31  ARG31       0.1354
     20  N         66.5070   -5.2260   17.7300 N.am   32  ASN32      -0.1974
     21  CA        67.5490   -5.0310   18.7280 C.3    32  ASN32       0.1688
     22  C         67.8410   -3.5500   18.9140 C.2    32  ASN32       0.2292
     23  O         67.9640   -2.8020   17.9430 O.2    32  ASN32      -0.2864
     24  CB        68.8230   -5.7650   18.3220 C.3    32  ASN32       0.1181
     25  CG        68.7000   -7.2610   18.4830 C.2    32  ASN32       0.2629
     26  OD1       68.9060   -8.0200   17.5300 O.2    32  ASN32      -0.2716
     27  ND2       68.3400   -7.7000   19.6860 N.am   32  ASN32      -0.0877
     28  N         58.3880    0.3020   16.4520 N.3    87  SER87      -0.1202
     29  CA        58.0490   -0.9480   15.7850 C.3    87  SER87       0.2020
     30  C         58.5700   -0.9210   14.3560 C.2    87  SER87       0.2619
     31  O         59.1420    0.0680   13.8940 O.2    87  SER87      -0.2717
     32  CB        56.5370   -1.1880   15.7870 C.3    87  SER87       0.2103
     33  OG        56.2590   -2.5410   15.5010 O.3    87  SER87      -0.2182
     34  N         58.3860   -2.0440   13.6710 N.am   88  HIS88      -0.1961
     35  CA        58.5070   -2.0360   12.2270 C.3    88  HIS88       0.1787
     36  C         57.3560   -1.2340   11.6360 C.2    88  HIS88       0.2620
     37  O         56.2990   -1.0480   12.2540 O.2    88  HIS88      -0.2715
     38  CB        58.4910   -3.4560   11.6550 C.3    88  HIS88       0.0785
     39  CG        59.6700   -4.3050   12.0490 C.ar   88  HIS88       0.0821
     40  ND1       60.9470   -4.0760   11.5810 N.ar   88  HIS88      -0.2267
     41  CD2       59.7490   -5.4210   12.8150 C.ar   88  HIS88       0.1154
     42  CE1       61.7650   -5.0060   12.0510 C.ar   88  HIS88       0.1986
     43  NE2       61.0610   -5.8380   12.7980 N.ar   88  HIS88      -0.2212
     44  N         57.5630   -0.7590   10.4190 N.am   89  GLY89      -0.1954
     45  CA        56.5070   -0.0300    9.7520 C.3    89  GLY89       0.1869
     46  C         56.7620    0.0290    8.2680 C.2    89  GLY89       0.2309
     47  O         57.8720   -0.2280    7.7960 O.2    89  GLY89      -0.2863
     48  N         58.6480    5.8430   15.7270 N.3   128  GLN128     -0.1231
     49  CA        59.9000    5.2700   15.2570 C.3   128  GLN128      0.1698
     50  C         59.5300    4.0190   14.4680 C.2   128  GLN128      0.2592
     51  O         59.0840    3.0210   15.0440 O.2   128  GLN128     -0.2718
     52  CB        60.8310    4.9680   16.4320 C.3   128  GLN128      0.0381
     53  CG        62.0120    4.0810   16.1010 C.3   128  GLN128      0.0905
     54  CD        62.8510    4.6100   14.9280 C.2   128  GLN128      0.2608
     55  OE1       63.1690    5.7990   14.8460 O.2   128  GLN128     -0.2717
     56  NE2       63.2260    3.7090   14.0270 N.am  128  GLN128     -0.0878
     57  N         59.6520    4.1050   13.1430 N.am  129  ALA129     -0.1966
     58  CA        59.2370    3.0520   12.2260 C.3   129  ALA129      0.1728
     59  C         59.5650    3.4900   10.8080 C.2   129  ALA129      0.2616
     60  O         59.5130    4.6840   10.5030 O.2   129  ALA129     -0.2715
     61  CB        57.7380    2.7570   12.3350 C.3   129  ALA129      0.0334
     62  N         59.8860    2.5470    9.9310 N.am  130  CYS130     -0.1968
     63  CA        60.0830    2.9040    8.5300 C.3   130  CYS130      0.1712
     64  C         58.7710    3.3900    7.9310 C.2   130  CYS130      0.2296
     65  O         57.6860    3.1330    8.4540 O.2   130  CYS130     -0.2864
     66  CB        60.5990    1.7090    7.7160 C.3   130  CYS130      0.0983
     67  SG        62.3160    1.2370    8.0760 S.3   130  CYS130     -0.0798
     68  N         58.6230    3.0930    4.3310 N.3   132  GLY132     -0.1225
     69  CA        58.9180    2.6720    2.9850 C.3   132  GLY132      0.1811
     70  C         60.3510    2.1830    2.9070 C.2   132  GLY132      0.2280
     71  O         60.9960    1.9500    3.9300 O.2   132  GLY132     -0.2866
     72  N         66.2350    4.7730    0.2830 N.3   135  LEU135     -0.1245
     73  CA        67.4300    5.1660    1.0080 C.3   135  LEU135      0.1561
     74  C         67.7730    6.6060    0.6820 C.2   135  LEU135      0.2260
     75  O         67.6250    7.0420   -0.4570 O.2   135  LEU135     -0.2867
     76  CB        68.6220    4.2740    0.6620 C.3   135  LEU135      0.0270
     77  CG        68.5570    2.8500    1.2130 C.3   135  LEU135      0.0019
     78  CD1       69.1970    1.8530    0.2450 C.3   135  LEU135      0.0001
     79  CD2       69.2060    2.8060    2.5890 C.3   135  LEU135      0.0001
@<TRIPOS>BOND
     1    75    74    2
     2    78    77    1
     3    72    73    1
     4    76    73    1
     5    76    77    1
     6    74    73    1
     7    77    79    1
     8    70    69    1
     9    70    71    2
    10    69    68    1
    11     8     7    1
    12    66    67    1
    13    66    63    1
    14    47    46    2
    15    64    65    2
    16    64    63    1
    17    46    45    1
    18    63    62    1
    19     7     6    1
    20    45    44    1
    21    62    59   am
    22     1     2    1
    23     6     5    1
    24    44    36   am
    25    60    59    2
    26     2     5    1
    27     2     3    1
    28    59    58    1
    29    40    39   ar
    30    40    42   ar
    31    36    35    1
    32    36    37    2
    33    38    39    1
    34    38    35    1
    35     3     4    2
    36    39    41   ar
    37    42    43   ar
    38    58    61    1
    39    58    57    1
    40    35    34    1
    41    43    41   ar
    42    57    50   am
    43    34    30   am
    44    31    30    2
    45    56    54   am
    46    30    29    1
    47    50    51    2
    48    50    49    1
    49    55    54    2
    50    54    53    1
    51    49    48    1
    52    49    52    1
    53    33    32    1
    54    16    15    1
    55    16    17    2
    56    15    14    1
    57    14    13    1
    58    29    32    1
    59    29    28    1
    60    53    52    1
    61    19    17    1
    62    17    18    1
    63    10    13    1
    64    10     9    1
    65    10    11    1
    66    26    25    2
    67    20    11   am
    68    20    21    1
    69    11    12    2
    70    23    22    2
    71    24    25    1
    72    24    21    1
    73    25    27   am
    74    21    22    1
