@<TRIPOS>MOLECULE
tmp/6clvC00.pdb
 219 202 0 0 0
SMALL
GASTEIGER

@<TRIPOS>ATOM
      1  N         69.9670  104.4650  -37.6610 N.3    14  ASP14      -0.1225
      2  CA        70.7360  105.2880  -38.5830 C.3    14  ASP14       0.1805
      3  C         72.2050  104.8860  -38.5280 C.2    14  ASP14       0.2598
      4  O         72.6420  104.1410  -37.6470 O.2    14  ASP14      -0.2718
      5  CB        70.5730  106.7830  -38.2650 C.3    14  ASP14       0.1424
      6  CG        71.0840  107.6810  -39.3820 C.2    14  ASP14       0.3668
      7  OD1       71.3940  107.1590  -40.4740 O.co2  14  ASP14      -0.2456
      8  OD2       71.1840  108.9070  -39.1650 O.co2  14  ASP14      -0.2456
      9  N         72.9670  105.3990  -39.4950 N.am   15  SER15      -0.1938
     10  CA        74.3850  105.0910  -39.6190 C.3    15  SER15       0.2055
     11  C         75.2580  105.8830  -38.6560 C.2    15  SER15       0.2642
     12  O         76.3900  105.4670  -38.3850 O.2    15  SER15      -0.2714
     13  CB        74.8460  105.3610  -41.0530 C.3    15  SER15       0.2130
     14  OG        74.4400  106.6490  -41.4830 O.3    15  SER15      -0.2179
     15  N         74.7660  107.0060  -38.1340 N.am   16  LEU16      -0.1977
     16  CA        75.5960  107.9140  -37.3540 C.3    16  LEU16       0.1596
     17  C         75.5280  107.6750  -35.8520 C.2    16  LEU16       0.2287
     18  O         76.4240  108.1270  -35.1320 O.2    16  LEU16      -0.2864
     19  CB        75.2080  109.3680  -37.6530 C.3    16  LEU16       0.0297
     20  CG        75.4290  109.8050  -39.1030 C.3    16  LEU16       0.0022
     21  CD1       75.2560  111.3080  -39.2560 C.3    16  LEU16       0.0001
     22  CD2       76.8050  109.3690  -39.5800 C.3    16  LEU16       0.0001
     23  N         62.5560  110.9240  -39.4640 N.3    42  VAL42      -0.1231
     24  CA        62.5490  111.0370  -40.9150 C.3    42  VAL42       0.1692
     25  C         63.9000  111.5680  -41.3760 C.2    42  VAL42       0.2592
     26  O         64.6960  112.0840  -40.5910 O.2    42  VAL42      -0.2718
     27  CB        61.4080  111.9410  -41.4260 C.3    42  VAL42       0.0266
     28  CG1       60.0770  111.2130  -41.3420 C.3    42  VAL42       0.0020
     29  CG2       61.3620  113.2370  -40.6310 C.3    42  VAL42       0.0020
     30  N         64.1480  111.4320  -42.6770 N.am   43  SER43      -0.1952
     31  CA        65.3860  111.8990  -43.2870 C.3    43  SER43       0.1924
     32  C         65.0850  112.3710  -44.7000 C.2    43  SER43       0.2314
     33  O         64.4930  111.6280  -45.4890 O.2    43  SER43      -0.2863
     34  CB        66.4460  110.7920  -43.3080 C.3    43  SER43       0.2116
     35  OG        67.5340  111.1440  -44.1450 O.3    43  SER43      -0.2180
     36  N         67.3970  113.0890  -46.8970 N.3    45  ARG45      -0.1245
     37  CA        68.5510  112.8420  -47.7450 C.3    45  ARG45       0.1563
     38  C         68.1230  112.1040  -49.0110 C.2    45  ARG45       0.2260
     39  O         67.2590  111.2220  -48.9550 O.2    45  ARG45      -0.2867
     40  CB        69.6050  112.0290  -46.9950 C.3    45  ARG45       0.0307
     41  CG        69.9580  112.5880  -45.6430 C.3    45  ARG45       0.0489
     42  CD        71.2520  111.9640  -45.1400 C.3    45  ARG45       0.2205
     43  NE        71.8660  112.8510  -44.1760 N.pl3  45  ARG45      -0.0865
     44  CZ        73.0290  113.4620  -44.3400 C.cat  45  ARG45       0.5346
     45  NH1       73.7590  113.2820  -45.4290 N.pl3  45  ARG45       0.1354
     46  NH2       73.4310  114.3150  -43.4250 N.pl3  45  ARG45       0.1354
     47  N         61.9510  116.8060  -35.2410 N.3    77  ASP77      -0.1239
     48  CA        62.5240  116.8700  -36.5850 C.3    77  ASP77       0.1674
     49  C         61.4960  116.3140  -37.5620 C.2    77  ASP77       0.2266
     50  O         61.4090  115.1060  -37.7880 O.2    77  ASP77      -0.2867
     51  CB        63.8400  116.1050  -36.6450 C.3    77  ASP77       0.1410
     52  CG        64.6470  116.4210  -37.8890 C.2    77  ASP77       0.3668
     53  OD1       64.2060  117.2670  -38.6950 O.co2  77  ASP77      -0.2456
     54  OD2       65.7270  115.8200  -38.0620 O.co2  77  ASP77      -0.2456
     55  N         61.8220  121.2530  -35.7300 N.3    96  ASN96      -0.1240
     56  CA        63.0140  121.2240  -36.5740 C.3    96  ASN96       0.1653
     57  C         62.5860  120.8250  -37.9800 C.2    96  ASN96       0.2266
     58  O         62.4140  119.6410  -38.2790 O.2    96  ASN96      -0.2867
     59  CB        64.0470  120.2620  -35.9980 C.3    96  ASN96       0.1155
     60  CG        65.3500  120.2700  -36.7690 C.2    96  ASN96       0.2627
     61  OD1       65.6400  121.2040  -37.5150 O.2    96  ASN96      -0.2716
     62  ND2       66.1480  119.2260  -36.5850 N.am   96  ASN96      -0.0877
     63  N         63.3650  120.3810  -41.7940 N.3    98  GLN98      -0.1245
     64  CA        64.4760  120.2070  -42.7200 C.3    98  GLN98       0.1566
     65  C         64.2330  120.8920  -44.0560 C.2    98  GLN98       0.2260
     66  O         65.1920  121.1370  -44.7960 O.2    98  GLN98      -0.2867
     67  CB        64.7450  118.7170  -42.9500 C.3    98  GLN98       0.0367
     68  CG        65.3900  118.0100  -41.7700 C.3    98  GLN98       0.0905
     69  CD        65.6080  116.5300  -42.0220 C.2    98  GLN98       0.2608
     70  OE1       66.1880  116.1400  -43.0340 O.2    98  GLN98      -0.2717
     71  NE2       65.1410  115.6980  -41.0980 N.am   98  GLN98      -0.0878
     72  N         62.8300  125.5920  -36.7000 N.3   119  VAL119     -0.1245
     73  CA        64.1650  125.5680  -37.2830 C.3   119  VAL119      0.1561
     74  C         64.0220  125.4680  -38.7930 C.2   119  VAL119      0.2260
     75  O         63.3520  124.5620  -39.3040 O.2   119  VAL119     -0.2867
     76  CB        64.9970  124.3990  -36.7300 C.3   119  VAL119      0.0252
     77  CG1       66.3860  124.3970  -37.3490 C.3   119  VAL119      0.0019
     78  CG2       65.0850  124.4800  -35.2180 C.3   119  VAL119      0.0019
     79  N         66.0570  124.8010  -42.0180 N.3   121  MET121     -0.1245
     80  CA        67.3070  124.2400  -42.5060 C.3   121  MET121      0.1570
     81  C         67.4150  124.4290  -44.0130 C.2   121  MET121      0.2261
     82  O         66.4360  124.2560  -44.7430 O.2   121  MET121     -0.2867
     83  CB        67.4120  122.7550  -42.1580 C.3   121  MET121      0.0387
     84  CG        68.8080  122.1860  -42.3290 C.3   121  MET121      0.0595
     85  SD        68.8340  120.3890  -42.3820 S.3   121  MET121     -0.1393
     86  CE        68.1340  120.0960  -44.0010 C.3   121  MET121      0.0692
     87  N         69.5560  127.1190  -39.9900 N.3   160  ASP160     -0.1239
     88  CA        70.5440  126.0590  -40.0530 C.3   160  ASP160      0.1674
     89  C         71.1630  126.0350  -41.4430 C.2   160  ASP160      0.2266
     90  O         70.4270  125.9970  -42.4400 O.2   160  ASP160     -0.2867
     91  CB        69.9050  124.6940  -39.7330 C.3   160  ASP160      0.1410
     92  CG        70.9310  123.6270  -39.3900 C.2   160  ASP160      0.3668
     93  OD1       71.9380  123.4990  -40.1160 O.co2 160  ASP160     -0.2456
     94  OD2       70.7270  122.9090  -38.3890 O.co2 160  ASP160     -0.2456
     95  N         74.2960  121.4720  -43.3690 N.3   163  ILE163     -0.1231
     96  CA        75.4890  120.7600  -43.8030 C.3   163  ILE163      0.1692
     97  C         75.1170  119.3260  -44.1460 C.2   163  ILE163      0.2593
     98  O         74.4820  118.6230  -43.3490 O.2   163  ILE163     -0.2718
     99  CB        76.5740  120.8180  -42.7170 C.3   163  ILE163      0.0266
    100  CG1       76.9860  122.2680  -42.4610 C.3   163  ILE163      0.0019
    101  CG2       77.7820  119.9860  -43.1200 C.3   163  ILE163      0.0020
    102  CD1       77.5820  122.9550  -43.6710 C.3   163  ILE163      0.0001
    103  N         75.5090  118.8850  -45.3370 N.am  164  GLY164     -0.1942
    104  CA        75.1400  117.5730  -45.8190 C.3   164  GLY164      0.2014
    105  C         73.8770  117.5250  -46.6470 C.2   164  GLY164      0.2638
    106  O         73.3730  116.4280  -46.9120 O.2   164  GLY164     -0.2714
    107  N         73.3470  118.6740  -47.0630 N.am  165  PHE165     -0.1973
    108  CA        72.1100  118.7420  -47.8300 C.3   165  PHE165      0.1639
    109  C         72.3280  119.6530  -49.0260 C.2   165  PHE165      0.2290
    110  O         72.5970  120.8470  -48.8560 O.2   165  PHE165     -0.2864
    111  CB        70.9520  119.2570  -46.9700 C.3   165  PHE165      0.0560
    112  CG        70.6480  118.3960  -45.7770 C.ar  165  PHE165     -0.0200
    113  CD1       71.2890  118.6120  -44.5670 C.ar  165  PHE165     -0.0042
    114  CD2       69.7140  117.3760  -45.8610 C.ar  165  PHE165     -0.0042
    115  CE1       71.0080  117.8240  -43.4680 C.ar  165  PHE165     -0.0003
    116  CE2       69.4300  116.5850  -44.7650 C.ar  165  PHE165     -0.0003
    117  CZ        70.0770  116.8100  -43.5680 C.ar  165  PHE165     -0.0000
    118  N         81.3600  118.7330  -50.7720 N.3   169  ARG169     -0.1245
    119  CA        82.3320  118.9700  -49.7100 C.3   169  ARG169      0.1563
    120  C         83.0170  120.3230  -49.8640 C.2   169  ARG169      0.2260
    121  O         83.3980  120.9420  -48.8640 O.2   169  ARG169     -0.2867
    122  CB        83.3720  117.8490  -49.6850 C.3   169  ARG169      0.0307
    123  CG        82.7890  116.4540  -49.5250 C.3   169  ARG169      0.0489
    124  CD        82.1060  116.2810  -48.1770 C.3   169  ARG169      0.2205
    125  NE        80.6780  116.5750  -48.2510 N.pl3 169  ARG169     -0.0865
    126  CZ        79.7580  115.7100  -48.6630 C.cat 169  ARG169      0.5346
    127  NH1       78.4820  116.0660  -48.7000 N.pl3 169  ARG169      0.1354
    128  NH2       80.1130  114.4890  -49.0390 N.pl3 169  ARG169      0.1354
    129  N         80.3460  122.8780  -48.7390 N.3   172  GLU172     -0.1245
    130  CA        80.2530  122.8440  -47.2820 C.3   172  GLU172      0.1567
    131  C         81.3940  123.6310  -46.6570 C.2   172  GLU172      0.2260
    132  O         81.2020  124.3340  -45.6600 O.2   172  GLU172     -0.2867
    133  CB        80.2660  121.4000  -46.7760 C.3   172  GLU172      0.0388
    134  CG        79.0170  120.5940  -47.0870 C.3   172  GLU172      0.1160
    135  CD        79.1840  119.1230  -46.7440 C.2   172  GLU172      0.3649
    136  OE1       78.1820  118.3790  -46.7760 O.co2 172  GLU172     -0.2457
    137  OE2       80.3220  118.7120  -46.4360 O.co2 172  GLU172     -0.2457
    138  N         71.7210  127.6770  -35.7550 N.3   190  LEU190     -0.1245
    139  CA        71.9420  126.3310  -35.2480 C.3   190  LEU190      0.1561
    140  C         72.9020  125.6050  -36.1780 C.2   190  LEU190      0.2260
    141  O         72.6850  125.5690  -37.3940 O.2   190  LEU190     -0.2867
    142  CB        70.6260  125.5590  -35.1380 C.3   190  LEU190      0.0270
    143  CG        70.7540  124.0430  -34.9780 C.3   190  LEU190      0.0019
    144  CD1       71.2830  123.6870  -33.5970 C.3   190  LEU190      0.0001
    145  CD2       69.4210  123.3620  -35.2390 C.3   190  LEU190      0.0001
    146  N         74.6990  122.0550  -37.2280 N.3   192  ALA192     -0.1245
    147  CA        74.5100  120.6060  -37.1660 C.3   192  ALA192      0.1562
    148  C         75.4920  119.9510  -38.1320 C.2   192  ALA192      0.2260
    149  O         75.1970  119.7930  -39.3200 O.2   192  ALA192     -0.2867
    150  CB        73.0680  120.2310  -37.4830 C.3   192  ALA192      0.0290
    151  N         79.2410  114.1810  -36.8390 N.3   195  ARG195     -0.1231
    152  CA        79.5820  112.9030  -37.4630 C.3   195  ARG195      0.1694
    153  C         79.1980  112.8520  -38.9370 C.2   195  ARG195      0.2592
    154  O         78.9650  111.7690  -39.4810 O.2   195  ARG195     -0.2718
    155  CB        78.9330  111.7330  -36.7160 C.3   195  ARG195      0.0321
    156  CG        79.1690  111.7280  -35.2190 C.3   195  ARG195      0.0489
    157  CD        78.5000  110.5240  -34.5820 C.3   195  ARG195      0.2205
    158  NE        78.7990  110.4140  -33.1590 N.pl3 195  ARG195     -0.0865
    159  CZ        78.2610  109.5040  -32.3540 C.cat 195  ARG195      0.5346
    160  NH1       77.3910  108.6260  -32.8340 N.pl3 195  ARG195      0.1354
    161  NH2       78.5890  109.4750  -31.0710 N.pl3 195  ARG195      0.1354
    162  N         79.1340  114.0020  -39.5980 N.am  196  LYS196     -0.1966
    163  CA        78.7590  114.0560  -40.9990 C.3   196  LYS196      0.1728
    164  C         79.9940  113.9040  -41.8820 C.2   196  LYS196      0.2616
    165  O         81.1310  113.8430  -41.4060 O.2   196  LYS196     -0.2715
    166  CB        78.0110  115.3520  -41.3000 C.3   196  LYS196      0.0311
    167  CG        76.6100  115.3930  -40.7190 C.3   196  LYS196      0.0038
    168  CD        75.8610  116.6340  -41.1580 C.3   196  LYS196      0.0206
    169  CE        74.4840  116.6890  -40.5230 C.3   196  LYS196      0.1093
    170  NZ        73.7470  117.9180  -40.9160 N.3   196  LYS196     -0.1314
    171  N         79.7640  113.8330  -43.1950 N.am  197  ARG197     -0.1977
    172  CA        80.8680  113.6570  -44.1300 C.3   197  ARG197      0.1597
    173  C         81.8290  114.8350  -44.0910 C.2   197  ARG197      0.2287
    174  O         83.0060  114.6850  -44.4380 O.2   197  ARG197     -0.2864
    175  CB        80.3300  113.4630  -45.5470 C.3   197  ARG197      0.0334
    176  CG        80.4270  112.0400  -46.0620 C.3   197  ARG197      0.0492
    177  CD        79.2130  111.6830  -46.9010 C.3   197  ARG197      0.2205
    178  NE        79.1720  110.2610  -47.2260 N.pl3 197  ARG197     -0.0865
    179  CZ        78.1190  109.6460  -47.7550 C.cat 197  ARG197      0.5346
    180  NH1       77.0140  110.3290  -48.0210 N.pl3 197  ARG197      0.1354
    181  NH2       78.1710  108.3480  -48.0180 N.pl3 197  ARG197      0.1354
    182  N         84.3840  114.0070  -41.6560 N.3   200  LYS200     -0.1245
    183  CA        85.2970  113.0310  -42.2410 C.3   200  LYS200      0.1561
    184  C         86.3120  113.7130  -43.1480 C.2   200  LYS200      0.2260
    185  O         87.4700  113.2880  -43.2260 O.2   200  LYS200     -0.2867
    186  CB        84.5090  111.9720  -43.0120 C.3   200  LYS200      0.0271
    187  CG        85.3640  110.8710  -43.5880 C.3   200  LYS200      0.0035
    188  CD        84.5160  109.8670  -44.3350 C.3   200  LYS200      0.0206
    189  CE        85.4020  108.9340  -45.1470 C.3   200  LYS200      0.1093
    190  NZ        84.6180  107.8880  -45.8670 N.3   200  LYS200     -0.1314
    191  N         81.6430  106.8150  -37.3960 N.3   209  PRO209     -0.2116
    192  CA        80.9920  108.0450  -36.9130 C.3   209  PRO209      0.1372
    193  C         81.4250  108.4730  -35.5210 C.2   209  PRO209      0.2244
    194  O         81.6090  109.6720  -35.2790 O.2   209  PRO209     -0.2868
    195  CB        79.5030  107.6820  -36.9610 C.3   209  PRO209      0.0268
    196  CG        79.4080  106.6720  -38.0440 C.3   209  PRO209      0.0207
    197  CD        80.6680  105.8630  -37.9590 C.3   209  PRO209      0.0892
    198  N         84.5030  110.6480  -35.0210 N.3   212  ARG212     -0.1245
    199  CA        84.4580  112.0050  -35.5440 C.3   212  ARG212      0.1563
    200  C         83.8900  112.9970  -34.5390 C.2   212  ARG212      0.2260
    201  O         83.5440  114.1190  -34.9190 O.2   212  ARG212     -0.2867
    202  CB        83.6480  112.0460  -36.8410 C.3   212  ARG212      0.0307
    203  CG        84.2280  111.1870  -37.9520 C.3   212  ARG212      0.0489
    204  CD        83.2120  110.9460  -39.0530 C.3   212  ARG212      0.2205
    205  NE        83.4900  109.7190  -39.7930 N.pl3 212  ARG212     -0.0865
    206  CZ        82.7170  109.2440  -40.7640 C.cat 212  ARG212      0.5346
    207  NH1       81.6170  109.8950  -41.1140 N.pl3 212  ARG212      0.1354
    208  NH2       83.0420  108.1190  -41.3850 N.pl3 212  ARG212      0.1354
    209  N         73.6340  121.0020  -32.8630 N.3   232  ARG232     -0.1245
    210  CA        72.9490  119.7120  -32.8890 C.3   232  ARG232      0.1563
    211  C         74.0260  118.6350  -32.9860 C.2   232  ARG232      0.2260
    212  O         74.5880  118.4020  -34.0590 O.2   232  ARG232     -0.2867
    213  CB        71.9680  119.6430  -34.0550 C.3   232  ARG232      0.0307
    214  CG        71.0310  118.4490  -34.0240 C.3   232  ARG232      0.0489
    215  CD        70.1260  118.4310  -35.2470 C.3   232  ARG232      0.2205
    216  NE        69.4230  117.1600  -35.3880 N.pl3 232  ARG232     -0.0865
    217  CZ        69.9160  116.1030  -36.0240 C.cat 232  ARG232      0.5346
    218  NH1       71.1180  116.1660  -36.5800 N.pl3 232  ARG232      0.1354
    219  NH2       69.2100  114.9840  -36.1050 N.pl3 232  ARG232      0.1354
@<TRIPOS>BOND
     1   118   119    1
     2   120   119    1
     3   120   121    2
     4   119   122    1
     5   122   123    1
     6   123   124    1
     7   128   126    1
     8   109   110    2
     9   109   108    1
    10    38    39    2
    11    38    37    1
    12   129   130    1
    13   127   126    1
    14   126   125    2
    15   125   124    1
    16   180   179    1
    17   181   179    1
    18   108   107    1
    19   108   111    1
    20   179   178    2
    21    37    40    1
    22    37    36    1
    23   130   133    1
    24   130   131    1
    25   178   177    1
    26   134   133    1
    27   134   135    1
    28   107   105   am
    29    40    41    1
    30   111   112    1
    31   106   105    2
    32   177   176    1
    33   136   135   ar
    34   135   137   ar
    35   131   132    2
    36   105   104    1
    37   176   175    1
    38   190   189    1
    39   114   112   ar
    40   114   116   ar
    41   104   103    1
    42   112   113   ar
    43    41    42    1
    44   175   172    1
    45    33    32    2
    46    45    44    1
    47   103    97   am
    48   189   188    1
    49    42    43    1
    50    66    65    2
    51   116   117   ar
    52    82    81    2
    53    32    31    1
    54   113   115   ar
    55   174   173    2
    56    44    43    2
    57    44    46    1
    58   188   187    1
    59    97    96    1
    60    97    98    2
    61    35    34    1
    62   172   173    1
    63   172   171    1
    64    65    64    1
    65    81    80    1
    66    86    85    1
    67    96    95    1
    68    96    99    1
    69   102   100    1
    70   187   186    1
    71   117   115   ar
    72    34    31    1
    73    31    30    1
    74   185   184    2
    75   171   164   am
    76   184   183    1
    77   101    99    1
    78    70    69    2
    79   186   183    1
    80    67    64    1
    81    67    68    1
    82    64    63    1
    83    99   100    1
    84    30    25   am
    85    80    83    1
    86    80    79    1
    87    90    89    2
    88    85    84    1
    89    84    83    1
    90   183   182    1
    91    69    68    1
    92    69    71   am
    93   164   165    2
    94   164   163    1
    95    14    13    1
    96    89    88    1
    97    27    28    1
    98    27    24    1
    99    27    29    1
   100   208   206    1
   101    25    24    1
   102    25    26    2
   103   166   163    1
   104   166   167    1
   105   168   167    1
   106   168   169    1
   107   207   206    1
   108    13    10    1
   109   163   162    1
   110   170   169    1
   111    24    23    1
   112   206   205    2
   113     7     6   ar
   114    93    92   ar
   115    88    87    1
   116    88    91    1
   117   205   204    1
   118    91    92    1
   119    10     9    1
   120    10    11    1
   121   162   153   am
   122    22    20    1
   123     9     3   am
   124   154   153    2
   125    92    94   ar
   126     6     8   ar
   127     6     5    1
   128   149   148    2
   129    75    74    2
   130    21    20    1
   131    20    19    1
   132   204   203    1
   133   153   152    1
   134    74    73    1
   135    53    52   ar
   136    11    12    2
   137    11    15   am
   138     2     3    1
   139     2     5    1
   140     2     1    1
   141     3     4    2
   142    58    57    2
   143    15    16    1
   144   148   147    1
   145    54    52   ar
   146   196   197    1
   147   196   195    1
   148    57    56    1
   149   197   191    1
   150   203   202    1
   151    52    51    1
   152    50    49    2
   153    19    16    1
   154    49    48    1
   155    61    60    2
   156   150   147    1
   157   152   151    1
   158   152   155    1
   159   191   192    1
   160   141   140    2
   161    16    17    1
   162    77    76    1
   163    73    76    1
   164    73    72    1
   165   146   147    1
   166   195   192    1
   167   192   193    1
   168   202   199    1
   169    60    62   am
   170    60    59    1
   171    76    78    1
   172   155   156    1
   173    51    48    1
   174    48    47    1
   175   218   217    1
   176    56    59    1
   177    56    55    1
   178   140   139    1
   179   219   217    1
   180   217   216    2
   181    17    18    2
   182   138   139    1
   183   199   198    1
   184   199   200    1
   185   193   194    2
   186   216   215    1
   187   139   142    1
   188   215   214    1
   189   145   143    1
   190   156   157    1
   191   142   143    1
   192   143   144    1
   193   201   200    2
   194   157   158    1
   195   212   211    2
   196   213   214    1
   197   213   210    1
   198   158   159    2
   199   211   210    1
   200   210   209    1
   201   160   159    1
   202   159   161    1
