@<TRIPOS>MOLECULE
tmp/6clxB00.pdb
 209 204 0 0 0
SMALL
GASTEIGER

@<TRIPOS>ATOM
      1  N        -40.5030   29.0090  -41.9720 N.3   130  TRP130     -0.1241
      2  CA       -40.3250   29.2090  -43.4230 C.3   130  TRP130      0.1605
      3  C        -39.4980   30.4310  -43.7540 C.2   130  TRP130      0.2264
      4  O        -38.7380   30.4260  -44.7200 O.2   130  TRP130     -0.2867
      5  CB       -41.6710   29.3080  -44.1570 C.3   130  TRP130      0.0550
      6  CG       -42.4900   28.0690  -44.0550 C.ar  130  TRP130      0.0003
      7  CD1      -43.7710   27.9670  -43.5940 C.ar  130  TRP130      0.0946
      8  CD2      -42.0770   26.7430  -44.3920 C.ar  130  TRP130      0.0152
      9  NE1      -44.1870   26.6590  -43.6330 N.ar  130  TRP130     -0.2442
     10  CE2      -43.1650   25.8860  -44.1150 C.ar  130  TRP130      0.0810
     11  CE3      -40.8920   26.1920  -44.9060 C.ar  130  TRP130      0.0012
     12  CZ2      -43.1050   24.5100  -44.3330 C.ar  130  TRP130      0.0191
     13  CZ3      -40.8310   24.8240  -45.1200 C.ar  130  TRP130      0.0001
     14  CH2      -41.9350   23.9970  -44.8360 C.ar  130  TRP130      0.0015
     15  N        -31.9730   21.6200  -45.7040 N.3   143  PHE143     -0.1227
     16  CA       -33.3620   21.1750  -45.5640 C.3   143  PHE143      0.1736
     17  C        -33.7560   20.2910  -46.7450 C.2   143  PHE143      0.2595
     18  O        -34.2650   19.1900  -46.5550 O.2   143  PHE143     -0.2718
     19  CB       -34.2960   22.3910  -45.4710 C.3   143  PHE143      0.0547
     20  CG       -35.7350   22.0440  -45.2050 C.ar  143  PHE143     -0.0202
     21  CD1      -36.1270   21.5490  -43.9660 C.ar  143  PHE143     -0.0042
     22  CD2      -36.7050   22.2290  -46.1860 C.ar  143  PHE143     -0.0042
     23  CE1      -37.4560   21.2330  -43.7110 C.ar  143  PHE143     -0.0003
     24  CE2      -38.0360   21.9170  -45.9360 C.ar  143  PHE143     -0.0003
     25  CZ       -38.4130   21.4170  -44.6980 C.ar  143  PHE143     -0.0000
     26  N        -33.4830   20.7740  -47.9570 N.am  144  ASP144     -0.1974
     27  CA       -33.8200   20.0510  -49.1890 C.3   144  ASP144      0.1709
     28  C        -33.0360   18.7410  -49.3320 C.2   144  ASP144      0.2293
     29  O        -33.5830   17.7400  -49.8070 O.2   144  ASP144     -0.2864
     30  CB       -33.6010   20.9470  -50.4160 C.3   144  ASP144      0.1436
     31  CG       -34.5020   22.1860  -50.4170 C.2   144  ASP144      0.3671
     32  OD1      -35.5680   22.1770  -49.7600 O.co2 144  ASP144     -0.2456
     33  OD2      -34.1370   23.1810  -51.0760 O.co2 144  ASP144     -0.2456
     34  N        -34.8660   15.1300  -49.1870 N.3   147  ALA147     -0.1245
     35  CA       -34.5730   14.1960  -50.2860 C.3   147  ALA147      0.1562
     36  C        -34.1580   12.7980  -49.8050 C.2   147  ALA147      0.2260
     37  O        -34.3190   11.8210  -50.5400 O.2   147  ALA147     -0.2867
     38  CB       -33.5010   14.7730  -51.2000 C.3   147  ALA147      0.0290
     39  N        -35.5100   11.3820  -46.9720 N.3   149  ARG149     -0.1231
     40  CA       -36.8030   10.7670  -46.6280 C.3   149  ARG149      0.1694
     41  C        -37.5950   10.4230  -47.8900 C.2   149  ARG149      0.2591
     42  O        -38.3280    9.4310  -47.9120 O.2   149  ARG149     -0.2718
     43  CB       -37.6460   11.6730  -45.7200 C.3   149  ARG149      0.0321
     44  CG       -38.7230   10.9140  -44.9490 C.3   149  ARG149      0.0489
     45  CD       -39.5890   11.8250  -44.0910 C.3   149  ARG149      0.2205
     46  NE       -40.4020   12.7330  -44.9020 N.pl3 149  ARG149     -0.0865
     47  CZ       -41.2160   13.6780  -44.4230 C.cat 149  ARG149      0.5346
     48  NH1      -41.3530   13.8770  -43.1090 N.pl3 149  ARG149      0.1354
     49  NH2      -41.9040   14.4370  -45.2740 N.pl3 149  ARG149      0.1354
     50  N        -37.4580   11.2600  -48.9210 N.am  150  ALA150     -0.1980
     51  CA       -38.0230   10.9880  -50.2490 C.3   150  ALA150      0.1597
     52  C        -37.4540    9.7040  -50.8490 C.2   150  ALA150      0.2287
     53  O        -38.1990    8.8910  -51.4030 O.2   150  ALA150     -0.2864
     54  CB       -37.7620   12.1580  -51.1950 C.3   150  ALA150      0.0319
     55  N        -38.9380    6.2980  -49.5590 N.3   153  ILE153     -0.1245
     56  CA       -40.3810    6.1130  -49.7620 C.3   153  ILE153      0.1561
     57  C        -40.8560    6.2210  -51.2280 C.2   153  ILE153      0.2260
     58  O        -42.0240    5.9470  -51.5060 O.2   153  ILE153     -0.2867
     59  CB       -41.1730    7.0860  -48.8370 C.3   153  ILE153      0.0252
     60  CG1      -42.4560    6.4290  -48.3110 C.3   153  ILE153      0.0019
     61  CG2      -41.4670    8.4240  -49.5140 C.3   153  ILE153      0.0019
     62  CD1      -42.2310    5.3540  -47.2610 C.3   153  ILE153      0.0001
     63  N        -45.4910   16.5160  -59.4830 N.3   170  ASP170     -0.1239
     64  CA       -45.1410   16.4050  -58.0600 C.3   170  ASP170      0.1674
     65  C        -45.0940   17.8080  -57.4440 C.2   170  ASP170      0.2266
     66  O        -44.1130   18.5420  -57.6070 O.2   170  ASP170     -0.2867
     67  CB       -43.8090   15.6540  -57.8670 C.3   170  ASP170      0.1410
     68  CG       -43.6480   15.0650  -56.4610 C.2   170  ASP170      0.3668
     69  OD1      -44.2830   15.5540  -55.4990 O.co2 170  ASP170     -0.2456
     70  OD2      -42.8650   14.1030  -56.3160 O.co2 170  ASP170     -0.2456
     71  N        -44.8580   20.4840  -54.4990 N.3   172  GLY172     -0.1210
     72  CA       -43.9960   20.5100  -53.3100 C.3   172  GLY172      0.1956
     73  C        -43.0430   19.3280  -53.2380 C.2   172  GLY172      0.2612
     74  O        -42.6430   18.9120  -52.1470 O.2   172  GLY172     -0.2717
     75  N        -42.6680   18.8110  -54.4120 N.am  173  GLY173     -0.1942
     76  CA       -41.9740   17.5350  -54.5500 C.3   173  GLY173      0.2014
     77  C        -40.4940   17.5220  -54.2060 C.2   173  GLY173      0.2639
     78  O        -39.8690   16.4600  -54.2500 O.2   173  GLY173     -0.2714
     79  N        -39.9250   18.6940  -53.9010 N.am  174  GLY174     -0.1954
     80  CA       -38.5590   18.8070  -53.3850 C.3   174  GLY174      0.1869
     81  C        -37.5340   18.8450  -54.5020 C.2   174  GLY174      0.2309
     82  O        -37.6870   19.5980  -55.4630 O.2   174  GLY174     -0.2863
     83  N        -39.2510   11.3600  -55.8210 N.3   178  VAL178     -0.1245
     84  CA       -40.4780   10.5750  -55.9760 C.3   178  VAL178      0.1561
     85  C        -40.9690   10.6310  -57.4260 C.2   178  VAL178      0.2260
     86  O        -41.4750    9.6340  -57.9460 O.2   178  VAL178     -0.2867
     87  CB       -41.6040   11.0300  -55.0140 C.3   178  VAL178      0.0252
     88  CG1      -42.7970   10.0770  -55.1010 C.3   178  VAL178      0.0019
     89  CG2      -41.0900   11.1190  -53.5800 C.3   178  VAL178      0.0019
     90  N        -42.8280   21.1000  -59.1780 N.3   194  LEU194     -0.1231
     91  CA       -42.9940   22.4370  -58.6150 C.3   194  LEU194      0.1693
     92  C        -42.5020   22.4710  -57.1740 C.2   194  LEU194      0.2592
     93  O        -42.9700   21.7150  -56.3210 O.2   194  LEU194     -0.2718
     94  CB       -44.4490   22.9080  -58.6800 C.3   194  LEU194      0.0284
     95  CG       -44.6810   24.3790  -58.2780 C.3   194  LEU194      0.0019
     96  CD1      -44.1330   25.3360  -59.3290 C.3   194  LEU194      0.0001
     97  CD2      -46.1510   24.6730  -58.0290 C.3   194  LEU194      0.0001
     98  N        -41.5330   23.3480  -56.9360 N.am  195  ASP195     -0.1960
     99  CA       -41.0960   23.7340  -55.5990 C.3   195  ASP195      0.1840
    100  C        -40.4650   25.1260  -55.7740 C.2   195  ASP195      0.2621
    101  O        -40.7760   25.7980  -56.7580 O.2   195  ASP195     -0.2715
    102  CB       -40.1280   22.6890  -55.0200 C.3   195  ASP195      0.1450
    103  CG       -40.2840   22.5230  -53.5190 C.2   195  ASP195      0.3671
    104  OD1      -40.1850   23.5420  -52.8060 O.co2 195  ASP195     -0.2456
    105  OD2      -40.5130   21.3860  -53.0550 O.co2 195  ASP195     -0.2456
    106  N        -39.6050   25.5690  -54.8560 N.am  196  ARG196     -0.1977
    107  CA       -38.8970   26.8480  -55.0330 C.3   196  ARG196      0.1597
    108  C        -37.7330   26.7070  -56.0240 C.2   196  ARG196      0.2287
    109  O        -37.1810   25.6170  -56.1970 O.2   196  ARG196     -0.2864
    110  CB       -38.4090   27.3970  -53.6910 C.3   196  ARG196      0.0334
    111  CG       -39.5370   27.8220  -52.7580 C.3   196  ARG196      0.0492
    112  CD       -39.0420   28.1390  -51.3510 C.3   196  ARG196      0.2205
    113  NE       -38.6830   26.9340  -50.5850 N.pl3 196  ARG196     -0.0865
    114  CZ       -37.4550   26.4120  -50.4430 C.cat 196  ARG196      0.5346
    115  NH1      -37.2980   25.3070  -49.7130 N.pl3 196  ARG196      0.1354
    116  NH2      -36.3780   26.9610  -51.0130 N.pl3 196  ARG196      0.1354
    117  N        -34.4360   25.0620  -55.0200 N.3   199  THR199     -0.1218
    118  CA       -34.7430   23.6610  -54.7100 C.3   199  THR199      0.1862
    119  C        -34.8630   22.8130  -55.9830 C.2   199  THR199      0.2287
    120  O        -34.3350   21.7010  -56.0360 O.2   199  THR199     -0.2866
    121  CB       -36.0530   23.5290  -53.8940 C.3   199  THR199      0.1770
    122  OG1      -36.0380   24.4410  -52.7880 O.3   199  THR199     -0.2211
    123  CG2      -36.2350   22.1070  -53.3750 C.3   199  THR199      0.0375
    124  N        -41.3330   27.7880  -58.4930 N.3   221  GLY221     -0.1210
    125  CA       -42.5430   28.5450  -58.1580 C.3   221  GLY221      0.1956
    126  C        -43.0770   28.3880  -56.7410 C.2   221  GLY221      0.2613
    127  O        -42.3230   28.1190  -55.8010 O.2   221  GLY221     -0.2717
    128  N        -44.3900   28.5810  -56.6050 N.am  222  SER222     -0.1938
    129  CA       -45.0980   28.5320  -55.3210 C.3   222  SER222      0.2055
    130  C        -46.4560   27.8440  -55.4750 C.2   222  SER222      0.2643
    131  O        -47.3240   28.3570  -56.1890 O.2   222  SER222     -0.2714
    132  CB       -45.2990   29.9530  -54.7810 C.3   222  SER222      0.2130
    133  OG       -46.2940   30.0030  -53.7690 O.3   222  SER222     -0.2179
    134  N        -46.6570   26.7190  -54.7820 N.am  223  PHE223     -0.1959
    135  CA       -47.9160   25.9590  -54.9090 C.3   223  PHE223      0.1771
    136  C        -49.1720   26.6270  -54.3070 C.2   223  PHE223      0.2619
    137  O        -50.2750   26.0950  -54.4630 O.2   223  PHE223     -0.2715
    138  CB       -47.7780   24.4730  -54.4740 C.3   223  PHE223      0.0574
    139  CG       -47.2780   24.2380  -53.0580 C.ar  223  PHE223     -0.0200
    140  CD1      -47.6650   25.0360  -51.9760 C.ar  223  PHE223     -0.0042
    141  CD2      -46.4480   23.1450  -52.7980 C.ar  223  PHE223     -0.0042
    142  CE1      -47.2050   24.7690  -50.6910 C.ar  223  PHE223     -0.0003
    143  CE2      -45.9910   22.8780  -51.5120 C.ar  223  PHE223     -0.0003
    144  CZ       -46.3690   23.6900  -50.4590 C.ar  223  PHE223     -0.0000
    145  N        -49.0020   27.7650  -53.6210 N.am  224  PHE224     -0.1974
    146  CA       -50.1300   28.6020  -53.1760 C.3   224  PHE224      0.1639
    147  C        -50.7020   29.4840  -54.2860 C.2   224  PHE224      0.2290
    148  O        -51.8900   29.8110  -54.2620 O.2   224  PHE224     -0.2864
    149  CB       -49.7190   29.4830  -51.9940 C.3   224  PHE224      0.0560
    150  CG       -49.4170   28.7100  -50.7480 C.ar  224  PHE224     -0.0200
    151  CD1      -50.4380   28.0820  -50.0500 C.ar  224  PHE224     -0.0042
    152  CD2      -48.1170   28.6070  -50.2660 C.ar  224  PHE224     -0.0042
    153  CE1      -50.1690   27.3660  -48.8970 C.ar  224  PHE224     -0.0003
    154  CE2      -47.8440   27.8930  -49.1090 C.ar  224  PHE224     -0.0003
    155  CZ       -48.8730   27.2680  -48.4260 C.ar  224  PHE224     -0.0000
    156  N        -46.7800   14.3410  -51.8380 N.3   237  VAL237     -0.1231
    157  CA       -46.0850   13.3560  -51.0040 C.3   237  VAL237      0.1692
    158  C        -45.5520   14.0380  -49.7420 C.2   237  VAL237      0.2592
    159  O        -44.5890   14.8120  -49.8050 O.2   237  VAL237     -0.2718
    160  CB       -44.9270   12.6780  -51.7720 C.3   237  VAL237      0.0266
    161  CG1      -44.3890   11.4830  -50.9930 C.3   237  VAL237      0.0020
    162  CG2      -45.3920   12.2380  -53.1510 C.3   237  VAL237      0.0020
    163  N        -46.1860   13.7410  -48.6050 N.am  238  ASN238     -0.1960
    164  CA       -45.8570   14.3430  -47.3060 C.3   238  ASN238      0.1819
    165  C        -45.6620   15.8560  -47.3980 C.2   238  ASN238      0.2621
    166  O        -44.6250   16.3700  -46.9840 O.2   238  ASN238     -0.2715
    167  CB       -44.6000   13.7010  -46.6850 C.3   238  ASN238      0.1195
    168  CG       -44.7740   12.2280  -46.3620 C.2   238  ASN238      0.2630
    169  OD1      -44.0010   11.3920  -46.8220 O.2   238  ASN238     -0.2716
    170  ND2      -45.7730   11.9060  -45.5490 N.am  238  ASN238     -0.0877
    171  N        -46.6480   16.5570  -47.9560 N.am  239  VAL239     -0.1977
    172  CA       -46.6040   18.0360  -48.0430 C.3   239  VAL239      0.1596
    173  C        -47.6840   18.7290  -47.1780 C.2   239  VAL239      0.2287
    174  O        -47.4250   19.8090  -46.6470 O.2   239  VAL239     -0.2864
    175  CB       -46.5030   18.5720  -49.5240 C.3   239  VAL239      0.0276
    176  CG1      -46.8820   17.5170  -50.5600 C.3   239  VAL239      0.0022
    177  CG2      -47.2790   19.8780  -49.7590 C.3   239  VAL239      0.0022
    178  N        -48.9210   17.8450  -44.1510 N.3   241  HIS241     -0.1226
    179  CA       -48.6240   17.8380  -42.7060 C.3   241  HIS241      0.1752
    180  C        -47.7800   19.0360  -42.2230 C.2   241  HIS241      0.2596
    181  O        -47.7080   19.2990  -41.0210 O.2   241  HIS241     -0.2718
    182  CB       -48.0000   16.4930  -42.2610 C.3   241  HIS241      0.0759
    183  CG       -46.5130   16.4070  -42.4410 C.ar  241  HIS241      0.0818
    184  ND1      -45.8930   16.6200  -43.6540 N.ar  241  HIS241     -0.2268
    185  CD2      -45.5250   16.1120  -41.5620 C.ar  241  HIS241      0.1154
    186  CE1      -44.5870   16.4730  -43.5100 C.ar  241  HIS241      0.1986
    187  NE2      -44.3380   16.1640  -42.2500 N.ar  241  HIS241     -0.2212
    188  N        -47.1530   19.7500  -43.1570 N.am  242  ASP242     -0.1960
    189  CA       -46.4590   21.0120  -42.8650 C.3   242  ASP242      0.1840
    190  C        -47.3640   22.2270  -42.6180 C.2   242  ASP242      0.2622
    191  O        -46.8940   23.2460  -42.1060 O.2   242  ASP242     -0.2715
    192  CB       -45.5060   21.3570  -44.0170 C.3   242  ASP242      0.1450
    193  CG       -44.2600   20.4900  -44.0410 C.2   242  ASP242      0.3671
    194  OD1      -44.0840   19.5840  -43.1990 O.co2 242  ASP242     -0.2456
    195  OD2      -43.4290   20.7340  -44.9210 O.co2 242  ASP242     -0.2456
    196  N        -48.6430   22.1280  -42.9730 N.am  243  TRP243     -0.1974
    197  CA       -49.5000   23.3040  -43.0900 C.3   243  TRP243      0.1640
    198  C        -50.7390   23.2290  -42.2230 C.2   243  TRP243      0.2290
    199  O        -51.3710   22.1780  -42.1270 O.2   243  TRP243     -0.2864
    200  CB       -49.9130   23.4770  -44.5480 C.3   243  TRP243      0.0576
    201  CG       -48.7370   23.6600  -45.4200 C.ar  243  TRP243      0.0006
    202  CD1      -48.1630   22.7250  -46.2130 C.ar  243  TRP243      0.0946
    203  CD2      -47.9480   24.8430  -45.5480 C.ar  243  TRP243      0.0152
    204  NE1      -47.0690   23.2500  -46.8560 N.ar  243  TRP243     -0.2442
    205  CE2      -46.9130   24.5540  -46.4630 C.ar  243  TRP243      0.0810
    206  CE3      -48.0200   26.1250  -44.9840 C.ar  243  TRP243      0.0012
    207  CZ2      -45.9530   25.5000  -46.8320 C.ar  243  TRP243      0.0191
    208  CZ3      -47.0660   27.0700  -45.3500 C.ar  243  TRP243      0.0001
    209  CH2      -46.0460   26.7510  -46.2650 C.ar  243  TRP243      0.0015
@<TRIPOS>BOND
     1    63    64    1
     2    96    95    1
     3    90    91    1
     4    94    91    1
     5    94    95    1
     6    91    92    1
     7   124   125    1
     8    95    97    1
     9   125   126    1
    10    64    67    1
    11    64    65    1
    12    86    85    2
    13    67    68    1
    14    66    65    2
    15    85    84    1
    16    92    98   am
    17    92    93    2
    18    98    99    1
    19   101   100    2
    20   126   128   am
    21   126   127    2
    22   128   129    1
    23    68    70   ar
    24    68    69   ar
    25   109   108    2
    26   131   130    2
    27   120   119    2
    28   108   107    1
    29   119   118    1
    30    84    83    1
    31    84    87    1
    32   100    99    1
    33   100   106   am
    34    99   102    1
    35   130   129    1
    36   130   134   am
    37    82    81    2
    38   129   132    1
    39    88    87    1
    40   107   106    1
    41   107   110    1
    42   102   103    1
    43   117   118    1
    44    87    89    1
    45   135   134    1
    46   135   138    1
    47   135   136    1
    48   132   133    1
    49   118   121    1
    50    76    75    1
    51    76    77    1
    52    81    80    1
    53    71    72    1
    54   138   139    1
    55   137   136    2
    56    75    73   am
    57   136   145   am
    58   147   148    2
    59   147   146    1
    60    78    77    2
    61    77    79   am
    62    79    80    1
    63   121   123    1
    64   121   122    1
    65   110   111    1
    66   145   146    1
    67   103   105   ar
    68   103   104   ar
    69    72    73    1
    70    73    74    2
    71   146   149    1
    72   162   160    1
    73   139   141   ar
    74   139   140   ar
    75   141   143   ar
    76   111   112    1
    77   149   150    1
    78   140   142   ar
    79   156   157    1
    80   160   157    1
    81   160   161    1
    82   143   144   ar
    83    58    57    2
    84    53    52    2
    85   112   113    1
    86    57    56    1
    87    38    35    1
    88    54    51    1
    89    33    31   ar
    90   116   114    1
    91   157   158    1
    92    52    51    1
    93   150   152   ar
    94   150   151   ar
    95   142   144   ar
    96   113   114    2
    97   176   175    1
    98    37    36    2
    99   114   115    1
   100    31    30    1
   101    31    32   ar
   102    30    27    1
   103    35    36    1
   104    35    34    1
   105   152   154   ar
   106    51    50    1
   107   151   153   ar
   108    29    28    2
   109   159   158    2
   110    56    55    1
   111    56    59    1
   112   177   175    1
   113   158   163   am
   114   175   172    1
   115    61    59    1
   116    28    27    1
   117    27    26    1
   118   154   155   ar
   119    50    41   am
   120   153   155   ar
   121    59    60    1
   122   163   164    1
   123    60    62    1
   124   172   171    1
   125   172   173    1
   126    26    17   am
   127   171   165   am
   128    42    41    2
   129    41    40    1
   130   165   164    1
   131   165   166    2
   132   164   167    1
   133   173   174    2
   134    39    40    1
   135   204   205   ar
   136   204   202   ar
   137   207   205   ar
   138   207   209   ar
   139   169   168    2
   140    17    18    2
   141    17    16    1
   142   167   168    1
   143    40    43    1
   144   205   203   ar
   145   168   170   am
   146   209   208   ar
   147   202   201   ar
   148    22    24   ar
   149    22    20   ar
   150    24    25   ar
   151    43    44    1
   152    15    16    1
   153    16    19    1
   154   203   201   ar
   155   203   206   ar
   156    19    20    1
   157   201   200    1
   158   208   206   ar
   159    49    47    1
   160    20    21   ar
   161    13    11   ar
   162    13    14   ar
   163    44    45    1
   164   195   193   ar
   165    11     8   ar
   166    46    47    2
   167    46    45    1
   168    14    12   ar
   169     4     3    2
   170    25    23   ar
   171   200   197    1
   172    47    48    1
   173     8    10   ar
   174     8     6   ar
   175    12    10   ar
   176     5     6    1
   177     5     2    1
   178   178   179    1
   179    10     9   ar
   180     6     7   ar
   181   193   192    1
   182   193   194   ar
   183   192   189    1
   184    21    23   ar
   185     3     2    1
   186   184   186   ar
   187   184   183   ar
   188     9     7   ar
   189   186   187   ar
   190     2     1    1
   191   188   189    1
   192   188   180   am
   193   197   196    1
   194   197   198    1
   195   196   190   am
   196   189   190    1
   197   179   182    1
   198   179   180    1
   199   190   191    2
   200   183   182    1
   201   183   185   ar
   202   187   185   ar
   203   198   199    2
   204   180   181    2
