@<TRIPOS>MOLECULE
tmp/6cm4A00.pdb
 223 218 0 0 0
SMALL
GASTEIGER

@<TRIPOS>ATOM
      1  N         -0.3820    3.5400  -11.6460 N.3    57  VAL57      -0.1245
      2  CA         0.5550    2.4530  -11.9120 C.3    57  VAL57       0.1561
      3  C         -0.1810    1.1880  -12.3410 C.2    57  VAL57       0.2260
      4  O          0.2720    0.4680  -13.2390 O.2    57  VAL57      -0.2867
      5  CB         1.4470    2.2030  -10.6830 C.3    57  VAL57       0.0252
      6  CG1        2.3310    0.9840  -10.9050 C.3    57  VAL57       0.0019
      7  CG2        2.2950    3.4270  -10.3950 C.3    57  VAL57       0.0019
      8  N         -1.2500    1.7240  -15.7220 N.3    60  LEU60      -0.1245
      9  CA        -0.0900    1.5900  -16.5920 C.3    60  LEU60       0.1561
     10  C          0.1870    0.1430  -16.9840 C.2    60  LEU60       0.2260
     11  O          0.8060   -0.0960  -18.0270 O.2    60  LEU60      -0.2867
     12  CB         1.1310    2.1920  -15.8930 C.3    60  LEU60       0.0270
     13  CG         2.3620    2.4810  -16.7450 C.3    60  LEU60       0.0019
     14  CD1        1.9520    3.2410  -17.9870 C.3    60  LEU60       0.0001
     15  CD2        3.3660    3.2770  -15.9310 C.3    60  LEU60       0.0001
     16  N          2.1100    4.1740  -21.6140 N.3    66  TRP66      -0.1241
     17  CA         1.8710    5.4460  -20.9320 C.3    66  TRP66       0.1605
     18  C          0.8920    6.3020  -21.7420 C.2    66  TRP66       0.2264
     19  O          1.2170    7.3820  -22.2360 O.2    66  TRP66      -0.2867
     20  CB         3.1880    6.1770  -20.7020 C.3    66  TRP66       0.0550
     21  CG         4.1480    5.4710  -19.7840 C.ar   66  TRP66       0.0003
     22  CD1        4.7310    4.2520  -19.9830 C.ar   66  TRP66       0.0946
     23  CD2        4.6550    5.9580  -18.5340 C.ar   66  TRP66       0.0152
     24  NE1        5.5580    3.9440  -18.9280 N.ar   66  TRP66      -0.2442
     25  CE2        5.5300    4.9750  -18.0270 C.ar   66  TRP66       0.0810
     26  CE3        4.4490    7.1250  -17.7920 C.ar   66  TRP66       0.0012
     27  CZ2        6.1980    5.1250  -16.8110 C.ar   66  TRP66       0.0191
     28  CZ3        5.1140    7.2730  -16.5830 C.ar   66  TRP66       0.0001
     29  CH2        5.9770    6.2790  -16.1070 C.ar   66  TRP66       0.0015
     30  N          0.9490   12.9450  -12.6480 N.3    76  PHE76      -0.1227
     31  CA         1.2500   11.6580  -12.0310 C.3    76  PHE76       0.1736
     32  C          2.6790   11.6220  -11.5100 C.2    76  PHE76       0.2595
     33  O          2.9210   11.2360  -10.3610 O.2    76  PHE76      -0.2718
     34  CB         0.9970   10.5300  -13.0340 C.3    76  PHE76       0.0547
     35  CG         1.6920    9.2340  -12.7000 C.ar   76  PHE76      -0.0202
     36  CD1        1.5790    8.6620  -11.4440 C.ar   76  PHE76      -0.0042
     37  CD2        2.4370    8.5730  -13.6600 C.ar   76  PHE76      -0.0042
     38  CE1        2.2160    7.4720  -11.1500 C.ar   76  PHE76      -0.0003
     39  CE2        3.0700    7.3830  -13.3720 C.ar   76  PHE76      -0.0003
     40  CZ         2.9600    6.8330  -12.1160 C.ar   76  PHE76      -0.0000
     41  N          3.6410   12.0340  -12.3400 N.am   77  VAL77      -0.1980
     42  CA         5.0430   11.9870  -11.9300 C.3    77  VAL77       0.1595
     43  C          5.2880   12.9240  -10.7570 C.2    77  VAL77       0.2287
     44  O          6.0260   12.5900   -9.8220 O.2    77  VAL77      -0.2864
     45  CB         5.9600   12.3170  -13.1190 C.3    77  VAL77       0.0276
     46  CG1        7.4050   12.3360  -12.6710 C.3    77  VAL77       0.0022
     47  CG2        5.7580   11.3080  -14.2350 C.3    77  VAL77       0.0022
     48  N          3.7940   11.1740   -7.7680 N.3    80  ASP80      -0.1225
     49  CA         4.5980    9.9990   -7.4450 C.3    80  ASP80       0.1805
     50  C          5.8850   10.3920   -6.7340 C.2    80  ASP80       0.2597
     51  O          6.2620    9.7780   -5.7300 O.2    80  ASP80      -0.2718
     52  CB         4.9010    9.2080   -8.7200 C.3    80  ASP80       0.1424
     53  CG         5.9510    8.1330   -8.5090 C.2    80  ASP80       0.3668
     54  OD1        5.7460    7.2550   -7.6480 O.co2  80  ASP80      -0.2456
     55  OD2        6.9810    8.1610   -9.2140 O.co2  80  ASP80      -0.2456
     56  N          6.5680   11.4210   -7.2350 N.am   81  VAL81      -0.1980
     57  CA         7.8090   11.8650   -6.6100 C.3    81  VAL81       0.1595
     58  C          7.5350   12.4610   -5.2340 C.2    81  VAL81       0.2287
     59  O          8.2820   12.2200   -4.2790 O.2    81  VAL81      -0.2864
     60  CB         8.5360   12.8620   -7.5310 C.3    81  VAL81       0.0276
     61  CG1        9.6830   13.5290   -6.8040 C.3    81  VAL81       0.0022
     62  CG2        9.0430   12.1560   -8.7780 C.3    81  VAL81       0.0022
     63  N          6.4490    9.8670   -2.4340 N.3    84  CYS84      -0.1221
     64  CA         7.5760    9.0230   -2.0620 C.3    84  CYS84       0.1808
     65  C          8.6890    9.8130   -1.3870 C.2    84  CYS84       0.2601
     66  O          9.4350    9.2490   -0.5780 O.2    84  CYS84      -0.2717
     67  CB         8.1210    8.2950   -3.2950 C.3    84  CYS84       0.0970
     68  SG         6.9740    7.0930   -4.0210 S.3    84  CYS84      -0.0800
     69  N          8.8190   11.1050   -1.7030 N.am   85  THR85      -0.1953
     70  CA         9.7690   11.9470   -0.9850 C.3    85  THR85       0.1897
     71  C          9.3000   12.2120    0.4400 C.2    85  THR85       0.2313
     72  O         10.1250   12.2950    1.3570 O.2    85  THR85      -0.2863
     73  CB         9.9810   13.2710   -1.7280 C.3    85  THR85       0.1794
     74  OG1       10.2680   13.0090   -3.1050 O.3    85  THR85      -0.2208
     75  CG2       11.1480   14.0450   -1.1290 C.3    85  THR85       0.0378
     76  N         10.5220    9.5000    2.5440 N.3    88  ALA88      -0.1245
     77  CA        11.9320    9.6320    2.8820 C.3    88  ALA88       0.1562
     78  C         12.1440   10.7310    3.9110 C.2    88  ALA88       0.2260
     79  O         12.8700   10.5440    4.8930 O.2    88  ALA88      -0.2867
     80  CB        12.7460    9.9050    1.6210 C.3    88  ALA88       0.0290
     81  N          9.0200   13.0660  -17.0780 N.3   146  ILE146     -0.1245
     82  CA         9.8080   11.8480  -16.9450 C.3   146  ILE146      0.1561
     83  C         10.6490   11.6030  -18.1870 C.2   146  ILE146      0.2260
     84  O         11.5890   10.8020  -18.1480 O.2   146  ILE146     -0.2867
     85  CB         8.9070   10.6360  -16.6450 C.3   146  ILE146      0.0252
     86  CG1        9.6940    9.5740  -15.8760 C.3   146  ILE146      0.0019
     87  CG2        8.3460   10.0520  -17.9320 C.3   146  ILE146      0.0019
     88  CD1        8.8610    8.3830  -15.4560 C.3   146  ILE146      0.0001
     89  N         15.5540   14.3860  -15.0940 N.3   151  PHE151     -0.1241
     90  CA        14.6400   13.9360  -14.0510 C.3   151  PHE151      0.1605
     91  C         15.2760   12.8510  -13.1930 C.2   151  PHE151      0.2264
     92  O         15.1280   12.8560  -11.9640 O.2   151  PHE151     -0.2867
     93  CB        13.3350   13.4370  -14.6710 C.3   151  PHE151      0.0534
     94  CG        12.4260   12.7540  -13.6930 C.ar  151  PHE151     -0.0203
     95  CD1       11.6900   13.4900  -12.7800 C.ar  151  PHE151     -0.0042
     96  CD2       12.3060   11.3750  -13.6830 C.ar  151  PHE151     -0.0042
     97  CE1       10.8530   12.8610  -11.8730 C.ar  151  PHE151     -0.0003
     98  CE2       11.4710   10.7420  -12.7790 C.ar  151  PHE151     -0.0003
     99  CZ        10.7450   11.4860  -11.8740 C.ar  151  PHE151     -0.0000
    100  N         15.4570   13.4490   -9.1140 N.3   155  SER155     -0.1217
    101  CA        14.7150   12.6540   -8.1390 C.3   155  SER155      0.1889
    102  C         15.6150   11.6810   -7.3860 C.2   155  SER155      0.2288
    103  O         15.2940   11.2860   -6.2600 O.2   155  SER155     -0.2866
    104  CB        13.5800   11.8970   -8.8300 C.3   155  SER155      0.2089
    105  OG        14.0750   10.9340   -9.7410 O.3   155  SER155     -0.2183
    106  N         15.5710   13.7780   -3.9110 N.3   159  SER159     -0.1202
    107  CA        14.5050   13.0730   -3.2110 C.3   159  SER159      0.2020
    108  C         14.9860   11.8390   -2.4600 C.2   159  SER159      0.2618
    109  O         14.3040   11.4010   -1.5280 O.2   159  SER159     -0.2717
    110  CB        13.4010   12.6680   -4.1910 C.3   159  SER159      0.2103
    111  OG        12.4160   13.6770   -4.2970 O.3   159  SER159     -0.2182
    112  N         16.1340   11.2650   -2.8240 N.am  160  PHE160     -0.1975
    113  CA        16.5630   10.0060   -2.2250 C.3   160  PHE160      0.1639
    114  C         17.9510   10.0800   -1.5970 C.2   160  PHE160      0.2290
    115  O         18.0760    9.8530   -0.3910 O.2   160  PHE160     -0.2864
    116  CB        16.5180    8.8870   -3.2690 C.3   160  PHE160      0.0560
    117  CG        16.8360    7.5250   -2.7140 C.ar  160  PHE160     -0.0200
    118  CD1       15.8890    6.8220   -1.9860 C.ar  160  PHE160     -0.0042
    119  CD2       18.0740    6.9440   -2.9270 C.ar  160  PHE160     -0.0042
    120  CE1       16.1730    5.5660   -1.4810 C.ar  160  PHE160     -0.0003
    121  CE2       18.3650    5.6870   -2.4230 C.ar  160  PHE160     -0.0003
    122  CZ        17.4120    4.9970   -1.7000 C.ar  160  PHE160     -0.0000
    123  N         13.2310    0.3080    4.2140 N.3   363  PHE363     -0.1241
    124  CA        13.0140    1.2980    3.1660 C.3   363  PHE363      0.1605
    125  C         14.1650    1.2940    2.1710 C.2   363  PHE363      0.2264
    126  O         13.9530    1.1860    0.9580 O.2   363  PHE363     -0.2867
    127  CB        12.8440    2.6790    3.7960 C.3   363  PHE363      0.0534
    128  CG        12.5140    3.7670    2.8150 C.ar  363  PHE363     -0.0203
    129  CD1       11.2030    4.0130    2.4520 C.ar  363  PHE363     -0.0042
    130  CD2       13.5130    4.5600    2.2760 C.ar  363  PHE363     -0.0042
    131  CE1       10.8950    5.0210    1.5570 C.ar  363  PHE363     -0.0003
    132  CE2       13.2110    5.5660    1.3800 C.ar  363  PHE363     -0.0003
    133  CZ        11.9000    5.7970    1.0210 C.ar  363  PHE363     -0.0000
    134  N         14.0180    0.3840   -2.0240 N.3   367  TRP367     -0.1241
    135  CA        14.2130    1.3500   -3.0950 C.3   367  TRP367      0.1605
    136  C         15.6180    1.3460   -3.6770 C.2   367  TRP367      0.2264
    137  O         15.8120    1.8740   -4.7760 O.2   367  TRP367     -0.2867
    138  CB        13.8850    2.7670   -2.6120 C.3   367  TRP367      0.0550
    139  CG        12.4150    3.0710   -2.5650 C.ar  367  TRP367      0.0003
    140  CD1       11.6480    3.2360   -1.4480 C.ar  367  TRP367      0.0946
    141  CD2       11.5340    3.2440   -3.6840 C.ar  367  TRP367      0.0152
    142  NE1       10.3480    3.5020   -1.8010 N.ar  367  TRP367     -0.2442
    143  CE2       10.2510    3.5120   -3.1680 C.ar  367  TRP367      0.0810
    144  CE3       11.7060    3.2000   -5.0720 C.ar  367  TRP367      0.0012
    145  CZ2        9.1460    3.7360   -3.9880 C.ar  367  TRP367      0.0191
    146  CZ3       10.6060    3.4210   -5.8850 C.ar  367  TRP367      0.0001
    147  CH2        9.3430    3.6840   -5.3400 C.ar  367  TRP367      0.0015
    148  N         16.1570   -0.1680   -7.0770 N.3   370  PHE370     -0.1227
    149  CA        15.5880    0.6990   -8.1030 C.3   370  PHE370      0.1736
    150  C         16.5810    1.7760   -8.5240 C.2   370  PHE370      0.2595
    151  O         16.7910    2.0090   -9.7190 O.2   370  PHE370     -0.2718
    152  CB        14.2870    1.3230   -7.5920 C.3   370  PHE370      0.0547
    153  CG        13.6700    2.3190   -8.5360 C.ar  370  PHE370     -0.0202
    154  CD1       12.9470    1.8970   -9.6380 C.ar  370  PHE370     -0.0042
    155  CD2       13.7950    3.6770   -8.3090 C.ar  370  PHE370     -0.0042
    156  CE1       12.3740    2.8120  -10.5010 C.ar  370  PHE370     -0.0003
    157  CE2       13.2210    4.5930   -9.1690 C.ar  370  PHE370     -0.0003
    158  CZ        12.5080    4.1600  -10.2630 C.ar  370  PHE370     -0.0000
    159  N         17.2110    2.4380   -7.5530 N.am  371  PHE371     -0.1976
    160  CA        18.1540    3.5030   -7.8650 C.3   371  PHE371      0.1639
    161  C         19.5200    2.9770   -8.2850 C.2   371  PHE371      0.2290
    162  O         20.2660    3.6990   -8.9550 O.2   371  PHE371     -0.2864
    163  CB        18.2900    4.4410   -6.6660 C.3   371  PHE371      0.0560
    164  CG        17.0460    5.2290   -6.3840 C.ar  371  PHE371     -0.0200
    165  CD1       16.7700    6.3840   -7.0950 C.ar  371  PHE371     -0.0042
    166  CD2       16.1460    4.8100   -5.4230 C.ar  371  PHE371     -0.0042
    167  CE1       15.6240    7.1100   -6.8480 C.ar  371  PHE371     -0.0003
    168  CE2       14.9950    5.5330   -5.1710 C.ar  371  PHE371     -0.0003
    169  CZ        14.7350    6.6850   -5.8840 C.ar  371  PHE371     -0.0000
    170  N         19.1870    2.7420  -12.0310 N.3   374  HIS374     -0.1241
    171  CA        19.3630    3.9570  -12.7380 C.3   374  HIS374      0.1621
    172  C         20.8090    4.1810  -13.0330 C.2   374  HIS374      0.2264
    173  O         21.1450    4.6510  -14.0710 O.2   374  HIS374     -0.2867
    174  CB        18.8630    5.0740  -11.8930 C.3   374  HIS374      0.0745
    175  CG        17.4120    5.3340  -12.0640 C.ar  374  HIS374      0.0817
    176  ND1       16.8150    5.3550  -13.2960 N.ar  374  HIS374     -0.2268
    177  CD2       16.4400    5.5910  -11.1680 C.ar  374  HIS374      0.1154
    178  CE1       15.5360    5.6220  -13.1550 C.ar  374  HIS374      0.1986
    179  NE2       15.2820    5.7620  -11.8720 N.ar  374  HIS374     -0.2212
    180  N         13.2570   -5.1750  -19.1870 N.3   386  PRO386     -0.2116
    181  CA        12.1260   -4.3810  -18.6860 C.3   386  PRO386      0.1372
    182  C         11.3200   -5.0930  -17.6210 C.2   386  PRO386      0.2244
    183  O         10.6560   -4.4250  -16.8200 O.2   386  PRO386     -0.2868
    184  CB        11.2920   -4.1190  -19.9480 C.3   386  PRO386      0.0268
    185  CG        11.6910   -5.1970  -20.8990 C.3   386  PRO386      0.0207
    186  CD        13.1410   -5.4560  -20.6270 C.3   386  PRO386      0.0892
    187  N         13.3700   -3.9560  -14.6500 N.3   389  TYR389     -0.1227
    188  CA        13.1430   -2.5990  -14.2990 C.3   389  TYR389      0.1736
    189  C         11.7640   -2.4930  -13.7130 C.2   389  TYR389      0.2596
    190  O         11.5780   -1.7950  -12.7660 O.2   389  TYR389     -0.2718
    191  CB        13.2630   -1.7460  -15.5210 C.3   389  TYR389      0.0548
    192  CG        13.9090   -0.4440  -15.2740 C.ar  389  TYR389     -0.0200
    193  CD1       13.6940    0.2270  -14.1290 C.ar  389  TYR389     -0.0009
    194  CD2       14.7250    0.1220  -16.1990 C.ar  389  TYR389     -0.0009
    195  CE1       14.2870    1.4340  -13.9040 C.ar  389  TYR389      0.0417
    196  CE2       15.3230    1.3310  -15.9730 C.ar  389  TYR389      0.0417
    197  CZ        15.0860    1.9740  -14.8140 C.ar  389  TYR389      0.1957
    198  OH        15.6400    3.1780  -14.5330 O.3   389  TYR389     -0.2866
    199  N         10.7810   -3.1730  -14.2780 N.am  390  SER390     -0.1952
    200  CA         9.4310   -3.1190  -13.7270 C.3   390  SER390      0.1924
    201  C          9.3630   -3.7500  -12.3410 C.2   390  SER390      0.2314
    202  O          8.5430   -3.3360  -11.5130 O.2   390  SER390     -0.2863
    203  CB         8.4470   -3.8110  -14.6720 C.3   390  SER390      0.2116
    204  OG         8.4930   -3.2390  -15.9670 O.3   390  SER390     -0.2180
    205  N         10.7990   -1.3100   -9.5960 N.3   393  THR393     -0.1218
    206  CA         9.8540   -0.2250   -9.3530 C.3   393  THR393      0.1862
    207  C          8.7120   -0.6930   -8.4590 C.2   393  THR393      0.2287
    208  O          8.3350   -0.0050   -7.5030 O.2   393  THR393     -0.2866
    209  CB         9.3100    0.3150  -10.6770 C.3   393  THR393      0.1770
    210  OG1       10.3970    0.6240  -11.5570 O.3   393  THR393     -0.2211
    211  CG2        8.4910    1.5780  -10.4360 C.3   393  THR393      0.0375
    212  N          7.3550    0.4230   -4.4850 N.3   397  TYR397     -0.1241
    213  CA         5.9780    0.6950   -4.0890 C.3   397  TYR397      0.1605
    214  C          5.4940   -0.2880   -3.0300 C.2   397  TYR397      0.2264
    215  O          4.6290    0.0580   -2.2150 O.2   397  TYR397     -0.2867
    216  CB         5.0650    0.6460   -5.3120 C.3   397  TYR397      0.0534
    217  CG         5.2570    1.8000   -6.2660 C.ar  397  TYR397     -0.0201
    218  CD1        5.3340    3.1070   -5.8020 C.ar  397  TYR397     -0.0009
    219  CD2        5.3620    1.5840   -7.6330 C.ar  397  TYR397     -0.0009
    220  CE1        5.5050    4.1660   -6.6750 C.ar  397  TYR397      0.0417
    221  CE2        5.5370    2.6370   -8.5130 C.ar  397  TYR397      0.0417
    222  CZ         5.6080    3.9250   -8.0300 C.ar  397  TYR397      0.1957
    223  OH         5.7810    4.9740   -8.9060 O.3   397  TYR397     -0.2866
@<TRIPOS>BOND
     1    19    18    2
     2    18    17    1
     3    16    17    1
     4    17    20    1
     5   185   186    1
     6   185   184    1
     7    20    21    1
     8   186   180    1
     9    22    21   ar
    10    22    24   ar
    11   184   181    1
    12    21    23   ar
    13   180   181    1
    14    24    25   ar
    15   181   182    1
    16    23    25   ar
    17    23    26   ar
    18    83    84    2
    19    83    82    1
    20    11    10    2
    21    25    27   ar
    22    14    13    1
    23    87    85    1
    24    26    28   ar
    25   182   183    2
    26    81    82    1
    27    10     9    1
    28    82    85    1
    29    27    29   ar
    30    13    15    1
    31    13    12    1
    32    85    86    1
    33     9    12    1
    34     9     8    1
    35    28    29   ar
    36   194   196   ar
    37   194   192   ar
    38   196   197   ar
    39   204   203    1
    40    86    88    1
    41   191   192    1
    42   191   188    1
    43   192   193   ar
    44    89    90    1
    45   197   198    1
    46   197   195   ar
    47   203   200    1
    48    93    90    1
    49    93    94    1
    50   187   188    1
    51   188   189    1
    52   199   200    1
    53   199   189   am
    54    47    45    1
    55   193   195   ar
    56   173   172    2
    57    90    91    1
    58   200   201    1
    59   189   190    2
    60    94    96   ar
    61    94    95   ar
    62    96    98   ar
    63    37    39   ar
    64    37    35   ar
    65    39    40   ar
    66   176   178   ar
    67   176   175   ar
    68     4     3    2
    69    91    92    2
    70   178   179   ar
    71    45    46    1
    72    45    42    1
    73    34    35    1
    74    34    31    1
    75   172   171    1
    76    95    97   ar
    77    98    99   ar
    78   171   170    1
    79   171   174    1
    80    35    36   ar
    81    30    31    1
    82     3     2    1
    83   201   202    2
    84    41    42    1
    85    41    32   am
    86    40    38   ar
    87   175   174    1
    88   175   177   ar
    89    31    32    1
    90    42    43    1
    91     2     1    1
    92     2     5    1
    93    99    97   ar
    94   179   177   ar
    95   210   209    1
    96    32    33    2
    97    36    38   ar
    98     6     5    1
    99    43    44    2
   100     5     7    1
   101   209   211    1
   102   209   206    1
   103   156   158   ar
   104   156   154   ar
   105   158   157   ar
   106   105   104    1
   107   151   150    2
   108   154   153   ar
   109   205   206    1
   110   206   207    1
   111    55    53   ar
   112   157   155   ar
   113   100   101    1
   114   162   161    2
   115   223   222    1
   116   104   101    1
   117    62    60    1
   118    52    53    1
   119    52    49    1
   120   153   155   ar
   121   153   152    1
   122   150   149    1
   123   150   159   am
   124   221   222   ar
   125   221   219   ar
   126    53    54   ar
   127   207   208    2
   128   161   160    1
   129   101   102    1
   130   149   152    1
   131   149   148    1
   132   222   220   ar
   133   160   159    1
   134   160   163    1
   135    48    49    1
   136   219   217   ar
   137    60    61    1
   138    60    57    1
   139    49    50    1
   140   102   103    2
   141    56    50   am
   142    56    57    1
   143   165   167   ar
   144   165   164   ar
   145   167   169   ar
   146    50    51    2
   147   220   218   ar
   148   163   164    1
   149    57    58    1
   150   164   166   ar
   151   217   218   ar
   152   217   216    1
   153   146   147   ar
   154   146   144   ar
   155   169   168   ar
   156   166   168   ar
   157   147   145   ar
   158   216   213    1
   159    58    59    2
   160   144   141   ar
   161   137   136    2
   162   212   213    1
   163   111   110    1
   164   110   107    1
   165   213   214    1
   166    68    67    1
   167   145   143   ar
   168   106   107    1
   169   141   143   ar
   170   141   139   ar
   171   136   135    1
   172    67    64    1
   173   116   117    1
   174   116   113    1
   175   107   108    1
   176   143   142   ar
   177    74    73    1
   178   135   138    1
   179   135   134    1
   180   214   215    2
   181   119   117   ar
   182   119   121   ar
   183   112   108   am
   184   112   113    1
   185   117   118   ar
   186   138   139    1
   187   139   140   ar
   188   108   109    2
   189    63    64    1
   190   121   122   ar
   191   113   114    1
   192    64    65    1
   193   118   120   ar
   194   142   140   ar
   195    73    75    1
   196    73    70    1
   197    69    65   am
   198    69    70    1
   199   122   120   ar
   200   114   115    2
   201    65    66    2
   202    70    71    1
   203    71    72    2
   204   126   125    2
   205   133   132   ar
   206   133   131   ar
   207   132   130   ar
   208   131   129   ar
   209    80    77    1
   210   125   124    1
   211   130   128   ar
   212   129   128   ar
   213    76    77    1
   214   128   127    1
   215    77    78    1
   216   124   127    1
   217   124   123    1
   218    78    79    2
