@<TRIPOS>MOLECULE
tmp/6cm4A02.pdb
 97 91 0 0 0
SMALL
GASTEIGER

@<TRIPOS>ATOM
      1  N         21.2820    8.5940    7.4760 N.3   168  LEU168     -0.1245
      2  CA        22.3430    7.6630    7.8390 C.3   168  LEU168      0.1561
      3  C         23.3250    8.3020    8.8100 C.2   168  LEU168      0.2260
      4  O         23.8470    7.6290    9.7050 O.2   168  LEU168     -0.2867
      5  CB        23.0690    7.1770    6.5860 C.3   168  LEU168      0.0270
      6  CG        24.2540    6.2530    6.8640 C.3   168  LEU168      0.0019
      7  CD1       23.7790    4.9990    7.5770 C.3   168  LEU168      0.0001
      8  CD2       24.9810    5.9080    5.5780 C.3   168  LEU168      0.0001
      9  N         21.5840    8.3040   12.3600 N.3   171  TYR171     -0.1227
     10  CA        21.5780    7.0100   13.0320 C.3   171  TYR171      0.1736
     11  C         22.9750    6.5980   13.4680 C.2   171  TYR171      0.2595
     12  O         23.1300    5.9420   14.5040 O.2   171  TYR171     -0.2718
     13  CB        20.9600    5.9460   12.1260 C.3   171  TYR171      0.0548
     14  CG        19.4520    5.9270   12.1790 C.ar  171  TYR171     -0.0200
     15  CD1       18.7880    5.5440   13.3350 C.ar  171  TYR171     -0.0009
     16  CD2       18.6930    6.2920   11.0780 C.ar  171  TYR171     -0.0009
     17  CE1       17.4080    5.5260   13.3970 C.ar  171  TYR171      0.0417
     18  CE2       17.3120    6.2710   11.1290 C.ar  171  TYR171      0.0417
     19  CZ        16.6750    5.8920   12.2920 C.ar  171  TYR171      0.1957
     20  OH        15.3010    5.8750   12.3500 O.3   171  TYR171     -0.2866
     21  N         24.0020    6.9720   12.7020 N.am  172  ILE172     -0.1980
     22  CA        25.3730    6.7310   13.1440 C.3   172  ILE172      0.1595
     23  C         25.6690    7.5360   14.4020 C.2   172  ILE172      0.2287
     24  O         26.2960    7.0360   15.3430 O.2   172  ILE172     -0.2864
     25  CB        26.3680    7.0530   12.0150 C.3   172  ILE172      0.0276
     26  CG1       26.2370    6.0430   10.8790 C.3   172  ILE172      0.0022
     27  CG2       27.7920    7.0620   12.5450 C.3   172  ILE172      0.0022
     28  CD1       27.2370    6.2540    9.7710 C.3   172  ILE172      0.0001
     29  N         23.4440    8.3630   16.4920 N.3   174  ILE174     -0.1231
     30  CA        22.6340    7.7380   17.5340 C.3   174  ILE174      0.1692
     31  C         23.3510    6.5230   18.1100 C.2   174  ILE174      0.2592
     32  O         23.4260    6.3480   19.3320 O.2   174  ILE174     -0.2718
     33  CB        21.2440    7.3680   16.9830 C.3   174  ILE174      0.0266
     34  CG1       20.3670    8.6180   16.8580 C.3   174  ILE174      0.0019
     35  CG2       20.5750    6.3190   17.8610 C.3   174  ILE174      0.0020
     36  CD1       18.9620    8.3390   16.3510 C.3   174  ILE174      0.0001
     37  N         23.8900    5.6660   17.2370 N.am  175  TYR175     -0.1976
     38  CA        24.6090    4.4840   17.7060 C.3   175  TYR175      0.1639
     39  C         25.7960    4.8710   18.5800 C.2   175  TYR175      0.2290
     40  O         26.0910    4.1970   19.5740 O.2   175  TYR175     -0.2864
     41  CB        25.0700    3.6420   16.5150 C.3   175  TYR175      0.0560
     42  CG        25.8500    2.4010   16.8990 C.ar  175  TYR175     -0.0198
     43  CD1       25.1980    1.2480   17.3170 C.ar  175  TYR175     -0.0009
     44  CD2       27.2370    2.3760   16.8280 C.ar  175  TYR175     -0.0009
     45  CE1       25.9060    0.1070   17.6640 C.ar  175  TYR175      0.0417
     46  CE2       27.9550    1.2410   17.1740 C.ar  175  TYR175      0.0417
     47  CZ        27.2860    0.1090   17.5890 C.ar  175  TYR175      0.1957
     48  OH        27.9980   -1.0230   17.9330 O.3   175  TYR175     -0.2866
     49  N         24.5560    5.7220   22.1310 N.3   178  LEU178     -0.1245
     50  CA        24.1290    4.5390   22.8700 C.3   178  LEU178      0.1561
     51  C         25.3140    3.6820   23.2940 C.2   178  LEU178      0.2260
     52  O         25.2680    3.0460   24.3530 O.2   178  LEU178     -0.2867
     53  CB        23.1480    3.7250   22.0250 C.3   178  LEU178      0.0270
     54  CG        21.8460    4.4400   21.6570 C.3   178  LEU178      0.0019
     55  CD1       21.0170    3.6250   20.6760 C.3   178  LEU178      0.0001
     56  CD2       21.0460    4.7360   22.9110 C.3   178  LEU178      0.0001
     57  N         26.4430    2.4930   27.2050 N.3   182  ARG182     -0.1245
     58  CA        26.7530    1.1450   27.6800 C.3   182  ARG182      0.1563
     59  C         28.1180    1.0920   28.3550 C.2   182  ARG182      0.2260
     60  O         28.2960    0.3840   29.3530 O.2   182  ARG182     -0.2867
     61  CB        26.6860    0.1490   26.5220 C.3   182  ARG182      0.0307
     62  CG        25.2810   -0.0550   25.9690 C.3   182  ARG182      0.0489
     63  CD        25.2990   -0.7150   24.5960 C.3   182  ARG182      0.2205
     64  NE        23.9710   -0.7120   23.9860 N.pl3 182  ARG182     -0.0865
     65  CZ        23.7430   -0.8760   22.6870 C.cat 182  ARG182      0.5346
     66  NH1       24.7560   -1.0520   21.8500 N.pl3 182  ARG182      0.1354
     67  NH2       22.5000   -0.8570   22.2200 N.pl3 182  ARG182      0.1354
     68  N         15.1390    2.5570   23.9320 N.3   350  LYS350     -0.1245
     69  CA        15.9650    1.8420   22.9630 C.3   350  LYS350      0.1561
     70  C         15.1230    0.9590   22.0510 C.2   350  LYS350      0.2260
     71  O         15.3770    0.8860   20.8440 O.2   350  LYS350     -0.2867
     72  CB        17.0250    1.0120   23.6890 C.3   350  LYS350      0.0271
     73  CG        17.9130    1.8770   24.6100 C.3   350  LYS350      0.0035
     74  CD        19.1010    1.0690   25.0360 C.3   350  LYS350      0.0206
     75  CE        20.1880    1.8880   25.6980 C.3   350  LYS350      0.1093
     76  NZ        21.0210    1.0710   26.6000 N.3   350  LYS350     -0.1314
     77  N         13.8200    3.0300   19.3570 N.3   353  THR353     -0.1203
     78  CA        14.8750    3.4700   18.4510 C.3   353  THR353      0.1994
     79  C         15.3260    2.3430   17.5350 C.2   353  THR353      0.2617
     80  O         15.7140    2.5930   16.3890 O.2   353  THR353     -0.2717
     81  CB        16.0660    4.0100   19.2460 C.3   353  THR353      0.1784
     82  OG1       15.6340    5.0710   20.1040 O.3   353  THR353     -0.2211
     83  CG2       17.1380    4.5440   18.3160 C.3   353  THR353      0.0376
     84  N         15.2830    1.1000   18.0190 N.am  354  GLN354     -0.1979
     85  CA        15.6630   -0.0310   17.1800 C.3   354  GLN354      0.1601
     86  C         14.6240   -0.2830   16.0950 C.2   354  GLN354      0.2287
     87  O         14.9720   -0.6330   14.9610 O.2   354  GLN354     -0.2864
     88  CB        15.8570   -1.2760   18.0430 C.3   354  GLN354      0.0394
     89  CG        17.0060   -1.1620   19.0280 C.3   354  GLN354      0.0908
     90  CD        16.8350   -2.0740   20.2280 C.2   354  GLN354      0.2608
     91  OE1       15.7680   -2.6520   20.4380 O.2   354  GLN354     -0.2717
     92  NE2       17.8890   -2.2040   21.0250 N.am  354  GLN354     -0.0878
     93  N         15.0140    2.3120   13.2340 N.3   357  ALA357     -0.1245
     94  CA        16.1100    2.0180   12.3200 C.3   357  ALA357      0.1562
     95  C         15.7900    0.8300   11.4270 C.2   357  ALA357      0.2260
     96  O         16.2610    0.7710   10.2850 O.2   357  ALA357     -0.2867
     97  CB        17.3980    1.7650   13.1040 C.3   357  ALA357      0.0290
@<TRIPOS>BOND
     1     8     6    1
     2     5     6    1
     3     5     2    1
     4     6     7    1
     5     1     2    1
     6     2     3    1
     7     3     4    2
     8    28    26    1
     9    96    95    2
    10    26    25    1
    11    16    18   ar
    12    16    14   ar
    13    18    19   ar
    14    95    94    1
    15    25    27    1
    16    25    22    1
    17    13    14    1
    18    13    10    1
    19    14    15   ar
    20    19    20    1
    21    19    17   ar
    22    94    97    1
    23    94    93    1
    24     9    10    1
    25    21    22    1
    26    21    11   am
    27    10    11    1
    28    22    23    1
    29    15    17   ar
    30    11    12    2
    31    23    24    2
    32    87    86    2
    33    86    85    1
    34    36    34    1
    35    80    79    2
    36    29    30    1
    37    41    42    1
    38    41    38    1
    39    44    42   ar
    40    44    46   ar
    41    34    33    1
    42    42    43   ar
    43    33    30    1
    44    33    35    1
    45    46    47   ar
    46    85    84    1
    47    85    88    1
    48    37    38    1
    49    37    31   am
    50    43    45   ar
    51    30    31    1
    52    79    84   am
    53    79    78    1
    54    47    45   ar
    55    47    48    1
    56    38    39    1
    57    88    89    1
    58    31    32    2
    59    83    81    1
    60    78    81    1
    61    78    77    1
    62    39    40    2
    63    89    90    1
    64    81    82    1
    65    90    91    2
    66    90    92   am
    67    55    54    1
    68    71    70    2
    69    54    53    1
    70    54    56    1
    71    66    65    1
    72    53    50    1
    73    70    69    1
    74    49    50    1
    75    67    65    1
    76    65    64    2
    77    50    51    1
    78    69    72    1
    79    69    68    1
    80    51    52    2
    81    72    73    1
    82    64    63    1
    83    63    62    1
    84    73    74    1
    85    74    75    1
    86    75    76    1
    87    62    61    1
    88    61    58    1
    89    57    58    1
    90    58    59    1
    91    59    60    2
