@<TRIPOS>MOLECULE
tmp/6cm4A05.pdb
 102 98 0 0 0
SMALL
GASTEIGER

@<TRIPOS>ATOM
      1  N         10.5220    9.5000    2.5440 N.3    88  ALA88      -0.1245
      2  CA        11.9320    9.6320    2.8820 C.3    88  ALA88       0.1562
      3  C         12.1440   10.7310    3.9110 C.2    88  ALA88       0.2260
      4  O         12.8700   10.5440    4.8930 O.2    88  ALA88      -0.2867
      5  CB        12.7460    9.9050    1.6210 C.3    88  ALA88       0.0290
      6  N         11.0620    9.5080    7.3430 N.3    91  LEU91      -0.1245
      7  CA        12.0840    8.6820    7.9720 C.3    91  LEU91       0.1561
      8  C         13.2430    9.5240    8.4770 C.2    91  LEU91       0.2260
      9  O         13.9220    9.1390    9.4360 O.2    91  LEU91      -0.2867
     10  CB        12.5830    7.6290    6.9880 C.3    91  LEU91       0.0270
     11  CG        11.5550    6.5530    6.6630 C.3    91  LEU91       0.0019
     12  CD1       12.0890    5.6330    5.5970 C.3    91  LEU91       0.0001
     13  CD2       11.2140    5.7790    7.9200 C.3    91  LEU91       0.0001
     14  N         16.1340   11.2650   -2.8240 N.3   160  PHE160     -0.1241
     15  CA        16.5630   10.0060   -2.2250 C.3   160  PHE160      0.1605
     16  C         17.9510   10.0800   -1.5970 C.2   160  PHE160      0.2264
     17  O         18.0760    9.8530   -0.3910 O.2   160  PHE160     -0.2867
     18  CB        16.5180    8.8870   -3.2690 C.3   160  PHE160      0.0534
     19  CG        16.8360    7.5250   -2.7140 C.ar  160  PHE160     -0.0203
     20  CD1       15.8890    6.8220   -1.9860 C.ar  160  PHE160     -0.0042
     21  CD2       18.0740    6.9440   -2.9270 C.ar  160  PHE160     -0.0042
     22  CE1       16.1730    5.5660   -1.4810 C.ar  160  PHE160     -0.0003
     23  CE2       18.3650    5.6870   -2.4230 C.ar  160  PHE160     -0.0003
     24  CZ        17.4120    4.9970   -1.7000 C.ar  160  PHE160     -0.0000
     25  N         18.3330   12.6910    1.4320 N.3   163  PRO163     -0.2102
     26  CA        17.7170   12.1470    2.6550 C.3   163  PRO163      0.1504
     27  C         18.4160   10.8980    3.1660 C.2   163  PRO163      0.2575
     28  O         18.5410   10.7110    4.3830 O.2   163  PRO163     -0.2718
     29  CB        16.2750   11.8600    2.2170 C.3   163  PRO163      0.0282
     30  CG        16.0220   12.8330    1.1370 C.3   163  PRO163      0.0208
     31  CD        17.3190   12.9160    0.3830 C.3   163  PRO163      0.0893
     32  N         18.8840   10.0410    2.2580 N.am  164  PHE164     -0.1977
     33  CA        19.5930    8.8290    2.6550 C.3   164  PHE164      0.1639
     34  C         20.8160    9.1560    3.5090 C.2   164  PHE164      0.2290
     35  O         20.9770    8.6210    4.6130 O.2   164  PHE164     -0.2864
     36  CB        19.9920    8.0470    1.4020 C.3   164  PHE164      0.0560
     37  CG        20.4990    6.6590    1.6710 C.ar  164  PHE164     -0.0200
     38  CD1       20.4680    6.1140    2.9420 C.ar  164  PHE164     -0.0042
     39  CD2       21.0140    5.8990    0.6380 C.ar  164  PHE164     -0.0042
     40  CE1       20.9390    4.8470    3.1770 C.ar  164  PHE164     -0.0003
     41  CE2       21.4850    4.6280    0.8660 C.ar  164  PHE164     -0.0003
     42  CZ        21.4470    4.1000    2.1370 C.ar  164  PHE164     -0.0000
     43  N         19.8860   10.9600    7.0050 N.3   167  THR167     -0.1203
     44  CA        19.3400    9.9910    7.9470 C.3   167  THR167      0.1994
     45  C         20.4070    9.0030    8.3950 C.2   167  THR167      0.2617
     46  O         20.4500    8.6110    9.5670 O.2   167  THR167     -0.2717
     47  CB        18.1620    9.2580    7.3130 C.3   167  THR167      0.1784
     48  OG1       17.1590   10.2100    6.9370 O.3   167  THR167     -0.2211
     49  CG2       17.5670    8.2650    8.2910 C.3   167  THR167      0.0376
     50  N         21.2820    8.5940    7.4760 N.am  168  LEU168     -0.1979
     51  CA        22.3430    7.6630    7.8390 C.3   168  LEU168      0.1596
     52  C         23.3250    8.3020    8.8100 C.2   168  LEU168      0.2287
     53  O         23.8470    7.6290    9.7050 O.2   168  LEU168     -0.2864
     54  CB        23.0690    7.1770    6.5860 C.3   168  LEU168      0.0297
     55  CG        24.2540    6.2530    6.8640 C.3   168  LEU168      0.0022
     56  CD1       23.7790    4.9990    7.5770 C.3   168  LEU168      0.0001
     57  CD2       24.9810    5.9080    5.5780 C.3   168  LEU168      0.0001
     58  N         21.5840    8.3040   12.3600 N.3   171  TYR171     -0.1241
     59  CA        21.5780    7.0100   13.0320 C.3   171  TYR171      0.1605
     60  C         22.9750    6.5980   13.4680 C.2   171  TYR171      0.2264
     61  O         23.1300    5.9420   14.5040 O.2   171  TYR171     -0.2867
     62  CB        20.9600    5.9460   12.1260 C.3   171  TYR171      0.0534
     63  CG        19.4520    5.9270   12.1790 C.ar  171  TYR171     -0.0201
     64  CD1       18.7880    5.5440   13.3350 C.ar  171  TYR171     -0.0009
     65  CD2       18.6930    6.2920   11.0780 C.ar  171  TYR171     -0.0009
     66  CE1       17.4080    5.5260   13.3970 C.ar  171  TYR171      0.0417
     67  CE2       17.3120    6.2710   11.1290 C.ar  171  TYR171      0.0417
     68  CZ        16.6750    5.8920   12.2920 C.ar  171  TYR171      0.1957
     69  OH        15.3010    5.8750   12.3500 O.3   171  TYR171     -0.2866
     70  N         15.0140    2.3120   13.2340 N.3   357  ALA357     -0.1245
     71  CA        16.1100    2.0180   12.3200 C.3   357  ALA357      0.1562
     72  C         15.7900    0.8300   11.4270 C.2   357  ALA357      0.2260
     73  O         16.2610    0.7710   10.2850 O.2   357  ALA357     -0.2867
     74  CB        17.3980    1.7650   13.1040 C.3   357  ALA357      0.0290
     75  N         13.6290    2.2100    8.6120 N.3   360  ALA360     -0.1231
     76  CA        14.4700    2.9630    7.6880 C.3   360  ALA360      0.1694
     77  C         15.3300    2.0350    6.8420 C.2   360  ALA360      0.2592
     78  O         15.5780    2.3100    5.6620 O.2   360  ALA360     -0.2718
     79  CB        15.3480    3.9450    8.4630 C.3   360  ALA360      0.0304
     80  N         15.8020    0.9350    7.4280 N.am  361  GLY361     -0.1957
     81  CA        16.6200    0.0010    6.6700 C.3   361  GLY361      0.1869
     82  C         15.8180   -0.7490    5.6240 C.2   361  GLY361      0.2309
     83  O         16.2460   -0.8840    4.4750 O.2   361  GLY361     -0.2863
     84  N         13.2310    0.3080    4.2140 N.3   363  PHE363     -0.1227
     85  CA        13.0140    1.2980    3.1660 C.3   363  PHE363      0.1736
     86  C         14.1650    1.2940    2.1710 C.2   363  PHE363      0.2595
     87  O         13.9530    1.1860    0.9580 O.2   363  PHE363     -0.2718
     88  CB        12.8440    2.6790    3.7960 C.3   363  PHE363      0.0547
     89  CG        12.5140    3.7670    2.8150 C.ar  363  PHE363     -0.0202
     90  CD1       11.2030    4.0130    2.4520 C.ar  363  PHE363     -0.0042
     91  CD2       13.5130    4.5600    2.2760 C.ar  363  PHE363     -0.0042
     92  CE1       10.8950    5.0210    1.5570 C.ar  363  PHE363     -0.0003
     93  CE2       13.2110    5.5660    1.3800 C.ar  363  PHE363     -0.0003
     94  CZ        11.9000    5.7970    1.0210 C.ar  363  PHE363     -0.0000
     95  N         15.3990    1.3950    2.6720 N.am  364  ILE364     -0.1980
     96  CA        16.5640    1.4050    1.7920 C.3   364  ILE364      0.1595
     97  C         16.6680    0.0930    1.0270 C.2   364  ILE364      0.2287
     98  O         17.0530    0.0720   -0.1480 O.2   364  ILE364     -0.2864
     99  CB        17.8400    1.7020    2.6010 C.3   364  ILE364      0.0276
    100  CG1       17.8510    3.1630    3.0350 C.3   364  ILE364      0.0022
    101  CG2       19.0840    1.4000    1.7890 C.3   364  ILE364      0.0022
    102  CD1       17.7010    4.1260    1.8800 C.3   364  ILE364      0.0001
@<TRIPOS>BOND
     1    18    19    1
     2    18    15    1
     3    21    19   ar
     4    21    23   ar
     5    14    15    1
     6    19    20   ar
     7    23    24   ar
     8    15    16    1
     9    20    22   ar
    10    24    22   ar
    11    16    17    2
    12    98    97    2
    13    31    30    1
    14    31    25    1
    15    39    41   ar
    16    39    37   ar
    17    41    42   ar
    18    87    86    2
    19    94    93   ar
    20    94    92   ar
    21    97    96    1
    22    30    29    1
    23    93    91   ar
    24    36    37    1
    25    36    33    1
    26    25    26    1
    27    92    90   ar
    28     5     2    1
    29    37    38   ar
    30   101    99    1
    31    96    99    1
    32    96    95    1
    33   102   100    1
    34    42    40   ar
    35    86    95   am
    36    86    85    1
    37    29    26    1
    38    32    33    1
    39    32    27   am
    40    91    89   ar
    41    90    89   ar
    42     1     2    1
    43    99   100    1
    44    33    34    1
    45    26    27    1
    46    89    88    1
    47     2     3    1
    48    38    40   ar
    49    27    28    2
    50    85    88    1
    51    85    84    1
    52    34    35    2
    53     3     4    2
    54    83    82    2
    55    57    55    1
    56    12    11    1
    57    82    81    1
    58    78    77    2
    59    54    55    1
    60    54    51    1
    61    11    10    1
    62    11    13    1
    63    81    80    1
    64    77    80   am
    65    77    76    1
    66    55    56    1
    67    48    47    1
    68    10     7    1
    69    43    44    1
    70    47    44    1
    71    47    49    1
    72     6     7    1
    73    50    51    1
    74    50    45   am
    75    76    79    1
    76    76    75    1
    77    51    52    1
    78    44    45    1
    79     7     8    1
    80    45    46    2
    81     8     9    2
    82    52    53    2
    83    73    72    2
    84    65    67   ar
    85    65    63   ar
    86    67    68   ar
    87    72    71    1
    88    62    63    1
    89    62    59    1
    90    63    64   ar
    91    68    69    1
    92    68    66   ar
    93    71    74    1
    94    71    70    1
    95    58    59    1
    96    59    60    1
    97    64    66   ar
    98    60    61    2
