@<TRIPOS>MOLECULE
tmp/6cmjA00.pdb
 189 183 0 0 0
SMALL
GASTEIGER

@<TRIPOS>ATOM
      1  N         36.0620   45.2710    1.9350 N.3    11  ILE11      -0.1231
      2  CA        34.8650   45.7300    2.6540 C.3    11  ILE11       0.1692
      3  C         34.8420   47.2080    3.0240 C.2    11  ILE11       0.2593
      4  O         33.7800   47.7370    3.3240 O.2    11  ILE11      -0.2718
      5  CB        34.6380   44.8800    3.9230 C.3    11  ILE11       0.0266
      6  CG1       35.8360   44.9330    4.8640 C.3    11  ILE11       0.0019
      7  CG2       34.3760   43.4380    3.5180 C.3    11  ILE11       0.0020
      8  CD1       35.5890   44.1860    6.1520 C.3    11  ILE11       0.0001
      9  N         36.0040   47.8600    3.0180 N.am   12  GLY12      -0.1942
     10  CA        36.0940   49.2900    3.2750 C.3    12  GLY12       0.2014
     11  C         37.4380   49.8800    2.8420 C.2    12  GLY12       0.2639
     12  O         38.3990   49.1560    2.4880 O.2    12  GLY12      -0.2714
     13  N         37.4860   51.2070    2.8600 N.am   13  LYS13      -0.1963
     14  CA        38.6770   51.9650    2.4960 C.3    13  LYS13       0.1728
     15  C         38.7440   53.1130    3.4740 C.2    13  LYS13       0.2617
     16  O         37.8420   53.9230    3.5010 O.2    13  LYS13      -0.2715
     17  CB        38.5760   52.5470    1.0740 C.3    13  LYS13       0.0311
     18  CG        37.8720   51.7040    0.0220 C.3    13  LYS13       0.0038
     19  CD        38.7800   50.6270   -0.5580 C.3    13  LYS13       0.0206
     20  CE        38.2810   50.0810   -1.9000 C.3    13  LYS13       0.1093
     21  NZ        37.1240   49.1780   -1.8680 N.3    13  LYS13      -0.1314
     22  N         39.8000   53.1760    4.2770 N.am   14  GLY14      -0.1940
     23  CA        40.0320   54.3280    5.1400 C.3    14  GLY14       0.2014
     24  C         40.8930   55.3990    4.4760 C.2    14  GLY14       0.2640
     25  O         40.9650   55.4920    3.2650 O.2    14  GLY14      -0.2714
     26  N         41.5680   56.1890    5.2950 N.am   15  SER15      -0.1935
     27  CA        42.5700   57.1530    4.8000 C.3    15  SER15       0.2055
     28  C         43.6410   56.4870    3.9430 C.2    15  SER15       0.2643
     29  O         44.0340   57.0370    2.9320 O.2    15  SER15      -0.2714
     30  CB        43.2380   57.8760    5.9570 C.3    15  SER15       0.2130
     31  OG        42.2710   58.5400    6.7450 O.3    15  SER15      -0.2179
     32  N         44.0970   55.3010    4.3370 N.am   16  TYR16      -0.1973
     33  CA        45.1570   54.5910    3.6140 C.3    16  TYR16       0.1639
     34  C         44.7590   53.1460    3.3970 C.2    16  TYR16       0.2290
     35  O         44.1420   52.5320    4.2530 O.2    16  TYR16      -0.2864
     36  CB        46.4760   54.6070    4.3940 C.3    16  TYR16       0.0560
     37  CG        46.9990   55.9710    4.7220 C.ar   16  TYR16      -0.0198
     38  CD1       47.8720   56.6230    3.8560 C.ar   16  TYR16      -0.0009
     39  CD2       46.6490   56.6130    5.9110 C.ar   16  TYR16      -0.0009
     40  CE1       48.3960   57.8750    4.1530 C.ar   16  TYR16       0.0417
     41  CE2       47.1540   57.8880    6.2180 C.ar   16  TYR16       0.0417
     42  CZ        48.0210   58.5090    5.3320 C.ar   16  TYR16       0.1957
     43  OH        48.5150   59.7420    5.6170 O.3    16  TYR16      -0.2866
     44  N         40.6720   47.8080    3.3340 N.3    19  VAL19      -0.1245
     45  CA        40.3300   46.7960    4.3250 C.3    19  VAL19       0.1561
     46  C         39.5920   45.6630    3.6310 C.2    19  VAL19       0.2260
     47  O         38.6340   45.8910    2.8720 O.2    19  VAL19      -0.2867
     48  CB        39.4850   47.3540    5.4640 C.3    19  VAL19       0.0252
     49  CG1       39.1900   46.2450    6.4790 C.3    19  VAL19       0.0019
     50  CG2       40.2310   48.5100    6.1220 C.3    19  VAL19       0.0019
     51  N         39.3230   41.4220    9.9460 N.3    32  ALA32      -0.1245
     52  CA        39.4600   42.5080    8.9840 C.3    32  ALA32       0.1562
     53  C         40.9500   42.7600    8.7720 C.2    32  ALA32       0.2260
     54  O         41.7100   42.8990    9.7380 O.2    32  ALA32      -0.2867
     55  CB        38.7600   43.7640    9.4980 C.3    32  ALA32       0.0290
     56  N         43.7630   45.1720    6.9580 N.3    34  LYS34      -0.1245
     57  CA        44.1690   46.3880    6.2480 C.3    34  LYS34       0.1561
     58  C         45.4050   46.0450    5.4270 C.2    34  LYS34       0.2260
     59  O         46.4130   45.6430    5.9890 O.2    34  LYS34      -0.2867
     60  CB        44.4960   47.5200    7.2150 C.3    34  LYS34       0.0271
     61  CG        44.8610   48.8460    6.5540 C.3    34  LYS34       0.0035
     62  CD        45.2080   49.8590    7.6440 C.3    34  LYS34       0.0206
     63  CE        45.4490   51.2330    7.0810 C.3    34  LYS34       0.1093
     64  NZ        45.5790   52.2120    8.1940 N.3    34  LYS34      -0.1314
     65  N         51.7340   54.2000   13.4040 N.3    61  GLU61      -0.1245
     66  CA        50.3300   53.7990   13.5590 C.3    61  GLU61       0.1567
     67  C         50.2350   52.4110   14.2370 C.2    61  GLU61       0.2260
     68  O         49.4230   52.2000   15.1220 O.2    61  GLU61      -0.2867
     69  CB        49.6440   53.7920   12.1870 C.3    61  GLU61       0.0388
     70  CG        48.2060   53.3280   12.2000 C.3    61  GLU61       0.1160
     71  CD        47.6000   53.1940   10.8120 C.2    61  GLU61       0.3649
     72  OE1       48.1460   53.7670    9.8410 O.co2  61  GLU61      -0.2457
     73  OE2       46.5590   52.5020   10.7020 O.co2  61  GLU61      -0.2457
     74  N         39.0010   49.5150   18.2060 N.3    74  VAL74      -0.1245
     75  CA        39.4060   48.3340   17.4410 C.3    74  VAL74       0.1561
     76  C         40.6500   47.6910   18.0260 C.2    74  VAL74       0.2260
     77  O         41.4080   48.3290   18.7420 O.2    74  VAL74      -0.2867
     78  CB        39.6260   48.6080   15.9400 C.3    74  VAL74       0.0252
     79  CG1       38.3010   48.9460   15.2740 C.3    74  VAL74       0.0019
     80  CG2       40.6820   49.6850   15.6970 C.3    74  VAL74       0.0019
     81  N         43.0990   42.8570   12.1280 N.3    92  PHE92      -0.1227
     82  CA        42.2880   43.3190   13.2300 C.3    92  PHE92       0.1736
     83  C         41.1450   42.3440   13.4940 C.2    92  PHE92       0.2595
     84  O         40.7120   41.6410   12.5900 O.2    92  PHE92      -0.2718
     85  CB        41.6230   44.6580   12.8880 C.3    92  PHE92       0.0547
     86  CG        42.5690   45.7920   12.6110 C.ar   92  PHE92      -0.0202
     87  CD1       43.1750   45.9280   11.3670 C.ar   92  PHE92      -0.0042
     88  CD2       42.7640   46.7870   13.5580 C.ar   92  PHE92      -0.0042
     89  CE1       43.9900   47.0080   11.0990 C.ar   92  PHE92      -0.0003
     90  CE2       43.5810   47.8820   13.2850 C.ar   92  PHE92      -0.0003
     91  CZ        44.2020   47.9800   12.0520 C.ar   92  PHE92      -0.0000
     92  N         40.6300   42.3490   14.7220 N.am   93  GLU93      -0.1965
     93  CA        39.3680   41.7170   15.0330 C.3    93  GLU93       0.1733
     94  C         38.2720   42.4130   14.2360 C.2    93  GLU93       0.2616
     95  O         38.2670   43.6400   14.1150 O.2    93  GLU93      -0.2715
     96  CB        39.0330   41.8510   16.5190 C.3    93  GLU93       0.0429
     97  CG        39.9310   41.0400   17.4410 C.3    93  GLU93       0.1163
     98  CD        39.4420   41.0430   18.8950 C.2    93  GLU93       0.3649
     99  OE1       38.4060   41.6660   19.2420 O.co2  93  GLU93      -0.2457
    100  OE2       40.1090   40.3940   19.7160 O.co2  93  GLU93      -0.2457
    101  N         37.3360   41.6190   13.7300 N.am   94  LEU94      -0.1963
    102  CA        36.2210   42.1090   12.9440 C.3    94  LEU94       0.1728
    103  C         35.1280   42.7050   13.8220 C.2    94  LEU94       0.2616
    104  O         34.8350   42.1900   14.8980 O.2    94  LEU94      -0.2715
    105  CB        35.6480   40.9580   12.1110 C.3    94  LEU94       0.0311
    106  CG        34.6260   41.3500   11.0380 C.3    94  LEU94       0.0022
    107  CD1       35.2870   42.1010    9.8990 C.3    94  LEU94       0.0001
    108  CD2       33.9530   40.0960   10.5100 C.3    94  LEU94       0.0001
    109  N         34.5380   43.7990   13.3750 N.am   95  VAL95      -0.1963
    110  CA        33.4000   44.4030   14.0700 C.3    95  VAL95       0.1727
    111  C         32.3120   44.1490   13.0670 C.2    95  VAL95       0.2616
    112  O         32.3510   44.7170   11.9870 O.2    95  VAL95      -0.2715
    113  CB        33.6230   45.9190   14.3180 C.3    95  VAL95       0.0290
    114  CG1       32.6120   46.4670   15.2970 C.3    95  VAL95       0.0023
    115  CG2       35.0300   46.1660   14.8270 C.3    95  VAL95       0.0023
    116  N         31.3800   43.2550   13.3810 N.am   96  ASN96      -0.1958
    117  CA        30.5280   42.6310   12.3400 C.3    96  ASN96       0.1819
    118  C         29.5740   43.5530   11.5690 C.2    96  ASN96       0.2621
    119  O         29.4280   43.3800   10.3640 O.2    96  ASN96      -0.2715
    120  CB        29.7320   41.4470   12.9230 C.3    96  ASN96       0.1195
    121  CG        30.6260   40.3520   13.5160 C.2    96  ASN96       0.2630
    122  OD1       31.8320   40.2910   13.2630 O.2    96  ASN96      -0.2716
    123  ND2       30.0260   39.4930   14.3340 N.am   96  ASN96      -0.0877
    124  N         28.9420   44.5390   12.1930 N.am   97  GLN97      -0.1963
    125  CA        27.8870   45.2520   11.5040 C.3    97  GLN97       0.1733
    126  C         28.3500   46.4250   10.6420 C.2    97  GLN97       0.2617
    127  O         27.5390   46.9980    9.9380 O.2    97  GLN97      -0.2715
    128  CB        26.8330   45.7120   12.4860 C.3    97  GLN97       0.0408
    129  CG        26.1640   44.5850   13.2360 C.3    97  GLN97       0.0908
    130  CD        25.3950   43.6890   12.2850 C.2    97  GLN97       0.2608
    131  OE1       24.8260   44.1500   11.2800 O.2    97  GLN97      -0.2717
    132  NE2       25.3690   42.4000   12.5940 N.am   97  GLN97      -0.0878
    133  N         29.6340   46.7980   10.6830 N.am   98  GLY98      -0.1941
    134  CA        30.1220   47.9110    9.8380 C.3    98  GLY98       0.1998
    135  C         29.8880   49.3240   10.3850 C.2    98  GLY98       0.2480
    136  O         29.4890   49.5010   11.5440 O.2    98  GLY98      -0.2729
    137  N         30.1470   50.3530    9.5600 N.am   99  PRO99      -0.2726
    138  CA        29.9650   51.7260   10.0170 C.3    99  PRO99       0.1402
    139  C         28.5590   52.0330   10.4830 C.2    99  PRO99       0.2269
    140  O         27.6040   51.5480    9.9150 O.2    99  PRO99      -0.2865
    141  CB        30.2970   52.5650    8.7840 C.3    99  PRO99       0.0296
    142  CG        31.1650   51.7020    7.9540 C.3    99  PRO99       0.0237
    143  CD        30.6390   50.3160    8.1720 C.3    99  PRO99       0.0939
    144  N         31.4850   57.3280    9.8970 N.3   141  SER141     -0.1202
    145  CA        31.9250   56.2060    9.0670 C.3   141  SER141      0.2020
    146  C         33.1510   55.4750    9.6250 C.2   141  SER141      0.2618
    147  O         33.4460   54.3700    9.2030 O.2   141  SER141     -0.2717
    148  CB        32.1410   56.6330    7.5980 C.3   141  SER141      0.2103
    149  OG        33.1070   57.6600    7.5020 O.3   141  SER141     -0.2182
    150  N         33.8430   56.0800   10.5930 N.am  142  ASN142     -0.1974
    151  CA        34.9250   55.4060   11.3250 C.3   142  ASN142      0.1688
    152  C         34.4770   54.7570   12.6460 C.2   142  ASN142      0.2292
    153  O         35.3140   54.2490   13.3750 O.2   142  ASN142     -0.2864
    154  CB        36.0540   56.3920   11.6030 C.3   142  ASN142      0.1181
    155  CG        36.8720   56.7000   10.3860 C.2   142  ASN142      0.2629
    156  OD1       36.8670   55.9530    9.4170 O.2   142  ASN142     -0.2716
    157  ND2       37.6110   57.7970   10.4360 N.am  142  ASN142     -0.0877
    158  N         32.4830   51.7240   14.0990 N.3   144  LEU144     -0.1245
    159  CA        31.9850   50.4410   13.6250 C.3   144  LEU144      0.1561
    160  C         31.1060   49.7960   14.6920 C.2   144  LEU144      0.2260
    161  O         31.4460   49.8200   15.8740 O.2   144  LEU144     -0.2867
    162  CB        33.1590   49.5190   13.2770 C.3   144  LEU144      0.0270
    163  CG        34.2280   50.0960   12.3430 C.3   144  LEU144      0.0019
    164  CD1       35.3750   49.1000   12.1920 C.3   144  LEU144      0.0001
    165  CD2       33.6330   50.4460   10.9910 C.3   144  LEU144      0.0001
    166  N         37.6160   53.1900   14.9020 N.3   154  ALA154     -0.1231
    167  CA        38.5630   52.6840   13.9000 C.3   154  ALA154      0.1694
    168  C         39.2370   53.8100   13.1190 C.2   154  ALA154      0.2592
    169  O         38.8700   54.9750   13.2330 O.2   154  ALA154     -0.2718
    170  CB        37.8460   51.7710   12.9360 C.3   154  ALA154      0.0304
    171  N         40.2000   53.4000   12.2970 N.am  155  ASP155     -0.1960
    172  CA        41.0340   54.2550   11.4360 C.3   155  ASP155      0.1840
    173  C         41.9740   55.1710   12.2100 C.2   155  ASP155      0.2622
    174  O         41.6430   56.3100   12.4720 O.2   155  ASP155     -0.2715
    175  CB        40.2080   55.0530   10.4340 C.3   155  ASP155      0.1450
    176  CG        41.0210   55.4500    9.1940 C.2   155  ASP155      0.3671
    177  OD1       42.2870   55.4050    9.2410 O.co2 155  ASP155     -0.2456
    178  OD2       40.3820   55.7910    8.1780 O.co2 155  ASP155     -0.2456
    179  N         43.1550   54.6480   12.5460 N.am  156  PHE156     -0.1974
    180  CA        44.1850   55.3940   13.2510 C.3   156  PHE156      0.1639
    181  C         45.2970   55.9130   12.3110 C.2   156  PHE156      0.2290
    182  O         46.4100   56.2300   12.7590 O.2   156  PHE156     -0.2864
    183  CB        44.7300   54.5280   14.3980 C.3   156  PHE156      0.0560
    184  CG        43.7720   54.4070   15.5450 C.ar  156  PHE156     -0.0200
    185  CD1       42.6630   53.5670   15.4660 C.ar  156  PHE156     -0.0042
    186  CD2       43.9500   55.1640   16.6840 C.ar  156  PHE156     -0.0042
    187  CE1       41.7690   53.4860   16.5200 C.ar  156  PHE156     -0.0003
    188  CE2       43.0540   55.0960   17.7270 C.ar  156  PHE156     -0.0003
    189  CZ        41.9530   54.2460   17.6460 C.ar  156  PHE156     -0.0000
@<TRIPOS>BOND
     1    20    21    1
     2    20    19    1
     3    19    18    1
     4    18    17    1
     5    17    14    1
     6     1     2    1
     7    12    11    2
     8    14    13    1
     9    14    15    1
    10     2     3    1
    11     2     5    1
    12    11    13   am
    13    11    10    1
    14    47    46    2
    15    29    28    2
    16     9     3   am
    17     9    10    1
    18     3     4    2
    19    25    24    2
    20    44    45    1
    21    34    33    1
    22    34    35    2
    23    15    16    2
    24    15    22   am
    25     7     5    1
    26    33    32    1
    27    33    36    1
    28    46    45    1
    29    38    40   ar
    30    38    37   ar
    31     5     6    1
    32    28    32   am
    33    28    27    1
    34    40    42   ar
    35    22    23    1
    36    45    48    1
    37    36    37    1
    38    24    23    1
    39    24    26   am
    40    37    39   ar
    41    27    26    1
    42    27    30    1
    43     6     8    1
    44    42    43    1
    45    42    41   ar
    46    58    59    2
    47    58    57    1
    48    48    50    1
    49    48    49    1
    50    39    41   ar
    51    30    31    1
    52    57    56    1
    53    57    60    1
    54    61    60    1
    55    61    62    1
    56    63    62    1
    57    63    64    1
    58   149   148    1
    59   148   145    1
    60   142   143    1
    61   142   141    1
    62   143   137    1
    63   178   176   ar
    64    53    52    1
    65    53    54    2
    66   141   138    1
    67    52    55    1
    68    52    51    1
    69   145   146    1
    70   145   144    1
    71   176   177   ar
    72   176   175    1
    73   147   146    2
    74   156   155    2
    75   137   138    1
    76   137   135   am
    77   146   150   am
    78   134   135    1
    79   134   133    1
    80    72    71   ar
    81   107   106    1
    82   140   139    2
    83   127   126    2
    84   138   139    1
    85   119   118    2
    86   135   136    2
    87   155   157   am
    88   155   154    1
    89   175   172    1
    90   108   106    1
    91   150   151    1
    92   126   133   am
    93   126   125    1
    94    73    71   ar
    95    71    70    1
    96   165   163    1
    97   106   105    1
    98    89    87   ar
    99    89    91   ar
   100   131   130    2
   101   151   154    1
   102   151   152    1
   103    87    86   ar
   104   172   173    1
   105   172   171    1
   106   125   124    1
   107   125   128    1
   108   118   124   am
   109   118   117    1
   110   112   111    2
   111    91    90   ar
   112   105   102    1
   113    81    82    1
   114    69    70    1
   115    69    66    1
   116   164   163    1
   117   173   174    2
   118   173   179   am
   119   130   132   am
   120   130   129    1
   121   171   168   am
   122   181   182    2
   123   181   180    1
   124   117   120    1
   125   117   116    1
   126   163   162    1
   127   128   129    1
   128   179   180    1
   129    84    83    2
   130    86    85    1
   131    86    88   ar
   132   152   153    2
   133    85    82    1
   134   120   121    1
   135   170   167    1
   136   102   101    1
   137   102   103    1
   138   111   116   am
   139   111   110    1
   140   168   169    2
   141   168   167    1
   142    82    83    1
   143   180   183    1
   144   122   121    2
   145   162   159    1
   146    90    88   ar
   147   109   103   am
   148   109   110    1
   149    65    66    1
   150    83    92   am
   151   121   123   am
   152    66    67    1
   153   159   158    1
   154   159   160    1
   155   101    94   am
   156   103   104    2
   157   167   166    1
   158   110   113    1
   159    95    94    2
   160    94    93    1
   161    67    68    2
   162   113   115    1
   163   113   114    1
   164   183   184    1
   165   160   161    2
   166    92    93    1
   167    93    96    1
   168    79    78    1
   169   185   184   ar
   170   185   187   ar
   171   184   186   ar
   172    80    78    1
   173    78    75    1
   174    96    97    1
   175   187   189   ar
   176   186   188   ar
   177    75    76    1
   178    75    74    1
   179    97    98    1
   180   189   188   ar
   181    76    77    2
   182    98    99   ar
   183    98   100   ar
