@<TRIPOS>MOLECULE
tmp/6cmkB01.pdb
 116 114 0 0 0
SMALL
GASTEIGER

@<TRIPOS>ATOM
      1  N          0.4390    5.7000    1.1890 N.3   238  MET238     -0.1230
      2  CA        -0.9250    5.5960    1.6630 C.3   238  MET238      0.1702
      3  C         -1.7990    5.7820    0.4310 C.2   238  MET238      0.2592
      4  O         -1.4200    6.5200   -0.4790 O.2   238  MET238     -0.2718
      5  CB        -1.1540    6.6810    2.7310 C.3   238  MET238      0.0401
      6  CG        -2.5200    6.8160    3.3480 C.3   238  MET238      0.0596
      7  SD        -2.3510    7.9820    4.7320 S.3   238  MET238     -0.1393
      8  CE        -2.5360    9.5650    3.9240 C.3   238  MET238      0.0692
      9  N         -2.9420    5.0910    0.3710 N.am  239  GLN239     -0.1966
     10  CA        -3.8090    5.1770   -0.8070 C.3   239  GLN239      0.1733
     11  C         -4.7830    6.3390   -0.6730 C.2   239  GLN239      0.2616
     12  O         -5.6820    6.3140    0.1770 O.2   239  GLN239     -0.2715
     13  CB        -4.5670    3.8750   -1.0370 C.3   239  GLN239      0.0408
     14  CG        -3.6720    2.7810   -1.5530 C.3   239  GLN239      0.0908
     15  CD        -4.4530    1.5680   -2.0080 C.2   239  GLN239      0.2608
     16  OE1       -4.8930    0.7590   -1.1960 O.2   239  GLN239     -0.2717
     17  NE2       -4.6600    1.4590   -3.3160 N.am  239  GLN239     -0.0878
     18  N         -4.6180    7.3450   -1.5370 N.am  240  TYR240     -0.1974
     19  CA        -5.5520    8.4570   -1.6400 C.3   240  TYR240      0.1639
     20  C         -5.2760    9.1800   -2.9470 C.2   240  TYR240      0.2290
     21  O         -4.2250    9.0050   -3.5640 O.2   240  TYR240     -0.2864
     22  CB        -5.4250    9.4370   -0.4590 C.3   240  TYR240      0.0560
     23  CG        -4.1190   10.2020   -0.4180 C.ar  240  TYR240     -0.0198
     24  CD1       -3.0110    9.7090    0.2680 C.ar  240  TYR240     -0.0009
     25  CD2       -3.9890   11.4230   -1.0640 C.ar  240  TYR240     -0.0009
     26  CE1       -1.8170   10.4180    0.3120 C.ar  240  TYR240      0.0417
     27  CE2       -2.8060   12.1260   -1.0320 C.ar  240  TYR240      0.0417
     28  CZ        -1.7280   11.6320   -0.3400 C.ar  240  TYR240      0.1957
     29  OH        -0.5590   12.3380   -0.3220 O.3   240  TYR240     -0.2866
     30  N         -9.6260   15.7690   -1.3700 N.3   252  LEU252     -0.1231
     31  CA        -8.8950   14.5930   -0.9360 C.3   252  LEU252      0.1693
     32  C         -9.8610   13.4230   -0.9990 C.2   252  LEU252      0.2592
     33  O        -10.9900   13.5270   -0.5070 O.2   252  LEU252     -0.2718
     34  CB        -8.3660   14.7670    0.4840 C.3   252  LEU252      0.0284
     35  CG        -7.1930   15.7130    0.7680 C.3   252  LEU252      0.0019
     36  CD1       -7.4090   17.1070    0.2280 C.3   252  LEU252      0.0001
     37  CD2       -7.0050   15.7520    2.2800 C.3   252  LEU252      0.0001
     38  N         -9.4320   12.3310   -1.6190 N.am  253  VAL253     -0.1966
     39  CA       -10.3100   11.2010   -1.8920 C.3   253  VAL253      0.1727
     40  C         -9.6700    9.9370   -1.3460 C.2   253  VAL253      0.2616
     41  O         -8.5230    9.6280   -1.6800 O.2   253  VAL253     -0.2715
     42  CB       -10.5980   11.0390   -3.3970 C.3   253  VAL253      0.0290
     43  CG1      -11.7060   10.0290   -3.6070 C.3   253  VAL253      0.0023
     44  CG2      -10.9830   12.3860   -4.0110 C.3   253  VAL253      0.0023
     45  N        -10.4280    9.1940   -0.5340 N.am  254  ASP254     -0.1971
     46  CA        -9.9940    7.8910   -0.0380 C.3   254  ASP254      0.1709
     47  C        -10.7390    6.7940   -0.7900 C.2   254  ASP254      0.2293
     48  O        -11.9140    6.5340   -0.4940 O.2   254  ASP254     -0.2864
     49  CB       -10.2510    7.7840    1.4640 C.3   254  ASP254      0.1436
     50  CG        -9.6780    6.5110    2.0630 C.2   254  ASP254      0.3671
     51  OD1       -9.3410    5.5740    1.3020 O.co2 254  ASP254     -0.2456
     52  OD2       -9.5550    6.4570    3.3020 O.co2 254  ASP254     -0.2456
     53  N        -16.6080    7.1700    3.3250 N.3   259  ASP259     -0.1225
     54  CA       -16.5480    8.6140    3.5640 C.3   259  ASP259      0.1805
     55  C        -15.3750    9.1750    2.7580 C.2   259  ASP259      0.2598
     56  O        -14.3180    9.5430    3.2760 O.2   259  ASP259     -0.2718
     57  CB       -16.4170    8.9050    5.0540 C.3   259  ASP259      0.1424
     58  CG       -17.2750   10.0710    5.4990 C.2   259  ASP259      0.3668
     59  OD1      -16.8450   11.2290    5.3210 O.co2 259  ASP259     -0.2456
     60  OD2      -18.3880    9.8300    6.0160 O.co2 259  ASP259     -0.2456
     61  N        -15.5850    9.2380    1.4450 N.am  260  SER260     -0.1938
     62  CA       -14.4590    9.2670    0.5250 C.3   260  SER260      0.2055
     63  C        -13.8570   10.6560    0.3340 C.2   260  SER260      0.2643
     64  O        -12.6670   10.7400    0.0320 O.2   260  SER260     -0.2714
     65  CB       -14.8810    8.6950   -0.8320 C.3   260  SER260      0.2130
     66  OG       -15.3540    7.3670   -0.6890 O.3   260  SER260     -0.2179
     67  N        -14.6210   11.7470    0.5000 N.am  261  PHE261     -0.1959
     68  CA       -14.1930   13.0560    0.0000 C.3   261  PHE261      0.1771
     69  C        -14.0830   14.1050    1.1010 C.2   261  PHE261      0.2619
     70  O        -14.9670   14.2210    1.9550 O.2   261  PHE261     -0.2715
     71  CB       -15.1580   13.6060   -1.0340 C.3   261  PHE261      0.0574
     72  CG       -15.2460   12.8020   -2.2930 C.ar  261  PHE261     -0.0200
     73  CD1      -14.5300   13.1740   -3.4150 C.ar  261  PHE261     -0.0042
     74  CD2      -16.0720   11.7060   -2.3680 C.ar  261  PHE261     -0.0042
     75  CE1      -14.6260   12.4540   -4.5880 C.ar  261  PHE261     -0.0003
     76  CE2      -16.1740   10.9770   -3.5360 C.ar  261  PHE261     -0.0003
     77  CZ       -15.4520   11.3470   -4.6460 C.ar  261  PHE261     -0.0000
     78  N        -13.0270   14.9180    1.0270 N.am  262  ARG262     -0.1977
     79  CA       -12.8930   16.1090    1.8570 C.3   262  ARG262      0.1597
     80  C        -12.3940   17.2740    1.0140 C.2   262  ARG262      0.2287
     81  O        -11.4500   17.1280    0.2340 O.2   262  ARG262     -0.2864
     82  CB       -11.9280   15.8820    3.0190 C.3   262  ARG262      0.0334
     83  CG       -12.4370   14.8950    4.0520 C.3   262  ARG262      0.0492
     84  CD       -13.5930   15.4880    4.8450 C.3   262  ARG262      0.2205
     85  NE       -14.0620   14.5910    5.8980 N.pl3 262  ARG262     -0.0865
     86  CZ       -15.0100   13.6700    5.7430 C.cat 262  ARG262      0.5346
     87  NH1      -15.6090   13.5050    4.5690 N.pl3 262  ARG262      0.1354
     88  NH2      -15.3590   12.9060    6.7680 N.pl3 262  ARG262      0.1354
     89  N         -2.9770   15.1380    5.1550 N.3   297  VAL297     -0.1231
     90  CA        -4.0050   14.4080    4.4220 C.3   297  VAL297      0.1692
     91  C         -4.9970   13.7510    5.3740 C.2   297  VAL297      0.2592
     92  O         -6.2020   13.7090    5.1040 O.2   297  VAL297     -0.2718
     93  CB        -3.3410   13.3840    3.4810 C.3   297  VAL297      0.0266
     94  CG1       -4.3750   12.5640    2.7480 C.3   297  VAL297      0.0020
     95  CG2       -2.4540   14.1110    2.4770 C.3   297  VAL297      0.0020
     96  N         -4.5160   13.2300    6.5000 N.am  298  LEU298     -0.1966
     97  CA        -5.4220   12.5750    7.4410 C.3   298  LEU298      0.1728
     98  C         -6.3000   13.5750    8.1840 C.2   298  LEU298      0.2616
     99  O         -7.4620   13.2730    8.4750 O.2   298  LEU298     -0.2715
    100  CB        -4.6130   11.7120    8.4100 C.3   298  LEU298      0.0311
    101  CG        -3.9370   10.5710    7.6310 C.3   298  LEU298      0.0022
    102  CD1       -2.8970    9.8310    8.4540 C.3   298  LEU298      0.0001
    103  CD2       -4.9800    9.5880    7.1030 C.3   298  LEU298      0.0001
    104  N         -5.7890   14.7670    8.4840 N.am  299  LYS299     -0.1963
    105  CA        -6.6350   15.7770    9.1030 C.3   299  LYS299      0.1728
    106  C         -7.4860   16.5280    8.0890 C.2   299  LYS299      0.2616
    107  O         -8.4760   17.1590    8.4740 O.2   299  LYS299     -0.2715
    108  CB        -5.7820   16.7640    9.8960 C.3   299  LYS299      0.0311
    109  CG        -5.0360   16.1320   11.0610 C.3   299  LYS299      0.0038
    110  CD        -4.3450   17.1820   11.9150 C.3   299  LYS299      0.0206
    111  CE        -4.0950   16.6770   13.3250 C.3   299  LYS299      0.1093
    112  NZ        -3.5170   17.7340   14.1970 N.3   299  LYS299     -0.1314
    113  N         -7.1350   16.4680    6.8080 N.am  300  GLY300     -0.1955
    114  CA        -7.9100   17.1620    5.7990 C.3   300  GLY300      0.1869
    115  C         -7.7860   18.6680    5.8760 C.2   300  GLY300      0.2309
    116  O         -8.7840   19.3790    5.6970 O.2   300  GLY300     -0.2863
@<TRIPOS>BOND
     1    77    75   ar
     2    77    76   ar
     3    75    73   ar
     4    44    42    1
     5    43    42    1
     6    21    20    2
     7    76    74   ar
     8    73    72   ar
     9    42    39    1
    10    17    15   am
    11    20    19    1
    12    74    72   ar
    13    72    71    1
    14    15    14    1
    15    15    16    2
    16    39    38    1
    17    39    40    1
    18    41    40    2
    19    19    18    1
    20    19    22    1
    21    38    32   am
    22    14    13    1
    23    18    11   am
    24    30    31    1
    25    40    45   am
    26    25    27   ar
    27    25    23   ar
    28    13    10    1
    29    71    68    1
    30    27    28   ar
    31    32    31    1
    32    32    33    2
    33    31    34    1
    34    65    66    1
    35    65    62    1
    36    10    11    1
    37    10     9    1
    38    47    48    2
    39    47    46    1
    40    11    12    2
    41    45    46    1
    42     4     3    2
    43    22    23    1
    44    23    24   ar
    45    28    29    1
    46    28    26   ar
    47    46    49    1
    48    68    67    1
    49    68    69    1
    50    64    63    2
    51    36    35    1
    52    81    80    2
    53    24    26   ar
    54    63    67   am
    55    63    62    1
    56     9     3   am
    57     3     2    1
    58    34    35    1
    59    62    61    1
    60    35    37    1
    61    80    79    1
    62    78    69   am
    63    78    79    1
    64    69    70    2
    65     1     2    1
    66    51    50   ar
    67    61    55   am
    68    49    50    1
    69     2     5    1
    70    79    82    1
    71    50    52   ar
    72    95    93    1
    73     5     6    1
    74    94    93    1
    75    55    56    2
    76    55    54    1
    77    82    83    1
    78    53    54    1
    79     6     7    1
    80    93    90    1
    81    54    57    1
    82     8     7    1
    83    83    84    1
    84    90    89    1
    85    90    91    1
    86    87    86    1
    87    84    85    1
    88    57    58    1
    89    92    91    2
    90    59    58   ar
    91    91    96   am
    92    58    60   ar
    93   116   115    2
    94    86    85    2
    95    86    88    1
    96   114   115    1
    97   114   113    1
    98    96    97    1
    99   113   106   am
   100   103   101    1
   101    97    98    1
   102    97   100    1
   103   101   100    1
   104   101   102    1
   105   106   107    2
   106   106   105    1
   107    98    99    2
   108    98   104   am
   109   104   105    1
   110   105   108    1
   111   108   109    1
   112   109   110    1
   113   110   111    1
   114   111   112    1
