@<TRIPOS>MOLECULE
tmp/6cmkB00.pdb
 76 72 0 0 0
SMALL
GASTEIGER

@<TRIPOS>ATOM
      1  N         20.0060   10.5590   -4.4790 N.3     6  TRP6       -0.1241
      2  CA        18.7900   11.1100   -5.0590 C.3     6  TRP6        0.1605
      3  C         19.1680   12.1040   -6.1480 C.2     6  TRP6        0.2264
      4  O         20.1510   12.8390   -6.0140 O.2     6  TRP6       -0.2867
      5  CB        17.9240   11.8240   -4.0230 C.3     6  TRP6        0.0550
      6  CG        17.3240   10.9480   -2.9440 C.ar    6  TRP6        0.0003
      7  CD1       17.9730   10.4090   -1.8750 C.ar    6  TRP6        0.0946
      8  CD2       15.9540   10.5640   -2.8160 C.ar    6  TRP6        0.0152
      9  NE1       17.0970    9.7020   -1.0870 N.ar    6  TRP6       -0.2442
     10  CE2       15.8480    9.7770   -1.6470 C.ar    6  TRP6        0.0810
     11  CE3       14.8090   10.7950   -3.5740 C.ar    6  TRP6        0.0012
     12  CZ2       14.6460    9.2360   -1.2270 C.ar    6  TRP6        0.0191
     13  CZ3       13.6150   10.2520   -3.1480 C.ar    6  TRP6        0.0001
     14  CH2       13.5470    9.4800   -1.9870 C.ar    6  TRP6        0.0015
     15  N          7.8560    4.0900  -11.6900 N.3    44  GLU44      -0.1231
     16  CA         7.7290    3.6800  -10.2920 C.3    44  GLU44       0.1699
     17  C          9.0590    3.1890   -9.7310 C.2    44  GLU44       0.2592
     18  O          9.4160    3.5180   -8.5910 O.2    44  GLU44      -0.2718
     19  CB         6.6520    2.6030  -10.1600 C.3    44  GLU44       0.0402
     20  CG         5.2500    3.1270  -10.3830 C.3    44  GLU44       0.1161
     21  CD         4.1620    2.1410  -10.0340 C.2    44  GLU44       0.3649
     22  OE1        4.3720    0.9140  -10.1910 O.co2  44  GLU44      -0.2457
     23  OE2        3.0830    2.6090   -9.6010 O.co2  44  GLU44      -0.2457
     24  N          9.8020    2.3920  -10.5060 N.am   45  SER45      -0.1952
     25  CA        11.0980    1.9070  -10.0480 C.3    45  SER45       0.1924
     26  C         12.0950    3.0350   -9.8730 C.2    45  SER45       0.2314
     27  O         13.0980    2.8510   -9.1740 O.2    45  SER45      -0.2863
     28  CB        11.6820    0.8970  -11.0360 C.3    45  SER45       0.2116
     29  OG        12.2160    1.5530  -12.1770 O.3    45  SER45      -0.2180
     30  N         17.3860   -0.1500   -7.7240 N.3    68  PHE68      -0.1241
     31  CA        17.4100   -0.9150   -6.4890 C.3    68  PHE68       0.1605
     32  C         17.0950   -2.3850   -6.7170 C.2    68  PHE68       0.2264
     33  O         16.4830   -2.7780   -7.7170 O.2    68  PHE68      -0.2867
     34  CB        16.4210   -0.3490   -5.4760 C.3    68  PHE68       0.0534
     35  CG        16.7380    1.0510   -5.0560 C.ar   68  PHE68      -0.0203
     36  CD1       17.6930    1.2990   -4.0810 C.ar   68  PHE68      -0.0042
     37  CD2       16.0870    2.1240   -5.6550 C.ar   68  PHE68      -0.0042
     38  CE1       17.9850    2.6060   -3.6770 C.ar   68  PHE68      -0.0003
     39  CE2       16.3780    3.4220   -5.2600 C.ar   68  PHE68      -0.0003
     40  CZ        17.3270    3.6620   -4.2850 C.ar   68  PHE68      -0.0000
     41  N         15.3810   -5.4520   -4.2840 N.3    70  ASP70      -0.1239
     42  CA        14.5930   -5.7040   -3.0750 C.3    70  ASP70       0.1674
     43  C         15.0250   -7.0380   -2.4790 C.2    70  ASP70       0.2266
     44  O         14.6360   -8.0990   -2.9690 O.2    70  ASP70      -0.2867
     45  CB        13.1080   -5.7130   -3.4270 C.3    70  ASP70       0.1410
     46  CG        12.2030   -5.9100   -2.2190 C.2    70  ASP70       0.3668
     47  OD1       12.7100   -6.1840   -1.1150 O.co2  70  ASP70      -0.2456
     48  OD2       10.9660   -5.7830   -2.3930 O.co2  70  ASP70      -0.2456
     49  N         18.0770   -3.6130    1.0530 N.3    75  ALA75      -0.1245
     50  CA        18.0250   -3.2770   -0.3580 C.3    75  ALA75       0.1562
     51  C         19.4390   -2.9700   -0.8200 C.2    75  ALA75       0.2260
     52  O         20.2660   -2.4820   -0.0410 O.2    75  ALA75      -0.2867
     53  CB        17.1080   -2.0730   -0.6330 C.3    75  ALA75       0.0290
     54  N          1.5980    7.8250   -2.3180 N.3   236  LYS236     -0.1245
     55  CA         2.5340    6.7260   -2.5520 C.3   236  LYS236      0.1561
     56  C          2.5440    5.6970   -1.4300 C.2   236  LYS236      0.2260
     57  O          2.3900    4.4980   -1.6930 O.2   236  LYS236     -0.2867
     58  CB         3.9490    7.2670   -2.7750 C.3   236  LYS236      0.0271
     59  CG         4.2600    7.5320   -4.2380 C.3   236  LYS236      0.0035
     60  CD         5.3410    6.6010   -4.7790 C.3   236  LYS236      0.0206
     61  CE         4.9330    5.1300   -4.7370 C.3   236  LYS236      0.1093
     62  NZ         5.4920    4.3660   -5.8930 N.3   236  LYS236     -0.1314
     63  N         15.2470    8.2780   -6.2070 N.3   369  GLY369     -0.1210
     64  CA        16.3500    7.9060   -5.3440 C.3   369  GLY369      0.1956
     65  C         15.8830    7.2030   -4.0890 C.2   369  GLY369      0.2612
     66  O         14.7180    6.8450   -3.9430 O.2   369  GLY369     -0.2717
     67  N         16.8300    7.0340   -3.1760 N.am  370  GLY370     -0.1942
     68  CA        16.6660    6.2710   -1.9410 C.3   370  GLY370      0.2014
     69  C         18.0370    5.8980   -1.3920 C.2   370  GLY370      0.2639
     70  O         19.0150    6.5970   -1.6200 O.2   370  GLY370     -0.2714
     71  N         18.1030    4.7670   -0.6950 N.am  371  SER371     -0.1949
     72  CA        19.4030    4.3210   -0.2090 C.3   371  SER371      0.1924
     73  C         19.4550    2.8000   -0.2150 C.2   371  SER371      0.2314
     74  O         18.4300    2.1190   -0.2380 O.2   371  SER371     -0.2863
     75  CB        19.7060    4.8740    1.1920 C.3   371  SER371      0.2116
     76  OG        18.9950    4.1720    2.1980 O.3   371  SER371     -0.2180
@<TRIPOS>BOND
     1    29    28    1
     2    15    16    1
     3    28    25    1
     4    24    25    1
     5    24    17   am
     6    20    19    1
     7    20    21    1
     8    16    19    1
     9    16    17    1
    10    22    21   ar
    11    25    26    1
    12    21    23   ar
    13    26    27    2
    14    17    18    2
    15    30    31    1
    16    33    32    2
    17    32    31    1
    18    31    34    1
    19    63    64    1
    20     3     4    2
    21     3     2    1
    22    62    61    1
    23    37    39   ar
    24    37    35   ar
    25    34    35    1
    26    64    65    1
    27    39    40   ar
    28     2     1    1
    29     2     5    1
    30    35    36   ar
    31    60    61    1
    32    60    59    1
    33    40    38   ar
    34    41    42    1
    35    59    58    1
    36    65    66    2
    37    65    67   am
    38    36    38   ar
    39     5     6    1
    40    11    13   ar
    41    11     8   ar
    42    45    42    1
    43    45    46    1
    44    67    68    1
    45    13    14   ar
    46    42    43    1
    47    44    43    2
    48     6     8   ar
    49     6     7   ar
    50     8    10   ar
    51    58    55    1
    52    55    54    1
    53    55    56    1
    54    48    46   ar
    55    46    47   ar
    56    14    12   ar
    57    68    69    1
    58     7     9   ar
    59    57    56    2
    60    10    12   ar
    61    10     9   ar
    62    70    69    2
    63    69    71   am
    64    51    50    1
    65    51    52    2
    66    71    72    1
    67    53    50    1
    68    50    49    1
    69    74    73    2
    70    73    72    1
    71    72    75    1
    72    75    76    1
