@<TRIPOS>MOLECULE
tmp/6cmkA00.pdb
 98 96 0 0 0
SMALL
GASTEIGER

@<TRIPOS>ATOM
      1  N         16.9470  -14.9810   13.5970 N.3    39  SER39      -0.1217
      2  CA        16.4790  -16.2310   13.0180 C.3    39  SER39       0.1889
      3  C         16.2150  -17.2330   14.1300 C.2    39  SER39       0.2288
      4  O         16.8710  -17.2180   15.1750 O.2    39  SER39      -0.2866
      5  CB        17.5030  -16.8260   12.0420 C.3    39  SER39       0.2089
      6  OG        17.7020  -15.9910   10.9320 O.3    39  SER39      -0.2183
      7  N         23.3070  -14.2580    5.4940 N.3    94  HIS94      -0.1226
      8  CA        22.1720  -15.1640    5.4400 C.3    94  HIS94       0.1752
      9  C         22.3780  -16.4040    6.3030 C.2    94  HIS94       0.2596
     10  O         23.4200  -17.0660    6.2440 O.2    94  HIS94      -0.2718
     11  CB        21.8990  -15.5350    3.9840 C.3    94  HIS94       0.0759
     12  CG        21.1460  -14.4690    3.2560 C.ar   94  HIS94       0.0818
     13  ND1       19.7800  -14.3280    3.3640 N.ar   94  HIS94      -0.2268
     14  CD2       21.5730  -13.4390    2.4890 C.ar   94  HIS94       0.1154
     15  CE1       19.3930  -13.2790    2.6610 C.ar   94  HIS94       0.1986
     16  NE2       20.4610  -12.7210    2.1210 N.ar   94  HIS94      -0.2212
     17  N         21.3600  -16.6990    7.1050 N.am   95  PHE95      -0.1976
     18  CA        21.2610  -17.8800    7.9500 C.3    95  PHE95       0.1639
     19  C         20.2620  -18.8340    7.3060 C.2    95  PHE95       0.2290
     20  O         19.1400  -18.4320    6.9750 O.2    95  PHE95      -0.2864
     21  CB        20.8130  -17.4510    9.3600 C.3    95  PHE95       0.0560
     22  CG        20.4350  -18.5800   10.2990 C.ar   95  PHE95      -0.0200
     23  CD1       19.1900  -19.1840   10.2220 C.ar   95  PHE95      -0.0042
     24  CD2       21.2910  -18.9700   11.3120 C.ar   95  PHE95      -0.0042
     25  CE1       18.8310  -20.1890   11.0990 C.ar   95  PHE95      -0.0003
     26  CE2       20.9400  -19.9790   12.1950 C.ar   95  PHE95      -0.0003
     27  CZ        19.7050  -20.5890   12.0920 C.ar   95  PHE95      -0.0000
     28  N         19.4860  -14.1820   -5.6020 N.3   184  HIS184     -0.1226
     29  CA        19.2030  -13.7460   -4.2420 C.3   184  HIS184      0.1752
     30  C         17.7660  -14.1050   -3.9100 C.2   184  HIS184      0.2597
     31  O         16.8600  -13.8740   -4.7200 O.2   184  HIS184     -0.2718
     32  CB        19.3860  -12.2370   -4.0520 C.3   184  HIS184      0.0759
     33  CG        19.2820  -11.8150   -2.6190 C.ar  184  HIS184      0.0818
     34  ND1       18.0710  -11.6810   -1.9770 N.ar  184  HIS184     -0.2268
     35  CD2       20.2330  -11.5710   -1.6870 C.ar  184  HIS184      0.1154
     36  CE1       18.2790  -11.3350   -0.7190 C.ar  184  HIS184      0.1986
     37  NE2       19.5830  -11.2670   -0.5190 N.ar  184  HIS184     -0.2212
     38  N         17.5530  -14.6340   -2.7120 N.am  185  GLY185     -0.1942
     39  CA        16.2430  -15.0390   -2.2320 C.3   185  GLY185      0.2014
     40  C         16.3530  -16.5280   -1.9640 C.2   185  GLY185      0.2640
     41  O         16.8020  -17.3070   -2.8020 O.2   185  GLY185     -0.2714
     42  N         15.9520  -16.9240   -0.7630 N.am  186  SER186     -0.1935
     43  CA        16.1550  -18.3010   -0.3370 C.3   186  SER186      0.2055
     44  C         15.0930  -18.6800    0.6820 C.2   186  SER186      0.2642
     45  O         14.7980  -17.9140    1.5920 O.2   186  SER186     -0.2714
     46  CB        17.5540  -18.4820    0.2580 C.3   186  SER186      0.2130
     47  OG        17.7420  -17.6000    1.3540 O.3   186  SER186     -0.2179
     48  N         14.5140  -19.8640    0.5240 N.am  187  ALA187     -0.1977
     49  CA        13.5790  -20.3600    1.5230 C.3   187  ALA187      0.1597
     50  C         13.3590  -21.8440    1.3010 C.2   187  ALA187      0.2287
     51  O         13.5090  -22.3510    0.1880 O.2   187  ALA187     -0.2864
     52  CB        12.2300  -19.6370    1.4810 C.3   187  ALA187      0.0319
     53  N         13.3090  -12.2150   -2.9500 N.3   229  THR229     -0.1203
     54  CA        13.1900  -12.5660   -1.5460 C.3   229  THR229      0.1994
     55  C         12.0390  -13.5540   -1.4030 C.2   229  THR229      0.2618
     56  O         11.0300  -13.4290   -2.0930 O.2   229  THR229     -0.2717
     57  CB        12.9740  -11.3120   -0.6830 C.3   229  THR229      0.1784
     58  OG1       13.0530  -11.6670    0.6970 O.3   229  THR229     -0.2211
     59  CG2       11.6300  -10.6670   -0.9420 C.3   229  THR229      0.0376
     60  N         12.2010  -14.5490   -0.5210 N.am  230  LEU230     -0.1965
     61  CA        11.2900  -15.6930   -0.4720 C.3   230  LEU230      0.1728
     62  C         10.9140  -16.0530    0.9600 C.2   230  LEU230      0.2616
     63  O         11.6890  -15.8470    1.8930 O.2   230  LEU230     -0.2715
     64  CB        11.9280  -16.9340   -1.0940 C.3   230  LEU230      0.0311
     65  CG        12.2200  -16.9140   -2.5840 C.3   230  LEU230      0.0022
     66  CD1       13.1170  -18.0870   -2.9550 C.3   230  LEU230      0.0001
     67  CD2       10.8920  -17.0220   -3.2880 C.3   230  LEU230      0.0001
     68  N          9.7160  -16.6180    1.1210 N.am  231  ILE231     -0.1963
     69  CA         9.3520  -17.3630    2.3220 C.3   231  ILE231      0.1727
     70  C          8.7660  -18.6970    1.8830 C.2   231  ILE231      0.2616
     71  O          8.3230  -18.8620    0.7460 O.2   231  ILE231     -0.2715
     72  CB         8.3510  -16.6070    3.2260 C.3   231  ILE231      0.0290
     73  CG1        7.1020  -16.2010    2.4340 C.3   231  ILE231      0.0022
     74  CG2        9.0160  -15.3780    3.8440 C.3   231  ILE231      0.0023
     75  CD1        6.0150  -15.5300    3.2740 C.3   231  ILE231      0.0001
     76  N          8.7810  -19.6650    2.7910 N.am  232  GLY232     -0.1955
     77  CA         8.3330  -21.0150    2.4860 C.3   232  GLY232      0.1869
     78  C          7.2310  -21.4890    3.4130 C.2   232  GLY232      0.2309
     79  O          7.2940  -21.2740    4.6220 O.2   232  GLY232     -0.2863
     80  N          4.9970  -23.6980    5.8180 N.3   234  LYS234     -0.1245
     81  CA         5.3350  -24.5930    6.9170 C.3   234  LYS234      0.1561
     82  C          4.0820  -25.4060    7.2420 C.2   234  LYS234      0.2260
     83  O          3.1900  -24.9390    7.9540 O.2   234  LYS234     -0.2867
     84  CB         5.8470  -23.7930    8.1140 C.3   234  LYS234      0.0271
     85  CG         7.1500  -23.0600    7.7980 C.3   234  LYS234      0.0035
     86  CD         7.7610  -22.3760    9.0160 C.3   234  LYS234      0.0206
     87  CE         9.0630  -21.6580    8.6550 C.3   234  LYS234      0.1093
     88  NZ        10.0180  -22.5180    7.8950 N.3   234  LYS234     -0.1314
     89  N          6.8380   -6.4310    4.8720 N.3   270  HIS270     -0.1241
     90  CA         7.2830   -7.7010    5.4390 C.3   270  HIS270      0.1621
     91  C          6.2640   -8.7830    5.1080 C.2   270  HIS270      0.2264
     92  O          5.0880   -8.5030    4.9000 O.2   270  HIS270     -0.2867
     93  CB         7.4670   -7.5910    6.9620 C.3   270  HIS270      0.0745
     94  CG         8.2580   -8.7060    7.5560 C.ar  270  HIS270      0.0817
     95  ND1        7.8920   -9.3370    8.7250 N.ar  270  HIS270     -0.2268
     96  CD2        9.4010   -9.3010    7.1480 C.ar  270  HIS270      0.1154
     97  CE1        8.7830  -10.2660    9.0180 C.ar  270  HIS270      0.1986
     98  NE2        9.7070  -10.2680    8.0760 N.ar  270  HIS270     -0.2212
@<TRIPOS>BOND
     1    28    29    1
     2    31    30    2
     3    29    32    1
     4    29    30    1
     5    32    33    1
     6    30    38   am
     7    67    65    1
     8    66    65    1
     9    53    54    1
    10    41    40    2
    11    38    39    1
    12    33    34   ar
    13    33    35   ar
    14    65    64    1
    15    39    40    1
    16    56    55    2
    17    34    36   ar
    18    40    42   am
    19    35    37   ar
    20    54    55    1
    21    54    57    1
    22    55    60   am
    23    64    61    1
    24    59    57    1
    25    42    43    1
    26    36    37   ar
    27    57    58    1
    28    60    61    1
    29    61    62    1
    30    43    46    1
    31    43    44    1
    32    51    50    2
    33    46    47    1
    34    48    44   am
    35    48    49    1
    36    44    45    2
    37    71    70    2
    38    62    68   am
    39    62    63    2
    40    68    69    1
    41    50    49    1
    42    52    49    1
    43    70    69    1
    44    70    76   am
    45    16    14   ar
    46    16    15   ar
    47    69    72    1
    48    73    72    1
    49    73    75    1
    50    77    76    1
    51    77    78    1
    52    14    12   ar
    53    15    13   ar
    54    72    74    1
    55    12    13   ar
    56    12    11    1
    57    78    79    2
    58    11     8    1
    59    89    90    1
    60    92    91    2
    61    91    90    1
    62    90    93    1
    63     8     7    1
    64     8     9    1
    65    80    81    1
    66    10     9    2
    67     9    17   am
    68    81    82    1
    69    81    84    1
    70    93    94    1
    71    20    19    2
    72    17    18    1
    73    96    94   ar
    74    96    98   ar
    75    82    83    2
    76    19    18    1
    77    94    95   ar
    78    85    84    1
    79    85    86    1
    80    88    87    1
    81    18    21    1
    82    98    97   ar
    83    87    86    1
    84    95    97   ar
    85    21    22    1
    86    23    22   ar
    87    23    25   ar
    88    22    24   ar
    89     6     5    1
    90    25    27   ar
    91    24    26   ar
    92     5     2    1
    93    27    26   ar
    94     2     1    1
    95     2     3    1
    96     3     4    2
