@<TRIPOS>MOLECULE
tmp/6cmlB00.pdb
 198 195 0 0 0
SMALL
GASTEIGER

@<TRIPOS>ATOM
      1  N        -32.8920   11.6510    5.1570 N.3    16  PRO16      -0.2102
      2  CA       -33.9660   12.2140    5.9680 C.3    16  PRO16       0.1504
      3  C        -33.7720   11.6900    7.3600 C.2    16  PRO16       0.2575
      4  O        -33.0830   10.6710    7.5370 O.2    16  PRO16      -0.2718
      5  CB       -35.2340   11.6240    5.3450 C.3    16  PRO16       0.0282
      6  CG       -34.7840   10.7660    4.1980 C.3    16  PRO16       0.0208
      7  CD       -33.3470   10.4610    4.4240 C.3    16  PRO16       0.0893
      8  N        -34.3520   12.3670    8.3380 N.am   17  ILE17      -0.1980
      9  CA       -34.3350   11.8730    9.7260 C.3    17  ILE17       0.1595
     10  C        -35.6200   11.0710    9.9290 C.2    17  ILE17       0.2287
     11  O        -36.7050   11.5130    9.5470 O.2    17  ILE17      -0.2864
     12  CB       -34.1530   13.0040   10.7700 C.3    17  ILE17       0.0276
     13  CG1      -35.1760   14.1400   10.5830 C.3    17  ILE17       0.0022
     14  CG2      -32.7320   13.5690   10.6990 C.3    17  ILE17       0.0022
     15  CD1      -35.2720   15.0630   11.7740 C.3    17  ILE17       0.0001
     16  N        -38.7540    8.7600   11.6370 N.3    19  TYR19      -0.1241
     17  CA       -39.7100    8.8130   12.7590 C.3    19  TYR19       0.1605
     18  C        -39.5470    7.5660   13.6540 C.2    19  TYR19       0.2264
     19  O        -39.4550    6.4460   13.1570 O.2    19  TYR19      -0.2867
     20  CB       -41.1500    9.0560   12.2260 C.3    19  TYR19       0.0534
     21  CG       -42.1050    9.7120   13.1990 C.ar   19  TYR19      -0.0201
     22  CD1      -41.7090   10.8230   13.9640 C.ar   19  TYR19      -0.0009
     23  CD2      -43.4290    9.2750   13.3340 C.ar   19  TYR19      -0.0009
     24  CE1      -42.5710   11.4490   14.8480 C.ar   19  TYR19       0.0417
     25  CE2      -44.3040    9.8950   14.2310 C.ar   19  TYR19       0.0417
     26  CZ       -43.8800   10.9930   14.9810 C.ar   19  TYR19       0.1957
     27  OH       -44.7380   11.6190   15.8790 O.3    19  TYR19      -0.2866
     28  N        -36.2210   11.5420   14.1050 N.3    56  ASP56      -0.1239
     29  CA       -37.2430   12.5490   14.2500 C.3    56  ASP56       0.1674
     30  C        -38.1370   12.0450   15.4010 C.2    56  ASP56       0.2266
     31  O        -38.8720   11.0850   15.2280 O.2    56  ASP56      -0.2867
     32  CB       -38.0090   12.6520   12.9220 C.3    56  ASP56       0.1410
     33  CG       -39.1560   13.6540   12.9800 C.2    56  ASP56       0.3668
     34  OD1      -39.1170   14.6040   13.7940 O.co2  56  ASP56      -0.2456
     35  OD2      -40.1280   13.4880   12.2280 O.co2  56  ASP56      -0.2456
     36  N        -40.0970   13.9880   18.1130 N.3    58  HIS58      -0.1226
     37  CA       -41.2630   14.6510   18.7020 C.3    58  HIS58       0.1752
     38  C        -42.5800   14.2130   18.0670 C.2    58  HIS58       0.2597
     39  O        -42.5930   13.4560   17.1040 O.2    58  HIS58      -0.2718
     40  CB       -41.0790   16.1670   18.6340 C.3    58  HIS58       0.0759
     41  CG       -39.9290   16.6570   19.4570 C.ar   58  HIS58       0.0818
     42  ND1      -38.9310   17.4620   18.9540 N.ar   58  HIS58      -0.2268
     43  CD2      -39.6010   16.4210   20.7470 C.ar   58  HIS58       0.1154
     44  CE1      -38.0410   17.7020   19.9000 C.ar   58  HIS58       0.1986
     45  NE2      -38.4270   17.0840   20.9980 N.ar   58  HIS58      -0.2212
     46  N        -43.6850   14.6650   18.6530 N.am   59  GLY59      -0.1942
     47  CA       -45.0170   14.4910   18.0780 C.3    59  GLY59       0.2014
     48  C        -45.9780   13.5230   18.7580 C.2    59  GLY59       0.2638
     49  O        -45.6090   12.6640   19.5560 O.2    59  GLY59      -0.2714
     50  N        -47.2300   13.6610   18.3570 N.am   60  GLN60      -0.1977
     51  CA       -48.3550   12.9410   18.9250 C.3    60  GLN60       0.1601
     52  C        -48.1930   11.4120   18.8170 C.2    60  GLN60       0.2287
     53  O        -48.3850   10.6740   19.7950 O.2    60  GLN60      -0.2864
     54  CB       -49.6100   13.4100   18.1890 C.3    60  GLN60       0.0394
     55  CG       -50.9340   12.9950   18.7830 C.3    60  GLN60       0.0908
     56  CD       -52.0920   13.5090   17.9290 C.2    60  GLN60       0.2608
     57  OE1      -52.1230   14.6820   17.5390 O.2    60  GLN60      -0.2717
     58  NE2      -53.0420   12.6400   17.6270 N.am   60  GLN60      -0.0878
     59  N        -54.4050   14.9280   12.6480 N.3   137  GLU137     -0.1245
     60  CA       -53.8140   16.2420   12.9670 C.3   137  GLU137      0.1567
     61  C        -53.9540   17.2360   11.8030 C.2   137  GLU137      0.2260
     62  O        -53.0510   18.0270   11.5290 O.2   137  GLU137     -0.2867
     63  CB       -52.3460   16.1130   13.3850 C.3   137  GLU137      0.0388
     64  CG       -52.0470   15.0360   14.3870 C.3   137  GLU137      0.1160
     65  CD       -50.6040   14.5660   14.3370 C.2   137  GLU137      0.3649
     66  OE1      -50.3820   13.4400   13.8690 O.co2 137  GLU137     -0.2457
     67  OE2      -49.6970   15.3160   14.7410 O.co2 137  GLU137     -0.2457
     68  N        -50.5290   17.4020   21.2180 N.3   218  LEU218     -0.1245
     69  CA       -49.2430   16.6770   21.0760 C.3   218  LEU218      0.1561
     70  C        -48.7380   15.9280   22.3400 C.2   218  LEU218      0.2260
     71  O        -47.5990   15.4260   22.3670 O.2   218  LEU218     -0.2867
     72  CB       -48.1590   17.6570   20.5950 C.3   218  LEU218      0.0270
     73  CG       -48.4260   18.3720   19.2670 C.3   218  LEU218      0.0019
     74  CD1      -47.2470   19.2580   18.9180 C.3   218  LEU218      0.0001
     75  CD2      -48.6790   17.3680   18.1580 C.3   218  LEU218      0.0001
     76  N        -42.9620   17.9470   22.2080 N.3   222  ALA222     -0.1245
     77  CA       -42.6670   18.8440   21.0820 C.3   222  ALA222      0.1562
     78  C        -41.9180   20.0870   21.5570 C.2   222  ALA222      0.2260
     79  O        -41.8220   20.3470   22.7570 O.2   222  ALA222     -0.2867
     80  CB       -43.9520   19.2640   20.3790 C.3   222  ALA222      0.0290
     81  N        -44.1990   23.7520   18.1980 N.3   233  VAL233     -0.1231
     82  CA       -43.7600   23.8300   16.8080 C.3   233  VAL233      0.1692
     83  C        -44.0880   22.5210   16.1030 C.2   233  VAL233      0.2592
     84  O        -43.7050   21.4160   16.5440 O.2   233  VAL233     -0.2718
     85  CB       -42.2460   24.0390   16.7150 C.3   233  VAL233      0.0266
     86  CG1      -41.7990   24.0360   15.2570 C.3   233  VAL233      0.0020
     87  CG2      -41.8620   25.3360   17.4060 C.3   233  VAL233      0.0020
     88  N        -44.7790   22.5920   15.0020 N.am  234  TYR234     -0.1962
     89  CA       -45.1870   21.3860   14.3530 C.3   234  TYR234      0.1771
     90  C        -44.0710   20.7240   13.5930 C.2   234  TYR234      0.2619
     91  O        -42.9320   21.0890   13.7180 O.2   234  TYR234     -0.2715
     92  CB       -46.4380   21.6320   13.5390 C.3   234  TYR234      0.0574
     93  CG       -47.1720   20.4100   13.1440 C.ar  234  TYR234     -0.0198
     94  CD1      -47.4250   19.4150   14.0370 C.ar  234  TYR234     -0.0009
     95  CD2      -47.6160   20.2600   11.8730 C.ar  234  TYR234     -0.0009
     96  CE1      -48.0940   18.2850   13.6620 C.ar  234  TYR234      0.0417
     97  CE2      -48.2820   19.1370   11.4860 C.ar  234  TYR234      0.0417
     98  CZ       -48.5140   18.1580   12.3870 C.ar  234  TYR234      0.1957
     99  OH       -49.1870   17.0570   11.9710 O.3   234  TYR234     -0.2866
    100  N        -44.4080   19.7080   12.8390 N.am  235  VAL235     -0.1963
    101  CA       -43.4330   18.9080   12.1680 C.3   235  VAL235      0.1727
    102  C        -42.4710   19.5750   11.1960 C.2   235  VAL235      0.2616
    103  O        -41.3090   19.2430   11.1670 O.2   235  VAL235     -0.2715
    104  CB       -44.1800   17.7620   11.4570 C.3   235  VAL235      0.0290
    105  CG1      -45.3240   18.2990   10.6590 C.3   235  VAL235      0.0023
    106  CG2      -43.2810   16.9180   10.5820 C.3   235  VAL235      0.0023
    107  N        -42.9500   20.4930   10.3980 N.am  236  TRP236     -0.1974
    108  CA       -42.1190   21.1110    9.3910 C.3   236  TRP236      0.1640
    109  C        -40.9200   21.9310    9.8340 C.2   236  TRP236      0.2290
    110  O        -39.8220   21.7100    9.3960 O.2   236  TRP236     -0.2864
    111  CB       -43.0090   21.9780    8.5070 C.3   236  TRP236      0.0576
    112  CG       -44.4080   21.5010    8.3490 C.ar  236  TRP236      0.0006
    113  CD1      -45.5030   22.0830    8.8300 C.ar  236  TRP236      0.0946
    114  CD2      -44.8430   20.3300    7.6810 C.ar  236  TRP236      0.0152
    115  NE1      -46.6090   21.3730    8.5010 N.ar  236  TRP236     -0.2442
    116  CE2      -46.2250   20.2850    7.7870 C.ar  236  TRP236      0.0810
    117  CE3      -44.1960   19.3150    6.9900 C.ar  236  TRP236      0.0012
    118  CZ2      -46.9630   19.2810    7.2450 C.ar  236  TRP236      0.0191
    119  CZ3      -44.9380   18.3240    6.4580 C.ar  236  TRP236      0.0001
    120  CH2      -46.2990   18.3060    6.5850 C.ar  236  TRP236      0.0015
    121  N        -39.6210   21.7380   12.7730 N.3   238  ASP238     -0.1225
    122  CA       -38.7520   20.9540   13.6420 C.3   238  ASP238      0.1805
    123  C        -37.8450   20.0240   12.8560 C.2   238  ASP238      0.2598
    124  O        -36.6210   20.1390   12.9580 O.2   238  ASP238     -0.2718
    125  CB       -39.5850   20.2190   14.7000 C.3   238  ASP238      0.1424
    126  CG       -38.7860   19.1990   15.5470 C.2   238  ASP238      0.3668
    127  OD1      -37.5330   19.2700   15.6050 O.co2 238  ASP238     -0.2456
    128  OD2      -39.4420   18.3500   16.2110 O.co2 238  ASP238     -0.2456
    129  N        -38.4440   19.1410   12.0610 N.am  239  ALA239     -0.1966
    130  CA       -37.6940   18.0910   11.3730 C.3   239  ALA239      0.1728
    131  C        -36.7920   18.6310   10.2750 C.2   239  ALA239      0.2616
    132  O        -35.5910   18.3420   10.2610 O.2   239  ALA239     -0.2715
    133  CB       -38.6400   17.0460   10.8000 C.3   239  ALA239      0.0334
    134  N        -37.3580   19.4240    9.3650 N.am  240  LEU240     -0.1977
    135  CA       -36.5690   19.9930    8.2680 C.3   240  LEU240      0.1596
    136  C        -35.3600   20.7820    8.7790 C.2   240  LEU240      0.2287
    137  O        -34.2870   20.7580    8.1820 O.2   240  LEU240     -0.2864
    138  CB       -37.4310   20.8790    7.3700 C.3   240  LEU240      0.0297
    139  CG       -38.5000   20.1900    6.5040 C.3   240  LEU240      0.0022
    140  CD1      -39.4760   21.2330    5.9790 C.3   240  LEU240      0.0001
    141  CD2      -37.8700   19.4040    5.3500 C.3   240  LEU240      0.0001
    142  N        -33.3240   20.0850   11.0180 N.3   242  ASN242     -0.1225
    143  CA       -32.1790   19.2530   11.3910 C.3   242  ASN242      0.1785
    144  C        -30.9800   19.4850   10.4790 C.2   242  ASN242      0.2597
    145  O        -29.8310   19.3870   10.9410 O.2   242  ASN242     -0.2718
    146  CB       -32.5190   17.7550   11.4110 C.3   242  ASN242      0.1169
    147  CG       -32.2380   17.0720   10.0930 C.2   242  ASN242      0.2627
    148  OD1      -31.1480   16.5390    9.8770 O.2   242  ASN242     -0.2716
    149  ND2      -33.1950   17.1200    9.1920 N.am  242  ASN242     -0.0877
    150  N        -31.2550   19.7800    9.2090 N.am  243  TYR243     -0.1976
    151  CA       -30.1990   19.9920    8.2170 C.3   243  TYR243      0.1639
    152  C        -29.3740   21.2380    8.5450 C.2   243  TYR243      0.2290
    153  O        -28.1320   21.2290    8.4420 O.2   243  TYR243     -0.2864
    154  CB       -30.7750   20.1150    6.8050 C.3   243  TYR243      0.0560
    155  CG       -31.5940   18.9330    6.3340 C.ar  243  TYR243     -0.0198
    156  CD1      -31.1180   17.6390    6.4400 C.ar  243  TYR243     -0.0009
    157  CD2      -32.8530   19.1260    5.7500 C.ar  243  TYR243     -0.0009
    158  CE1      -31.8730   16.5590    5.9980 C.ar  243  TYR243      0.0417
    159  CE2      -33.6220   18.0530    5.3010 C.ar  243  TYR243      0.0417
    160  CZ       -33.1300   16.7670    5.4290 C.ar  243  TYR243      0.1957
    161  OH       -33.9020   15.7190    4.9890 O.3   243  TYR243     -0.2866
    162  N        -42.0200   10.0250   -1.0150 N.3   280  ASP280     -0.1225
    163  CA       -43.1620   10.4630   -0.1920 C.3   280  ASP280      0.1805
    164  C        -42.9570   11.7250    0.6260 C.2   280  ASP280      0.2597
    165  O        -43.9220   12.2270    1.1890 O.2   280  ASP280     -0.2718
    166  CB       -43.7160    9.3350    0.6940 C.3   280  ASP280      0.1424
    167  CG       -45.1910    9.5090    1.0400 C.2   280  ASP280      0.3668
    168  OD1      -45.8230   10.4420    0.5020 O.co2 280  ASP280     -0.2456
    169  OD2      -45.6860    8.7350    1.8780 O.co2 280  ASP280     -0.2456
    170  N        -41.7460   12.2670    0.6650 N.am  281  ILE281     -0.1980
    171  CA       -41.5150   13.5230    1.3810 C.3   281  ILE281      0.1595
    172  C        -40.9670   14.6230    0.4560 C.2   281  ILE281      0.2287
    173  O        -40.3800   15.6070    0.9150 O.2   281  ILE281     -0.2864
    174  CB       -40.6360   13.2970    2.6260 C.3   281  ILE281      0.0276
    175  CG1      -39.2200   12.8280    2.2580 C.3   281  ILE281      0.0022
    176  CG2      -41.3240   12.2850    3.5370 C.3   281  ILE281      0.0022
    177  CD1      -38.3180   12.6210    3.4560 C.3   281  ILE281      0.0001
    178  N        -42.3040   18.4180    0.9800 N.3   284  PHE284     -0.1227
    179  CA       -41.7410   19.0720    2.1720 C.3   284  PHE284      0.1736
    180  C        -40.3520   19.6270    1.9060 C.2   284  PHE284      0.2595
    181  O        -40.0010   20.6940    2.4100 O.2   284  PHE284     -0.2718
    182  CB       -41.7410   18.0840    3.3410 C.3   284  PHE284      0.0547
    183  CG       -43.0310   17.2750    3.4050 C.ar  284  PHE284     -0.0202
    184  CD1      -44.2640   17.8850    3.2040 C.ar  284  PHE284     -0.0042
    185  CD2      -43.0100   15.9100    3.5620 C.ar  284  PHE284     -0.0042
    186  CE1      -45.4480   17.1580    3.2180 C.ar  284  PHE284     -0.0003
    187  CE2      -44.1940   15.1740    3.5810 C.ar  284  PHE284     -0.0003
    188  CZ       -45.4120   15.8010    3.4120 C.ar  284  PHE284     -0.0000
    189  N        -39.5810   18.8940    1.1080 N.am  285  HIS285     -0.1975
    190  CA       -38.2040   19.2600    0.7690 C.3   285  HIS285      0.1656
    191  C        -38.0530   20.2440   -0.4060 C.2   285  HIS285      0.2291
    192  O        -37.0930   21.0180   -0.4480 O.2   285  HIS285     -0.2864
    193  CB       -37.3840   17.9880    0.5080 C.3   285  HIS285      0.0771
    194  CG       -37.0320   17.2510    1.7570 C.ar  285  HIS285      0.0820
    195  ND1      -37.9300   16.4400    2.4180 N.ar  285  HIS285     -0.2267
    196  CD2      -35.8960   17.2450    2.4990 C.ar  285  HIS285      0.1154
    197  CE1      -37.3600   15.9560    3.5080 C.ar  285  HIS285      0.1986
    198  NE2      -36.1250   16.4290    3.5810 N.ar  285  HIS285     -0.2212
@<TRIPOS>BOND
     1   162   163    1
     2   192   191    2
     3   191   190    1
     4   163   164    1
     5   163   166    1
     6   172   173    2
     7   172   171    1
     8   168   167   ar
     9   193   190    1
    10   193   194    1
    11   164   170   am
    12   164   165    2
    13   170   171    1
    14   166   167    1
    15   190   189    1
    16   178   179    1
    17   167   169   ar
    18   189   180   am
    19   171   174    1
    20   194   195   ar
    21   194   196   ar
    22   180   179    1
    23   180   181    2
    24   179   182    1
    25   175   174    1
    26   175   177    1
    27   195   197   ar
    28   196   198   ar
    29   174   176    1
    30   184   186   ar
    31   184   183   ar
    32   186   188   ar
    33   182   183    1
    34   183   185   ar
    35   188   187   ar
    36   197   198   ar
    37   185   187   ar
    38     6     7    1
    39     6     5    1
    40     7     1    1
    41   161   160    1
    42     1     2    1
    43   159   160   ar
    44   159   157   ar
    45     5     2    1
    46   141   139    1
    47   160   158   ar
    48   157   155   ar
    49     2     3    1
    50   140   139    1
    51   158   156   ar
    52   155   156   ar
    53   155   154    1
    54   119   120   ar
    55   119   117   ar
    56   139   138    1
    57   120   118   ar
    58   154   151    1
    59   117   114   ar
    60   118   116   ar
    61     3     4    2
    62     3     8   am
    63   138   135    1
    64   114   116   ar
    65   114   112   ar
    66   116   115   ar
    67   137   136    2
    68   151   152    1
    69   151   150    1
    70   135   136    1
    71   135   134    1
    72     8     9    1
    73   112   111    1
    74   112   113   ar
    75   153   152    2
    76   115   113   ar
    77   111   108    1
    78   149   147   am
    79   150   144   am
    80   134   131   am
    81   108   109    1
    82   108   107    1
    83   110   109    2
    84    11    10    2
    85     9    10    1
    86     9    12    1
    87   148   147    2
    88   147   146    1
    89   132   131    2
    90   131   130    1
    91   107   102   am
    92   144   145    2
    93   144   143    1
    94   106   104    1
    95    13    12    1
    96    13    15    1
    97   105   104    1
    98    14    12    1
    99   133   130    1
   100   142   143    1
   101   103   102    2
   102   102   101    1
   103   130   129    1
   104   143   146    1
   105   104   101    1
   106    97    95   ar
   107    97    98   ar
   108    62    61    2
   109    16    17    1
   110    61    60    1
   111    95    93   ar
   112    99    98    1
   113   129   123   am
   114   101   100    1
   115    20    17    1
   116    20    21    1
   117    35    33   ar
   118    98    96   ar
   119    59    60    1
   120    17    18    1
   121   121   122    1
   122   100    90   am
   123   123   124    2
   124   123   122    1
   125    32    33    1
   126    32    29    1
   127    60    63    1
   128    33    34   ar
   129    93    92    1
   130    93    94   ar
   131    19    18    2
   132    21    23   ar
   133    21    22   ar
   134    23    25   ar
   135    63    64    1
   136    92    89    1
   137    90    91    2
   138    90    89    1
   139   122   125    1
   140    96    94   ar
   141    66    65   ar
   142    22    24   ar
   143    28    29    1
   144    25    26   ar
   145    29    30    1
   146    65    64    1
   147    65    67   ar
   148    89    88    1
   149   125   126    1
   150    24    26   ar
   151    26    27    1
   152    88    83   am
   153    31    30    2
   154    86    85    1
   155   126   127   ar
   156   126   128   ar
   157    83    84    2
   158    83    82    1
   159    85    82    1
   160    85    87    1
   161    82    81    1
   162    39    38    2
   163    57    56    2
   164    58    56   am
   165    56    55    1
   166    38    46   am
   167    38    37    1
   168    47    46    1
   169    47    48    1
   170    36    37    1
   171    75    73    1
   172    54    55    1
   173    54    51    1
   174    50    48   am
   175    50    51    1
   176    40    37    1
   177    40    41    1
   178    48    49    2
   179    52    51    1
   180    52    53    2
   181    74    73    1
   182    42    41   ar
   183    42    44   ar
   184    73    72    1
   185    41    43   ar
   186    44    45   ar
   187    80    77    1
   188    72    69    1
   189    43    45   ar
   190    69    68    1
   191    69    70    1
   192    77    78    1
   193    77    76    1
   194    78    79    2
   195    70    71    2
