@<TRIPOS>MOLECULE
tmp/6cmmB01.pdb
 87 82 0 0 0
SMALL
GASTEIGER

@<TRIPOS>ATOM
      1  N         -7.5070    7.7430   47.7630 N.3   138  HIS138     -0.1226
      2  CA        -6.2380    8.1390   48.3490 C.3   138  HIS138      0.1752
      3  C         -5.3660    8.8580   47.3280 C.2   138  HIS138      0.2595
      4  O         -4.7400    9.8780   47.6380 O.2   138  HIS138     -0.2718
      5  CB        -5.4700    6.9360   48.8890 C.3   138  HIS138      0.0759
      6  CG        -6.1110    6.2650   50.0570 C.ar  138  HIS138      0.0818
      7  ND1       -5.6300    5.0870   50.5860 N.ar  138  HIS138     -0.2268
      8  CD2       -7.1980    6.5940   50.7960 C.ar  138  HIS138      0.1154
      9  CE1       -6.3890    4.7270   51.6050 C.ar  138  HIS138      0.1986
     10  NE2       -7.3590    5.6140   51.7400 N.ar  138  HIS138     -0.2212
     11  N         -5.3300    8.3320   46.1050 N.am  139  GLU139     -0.1979
     12  CA        -4.6100    8.9860   45.0230 C.3   139  GLU139      0.1602
     13  C         -5.2650   10.2710   44.5570 C.2   139  GLU139      0.2287
     14  O         -4.6400   11.0340   43.8660 O.2   139  GLU139     -0.2864
     15  CB        -4.3910    8.0170   43.8470 C.3   139  GLU139      0.0415
     16  CG        -3.4130    6.8960   44.1970 C.3   139  GLU139      0.1163
     17  CD        -2.0290    7.4390   44.4260 C.2   139  GLU139      0.3649
     18  OE1       -1.5480    8.1540   43.5710 O.co2 139  GLU139     -0.2457
     19  OE2       -1.4310    7.1880   45.4640 O.co2 139  GLU139     -0.2457
     20  N         -6.4260   12.3680   46.9480 N.3   141  GLU141     -0.1245
     21  CA        -6.1680   13.2610   48.0820 C.3   141  GLU141      0.1567
     22  C         -7.1490   13.1000   49.2620 C.2   141  GLU141      0.2260
     23  O         -7.1180   13.9010   50.1930 O.2   141  GLU141     -0.2867
     24  CB        -6.1080   14.7300   47.6400 C.3   141  GLU141      0.0388
     25  CG        -5.1010   15.0210   46.5260 C.3   141  GLU141      0.1160
     26  CD        -4.9720   16.5030   46.2330 C.2   141  GLU141      0.3649
     27  OE1       -5.9400   17.2840   46.5090 O.co2 141  GLU141     -0.2457
     28  OE2       -3.8700   16.8880   45.7490 O.co2 141  GLU141     -0.2457
     29  N         -6.7280   14.6130   53.1600 N.3   173  TYR173     -0.1227
     30  CA        -5.4780   14.4060   53.9320 C.3   173  TYR173      0.1736
     31  C         -4.2330   14.9810   53.2100 C.2   173  TYR173      0.2595
     32  O         -3.1650   15.1440   53.8160 O.2   173  TYR173     -0.2718
     33  CB        -5.2860   12.9070   54.2190 C.3   173  TYR173      0.0548
     34  CG        -4.7270   12.1320   53.0580 C.ar  173  TYR173     -0.0200
     35  CD1       -5.5410   11.7380   51.9910 C.ar  173  TYR173     -0.0009
     36  CD2       -3.3560   11.8170   52.9940 C.ar  173  TYR173     -0.0009
     37  CE1       -5.0120   11.0640   50.8850 C.ar  173  TYR173      0.0417
     38  CE2       -2.8180   11.1470   51.8980 C.ar  173  TYR173      0.0417
     39  CZ        -3.6520   10.7740   50.8310 C.ar  173  TYR173      0.1957
     40  OH        -3.1440   10.1080   49.7240 O.3   173  TYR173     -0.2866
     41  N         -4.3670   15.2590   51.9050 N.am  174  CYS174     -0.1970
     42  CA        -3.2110   15.5520   51.0640 C.3   174  CYS174      0.1712
     43  C         -3.4100   16.6950   50.0830 C.2   174  CYS174      0.2296
     44  O         -3.0450   16.5420   48.9100 O.2   174  CYS174     -0.2864
     45  CB        -2.8570   14.3020   50.2450 C.3   174  CYS174      0.0983
     46  SG        -1.1010   14.2710   49.9620 S.3   174  CYS174     -0.0798
     47  N         -0.8550   17.5660   47.1620 N.3   177  GLY177     -0.1225
     48  CA         0.2620   16.6750   47.4360 C.3   177  GLY177      0.1811
     49  C          1.0680   16.9400   48.6700 C.2   177  GLY177      0.2280
     50  O          2.1290   16.3510   48.8040 O.2   177  GLY177     -0.2866
     51  N          1.0220   16.3020   52.5700 N.3   179  HIS179     -0.1241
     52  CA         0.3700   15.5090   53.6140 C.3   179  HIS179      0.1621
     53  C          0.1770   16.3240   54.9040 C.2   179  HIS179      0.2264
     54  O          1.0840   17.0120   55.3540 O.2   179  HIS179     -0.2867
     55  CB         1.1690   14.2310   53.9260 C.3   179  HIS179      0.0745
     56  CG         0.3410   13.1190   54.5210 C.ar  179  HIS179      0.0817
     57  ND1       -0.2580   13.2070   55.7660 N.ar  179  HIS179     -0.2268
     58  CD2        0.0330   11.8860   54.0440 C.ar  179  HIS179      0.1154
     59  CE1       -0.8820   12.0760   56.0310 C.ar  179  HIS179      0.1986
     60  NE2       -0.7120   11.2480   55.0100 N.ar  179  HIS179     -0.2212
     61  N         -4.1060    7.4660   55.4000 N.3   209  ARG209     -0.1245
     62  CA        -4.2930    6.2610   54.6130 C.3   209  ARG209      0.1563
     63  C         -4.2130    4.9840   55.4390 C.2   209  ARG209      0.2260
     64  O         -5.0380    4.0750   55.2360 O.2   209  ARG209     -0.2867
     65  CB        -3.2850    6.2110   53.4310 C.3   209  ARG209      0.0307
     66  CG        -3.5540    7.2880   52.3750 C.3   209  ARG209      0.0489
     67  CD        -2.4330    7.3260   51.3440 C.3   209  ARG209      0.2205
     68  NE        -1.2420    8.0000   51.8730 N.pl3 209  ARG209     -0.0865
     69  CZ        -0.2310    8.4460   51.1300 C.cat 209  ARG209      0.5346
     70  NH1       -0.2330    8.3050   49.7890 N.pl3 209  ARG209      0.1354
     71  NH2        0.7800    9.0530   51.7120 N.pl3 209  ARG209      0.1354
     72  N          2.0830    9.1210   57.5580 N.3   281  THR281     -0.1218
     73  CA         2.0880    9.7920   56.2560 C.3   281  THR281      0.1862
     74  C          2.4800    8.8320   55.1210 C.2   281  THR281      0.2287
     75  O          2.6020    9.2780   53.9790 O.2   281  THR281     -0.2866
     76  CB         3.0370   11.0170   56.2350 C.3   281  THR281      0.1770
     77  OG1        4.3840   10.5810   56.4010 O.3   281  THR281     -0.2211
     78  CG2        2.7380   11.9790   57.3540 C.3   281  THR281      0.0375
     79  N          2.6920    6.1710   52.1510 N.3   283  LYS283     -0.1245
     80  CA         1.8690    5.6150   51.0650 C.3   283  LYS283      0.1561
     81  C          1.8790    4.0990   51.1570 C.2   283  LYS283      0.2260
     82  O          2.9450    3.4930   51.0790 O.2   283  LYS283     -0.2867
     83  CB         2.3830    6.0520   49.6910 C.3   283  LYS283      0.0271
     84  CG         1.5080    5.5870   48.5370 C.3   283  LYS283      0.0035
     85  CD         2.0650    6.0410   47.1950 C.3   283  LYS283      0.0206
     86  CE         1.3090    5.4030   46.0320 C.3   283  LYS283      0.1093
     87  NZ         1.9690    5.7410   44.7440 N.3   283  LYS283     -0.1314
@<TRIPOS>BOND
     1    18    17   ar
     2    15    16    1
     3    15    12    1
     4    14    13    2
     5    16    17    1
     6    17    19   ar
     7    13    12    1
     8    87    86    1
     9    12    11    1
    10    28    26   ar
    11    86    85    1
    12    11     3   am
    13    26    27   ar
    14    26    25    1
    15    25    24    1
    16    20    21    1
    17    47    48    1
    18    85    84    1
    19     3     4    2
    20     3     2    1
    21    48    49    1
    22    24    21    1
    23     1     2    1
    24    21    22    1
    25     2     5    1
    26    84    83    1
    27    49    50    2
    28     5     6    1
    29    44    43    2
    30    22    23    2
    31    83    80    1
    32    40    39    1
    33    70    69    1
    34    46    45    1
    35     6     7   ar
    36     6     8   ar
    37    43    42    1
    38    45    42    1
    39     7     9   ar
    40     8    10   ar
    41    39    37   ar
    42    39    38   ar
    43    37    35   ar
    44    42    41    1
    45    80    81    1
    46    80    79    1
    47    82    81    2
    48    69    71    1
    49    69    68    2
    50    67    68    1
    51    67    66    1
    52     9    10   ar
    53    38    36   ar
    54    41    31   am
    55    35    34   ar
    56    66    65    1
    57    51    52    1
    58    36    34   ar
    59    34    33    1
    60    29    30    1
    61    31    32    2
    62    31    30    1
    63    65    62    1
    64    52    55    1
    65    52    53    1
    66    55    56    1
    67    30    33    1
    68    75    74    2
    69    58    56   ar
    70    58    60   ar
    71    56    57   ar
    72    62    61    1
    73    62    63    1
    74    53    54    2
    75    60    59   ar
    76    74    73    1
    77    64    63    2
    78    57    59   ar
    79    76    73    1
    80    76    77    1
    81    76    78    1
    82    73    72    1
