@<TRIPOS>MOLECULE
tmp/6cmsA00.pdb
 153 146 0 0 0
SMALL
GASTEIGER

@<TRIPOS>ATOM
      1  N         30.7540   10.3180  234.7190 N.3   104  THR104     -0.1218
      2  CA        30.9600   11.0320  235.9740 C.3   104  THR104      0.1862
      3  C         32.1010   10.4470  236.7980 C.2   104  THR104      0.2287
      4  O         32.6060   11.1220  237.7020 O.2   104  THR104     -0.2866
      5  CB        29.6730   11.0260  236.8040 C.3   104  THR104      0.1770
      6  OG1       29.3200    9.6770  237.1390 O.3   104  THR104     -0.2211
      7  CG2       28.5300   11.6770  236.0340 C.3   104  THR104      0.0375
      8  N         35.0060    9.4340  235.4010 N.3   106  GLU106     -0.1231
      9  CA        36.2330    9.5900  234.6340 C.3   106  GLU106      0.1699
     10  C         37.0250   10.7710  235.1770 C.2   106  GLU106      0.2592
     11  O         36.4520   11.7940  235.5570 O.2   106  GLU106     -0.2718
     12  CB        35.9230    9.8010  233.1500 C.3   106  GLU106      0.0402
     13  CG        35.3500    8.5770  232.4490 C.3   106  GLU106      0.1161
     14  CD        36.3750    7.4730  232.2680 C.2   106  GLU106      0.3649
     15  OE1       35.9950    6.3730  231.8100 O.co2 106  GLU106     -0.2457
     16  OE2       37.5610    7.7050  232.5830 O.co2 106  GLU106     -0.2457
     17  N         38.3510   10.6200  235.2130 N.am  107  ARG107     -0.1980
     18  CA        39.1980   11.6650  235.7800 C.3   107  ARG107      0.1597
     19  C         39.0830   12.9760  235.0140 C.2   107  ARG107      0.2287
     20  O         39.3100   14.0470  235.5880 O.2   107  ARG107     -0.2864
     21  CB        40.6560   11.2110  235.7950 C.3   107  ARG107      0.0334
     22  CG        40.9800   10.1670  236.8480 C.3   107  ARG107      0.0492
     23  CD        42.4810   10.0310  237.0330 C.3   107  ARG107      0.2205
     24  NE        43.0840   11.2900  237.4600 N.pl3 107  ARG107     -0.0865
     25  CZ        44.3870   11.4790  237.6340 C.cat 107  ARG107      0.5346
     26  NH1       45.2420   10.4870  237.4200 N.pl3 107  ARG107      0.1354
     27  NH2       44.8370   12.6650  238.0230 N.pl3 107  ARG107      0.1354
     28  N         36.3930   14.2680  233.1850 N.3   109  PHE109     -0.1227
     29  CA        35.0670   14.8260  232.9540 C.3   109  PHE109      0.1736
     30  C         34.7350   15.8360  234.0460 C.2   109  PHE109      0.2595
     31  O         34.6430   15.4760  235.2240 O.2   109  PHE109     -0.2718
     32  CB        34.0070   13.7270  232.9140 C.3   109  PHE109      0.0547
     33  CG        32.6270   14.2340  232.6110 C.ar  109  PHE109     -0.0202
     34  CD1       32.2340   14.4700  231.3030 C.ar  109  PHE109     -0.0042
     35  CD2       31.7260   14.4830  233.6330 C.ar  109  PHE109     -0.0042
     36  CE1       30.9670   14.9400  231.0200 C.ar  109  PHE109     -0.0003
     37  CE2       30.4570   14.9540  233.3560 C.ar  109  PHE109     -0.0003
     38  CZ        30.0770   15.1820  232.0480 C.ar  109  PHE109     -0.0000
     39  N         34.5390   17.0970  233.6460 N.am  110  HIS110     -0.1975
     40  CA        34.1620   18.1800  234.5590 C.3   110  HIS110      0.1656
     41  C         32.9200   18.8560  233.9810 C.2   110  HIS110      0.2291
     42  O         33.0170   19.8660  233.2810 O.2   110  HIS110     -0.2864
     43  CB        35.3140   19.1610  234.7450 C.3   110  HIS110      0.0771
     44  CG        36.5900   18.5130  235.1840 C.ar  110  HIS110      0.0820
     45  ND1       37.4920   17.9700  234.2950 N.ar  110  HIS110     -0.2267
     46  CD2       37.1090   18.3110  236.4170 C.ar  110  HIS110      0.1154
     47  CE1       38.5150   17.4660  234.9610 C.ar  110  HIS110      0.1986
     48  NE2       38.3070   17.6590  236.2510 N.ar  110  HIS110     -0.2212
     49  N         43.6830   16.6950  233.6490 N.3   212  LEU212     -0.1231
     50  CA        44.0330   17.8460  234.4700 C.3   212  LEU212      0.1693
     51  C         43.7480   17.5440  235.9360 C.2   212  LEU212      0.2592
     52  O         42.6310   17.1620  236.2980 O.2   212  LEU212     -0.2718
     53  CB        43.2490   19.0760  234.0180 C.3   212  LEU212      0.0284
     54  CG        43.5700   20.3910  234.7310 C.3   212  LEU212      0.0019
     55  CD1       45.0230   20.7900  234.5280 C.3   212  LEU212      0.0001
     56  CD2       42.6500   21.4850  234.2370 C.3   212  LEU212      0.0001
     57  N         44.7620   17.7180  236.7810 N.am  213  ASN213     -0.1960
     58  CA        44.6190   17.4140  238.1980 C.3   213  ASN213      0.1819
     59  C         43.7210   18.4490  238.8650 C.2   213  ASN213      0.2622
     60  O         44.0410   19.6420  238.8820 O.2   213  ASN213     -0.2715
     61  CB        45.9850   17.3800  238.8760 C.3   213  ASN213      0.1195
     62  CG        45.8900   17.0470  240.3510 C.2   213  ASN213      0.2630
     63  OD1       45.5170   17.8910  241.1660 O.2   213  ASN213     -0.2716
     64  ND2       46.2240   15.8100  240.7020 N.am  213  ASN213     -0.0877
     65  N         42.5970   17.9880  239.4150 N.am  214  THR214     -0.1937
     66  CA        41.6680   18.8450  240.1410 C.3   214  THR214      0.2028
     67  C         41.5140   18.4220  241.5960 C.2   214  THR214      0.2642
     68  O         40.6100   18.9130  242.2820 O.2   214  THR214     -0.2714
     69  CB        40.2970   18.8460  239.4590 C.3   214  THR214      0.1808
     70  OG1       39.8100   17.5020  239.3620 O.3   214  THR214     -0.2208
     71  CG2       40.3930   19.4510  238.0660 C.3   214  THR214      0.0379
     72  N         42.3730   17.5260  242.0850 N.am  215  THR215     -0.1950
     73  CA        42.2720   17.0230  243.4460 C.3   215  THR215      0.1897
     74  C         43.3720   17.5280  244.3670 C.2   215  THR215      0.2313
     75  O         43.1800   17.5200  245.5870 O.2   215  THR215     -0.2863
     76  CB        42.2880   15.4870  243.4440 C.3   215  THR215      0.1794
     77  OG1       43.4660   15.0170  242.7750 O.3   215  THR215     -0.2208
     78  CG2       41.0520   14.9510  242.7330 C.3   215  THR215      0.0378
     79  N         31.5530   10.6730  244.2990 N.3   237  GLU237     -0.1231
     80  CA        31.9940   10.7630  242.9120 C.3   237  GLU237      0.1699
     81  C         33.5110   10.6510  242.8110 C.2   237  GLU237      0.2592
     82  O         34.0360    9.9430  241.9430 O.2   237  GLU237     -0.2718
     83  CB        31.5060   12.0750  242.2970 C.3   237  GLU237      0.0402
     84  CG        31.7820   12.2100  240.8070 C.3   237  GLU237      0.1161
     85  CD        31.2630   13.5130  240.2270 C.2   237  GLU237      0.3649
     86  OE1       31.1450   13.6080  238.9870 O.co2 237  GLU237     -0.2457
     87  OE2       30.9720   14.4420  241.0100 O.co2 237  GLU237     -0.2457
     88  N         34.2320   11.3350  243.7010 N.am  238  GLU238     -0.1979
     89  CA        35.6900   11.2910  243.6620 C.3   238  GLU238      0.1602
     90  C         36.2100    9.8940  243.9860 C.2   238  GLU238      0.2287
     91  O         37.1370    9.3990  243.3290 O.2   238  GLU238     -0.2864
     92  CB        36.2560   12.3260  244.6320 C.3   238  GLU238      0.0415
     93  CG        37.7420   12.5870  244.4920 C.3   238  GLU238      0.1163
     94  CD        38.1790   13.8260  245.2570 C.2   238  GLU238      0.3649
     95  OE1       37.7390   14.9360  244.8920 O.co2 238  GLU238     -0.2457
     96  OE2       38.9480   13.6900  246.2330 O.co2 238  GLU238     -0.2457
     97  N         35.6150    7.6820  240.9890 N.3   241  THR241     -0.1203
     98  CA        36.6240    7.9610  239.9740 C.3   241  THR241      0.1994
     99  C         37.9500    7.3030  240.3360 C.2   241  THR241      0.2617
    100  O         38.6660    6.8060  239.4600 O.2   241  THR241     -0.2717
    101  CB        36.7940    9.4710  239.8040 C.3   241  THR241      0.1784
    102  OG1       35.5380   10.0530  239.4330 O.3   241  THR241     -0.2211
    103  CG2       37.8210    9.7840  238.7250 C.3   241  THR241      0.0376
    104  N         38.2910    7.2880  241.6260 N.am  242  LEU242     -0.1979
    105  CA        39.4960    6.5880  242.0620 C.3   242  LEU242      0.1596
    106  C         39.3750    5.0860  241.8270 C.2   242  LEU242      0.2287
    107  O         40.3130    4.4460  241.3370 O.2   242  LEU242     -0.2864
    108  CB        39.7600    6.8830  243.5370 C.3   242  LEU242      0.0297
    109  CG        40.9350    6.1690  244.2070 C.3   242  LEU242      0.0022
    110  CD1       42.2530    6.5360  243.5480 C.3   242  LEU242      0.0001
    111  CD2       40.9620    6.5070  245.6870 C.3   242  LEU242      0.0001
    112  N         40.0790    3.4800  238.3790 N.3   245  GLN245     -0.1245
    113  CA        41.4680    3.2830  237.9900 C.3   245  GLN245      0.1566
    114  C         42.0950    2.0530  238.6400 C.2   245  GLN245      0.2260
    115  O         43.3190    1.8920  238.5810 O.2   245  GLN245     -0.2867
    116  CB        42.2930    4.5250  238.3430 C.3   245  GLN245      0.0367
    117  CG        41.7480    5.8320  237.7750 C.3   245  GLN245      0.0905
    118  CD        41.6900    5.8480  236.2600 C.2   245  GLN245      0.2608
    119  OE1       40.7080    6.3030  235.6740 O.2   245  GLN245     -0.2717
    120  NE2       42.7450    5.3620  235.6170 N.am  245  GLN245     -0.0878
    121  N         47.1130   15.6160  248.1280 N.3   459  ASP459     -0.1239
    122  CA        46.2650   14.9960  247.1100 C.3   459  ASP459      0.1674
    123  C         45.9040   13.6060  247.6280 C.2   459  ASP459      0.2266
    124  O         46.7390   12.6950  247.6130 O.2   459  ASP459     -0.2867
    125  CB        46.9840   14.9380  245.7660 C.3   459  ASP459      0.1410
    126  CG        46.0370   14.7190  244.5970 C.2   459  ASP459      0.3668
    127  OD1       44.9130   14.2270  244.8180 O.co2 459  ASP459     -0.2456
    128  OD2       46.4240   15.0390  243.4510 O.co2 459  ASP459     -0.2456
    129  N         43.4190   11.3350  246.5640 N.3   461  PRO461     -0.2102
    130  CA        43.3800   10.2930  245.5240 C.3   461  PRO461      0.1504
    131  C         44.7550    9.8660  245.0460 C.2   461  PRO461      0.2575
    132  O         44.9950    8.6670  244.8650 O.2   461  PRO461     -0.2718
    133  CB        42.5810   10.9550  244.3930 C.3   461  PRO461      0.0282
    134  CG        41.7940   12.0050  245.0320 C.3   461  PRO461      0.0208
    135  CD        42.5830   12.4940  246.2050 C.3   461  PRO461      0.0893
    136  N         45.6620   10.8180  244.8120 N.am  462  LYS462     -0.1980
    137  CA        46.9960   10.4700  244.3340 C.3   462  LYS462      0.1596
    138  C         47.7410    9.6190  245.3550 C.2   462  LYS462      0.2287
    139  O         48.3910    8.6300  244.9960 O.2   462  LYS462     -0.2864
    140  CB        47.7850   11.7400  244.0180 C.3   462  LYS462      0.0298
    141  CG        49.2100   11.4920  243.5460 C.3   462  LYS462      0.0038
    142  CD        49.9960   12.7880  243.4610 C.3   462  LYS462      0.0206
    143  CE        51.4800   12.5270  243.2560 C.3   462  LYS462      0.1093
    144  NZ        52.2730   13.7860  243.2880 N.3   462  LYS462     -0.1314
    145  N         46.2810    6.1480  245.4090 N.3   465  GLN465     -0.1245
    146  CA        46.6400    5.3910  244.2130 C.3   465  GLN465      0.1566
    147  C         48.1000    4.9560  244.2570 C.2   465  GLN465      0.2260
    148  O         48.4430    3.8640  243.7870 O.2   465  GLN465     -0.2867
    149  CB        46.3650    6.2260  242.9610 C.3   465  GLN465      0.0367
    150  CG        46.5380    5.4760  241.6480 C.3   465  GLN465      0.0905
    151  CD        45.4720    4.4160  241.4240 C.2   465  GLN465      0.2608
    152  OE1       44.7060    4.0840  242.3290 O.2   465  GLN465     -0.2717
    153  NE2       45.4190    3.8810  240.2090 N.am  465  GLN465     -0.0878
@<TRIPOS>BOND
     1    36    34   ar
     2    36    38   ar
     3    34    33   ar
     4    15    14   ar
     5    38    37   ar
     6    14    13    1
     7    14    16   ar
     8    13    12    1
     9    33    32    1
    10    33    35   ar
    11    32    29    1
    12    29    28    1
    13    29    30    1
    14    12     9    1
    15    42    41    2
    16    37    35   ar
    17    39    30   am
    18    39    40    1
    19    49    50    1
    20    41    40    1
    21    53    50    1
    22    53    54    1
    23    30    31    2
    24    56    54    1
    25    45    47   ar
    26    45    44   ar
    27    50    51    1
    28    55    54    1
    29    40    43    1
    30     9    10    1
    31     9     8    1
    32     1     2    1
    33    43    44    1
    34    47    48   ar
    35    19    20    2
    36    19    18    1
    37    10    17   am
    38    10    11    2
    39    44    46   ar
    40    17    18    1
    41   120   118   am
    42   119   118    2
    43    18    21    1
    44    21    22    1
    45    51    52    2
    46    51    57   am
    47     2     3    1
    48     2     5    1
    49     7     5    1
    50    48    46   ar
    51   118   117    1
    52    57    58    1
    53     3     4    2
    54     5     6    1
    55    22    23    1
    56    23    24    1
    57    26    25    1
    58    24    25    2
    59    25    27    1
    60   117   116    1
    61   113   116    1
    62   113   112    1
    63   113   114    1
    64    71    69    1
    65    58    59    1
    66    58    61    1
    67   115   114    2
    68   103   101    1
    69    59    60    2
    70    59    65   am
    71    61    62    1
    72    86    85   ar
    73    70    69    1
    74    65    66    1
    75   102   101    1
    76    69    66    1
    77   100    99    2
    78   101    98    1
    79    98    99    1
    80    98    97    1
    81    66    67    1
    82   153   151   am
    83    85    84    1
    84    85    87   ar
    85    99   104   am
    86    62    64   am
    87    62    63    2
    88    84    83    1
    89   107   106    2
    90   151   150    1
    91   151   152    2
    92    67    72   am
    93    67    68    2
    94   104   105    1
    95   150   149    1
    96   106   105    1
    97    82    81    2
    98   105   108    1
    99    72    73    1
   100    83    80    1
   101    78    76    1
   102    77    76    1
   103    81    80    1
   104    81    88   am
   105    80    79    1
   106   149   146    1
   107   143   144    1
   108   143   142    1
   109    91    90    2
   110    76    73    1
   111    73    74    1
   112   128   126   ar
   113   142   141    1
   114   108   109    1
   115   141   140    1
   116   110   109    1
   117    89    88    1
   118    89    90    1
   119    89    92    1
   120   148   147    2
   121   140   137    1
   122   109   111    1
   123   146   147    1
   124   146   145    1
   125   137   136    1
   126   137   138    1
   127    74    75    2
   128   133   134    1
   129   133   130    1
   130    93    92    1
   131    93    94    1
   132   126   127   ar
   133   126   125    1
   134   136   131   am
   135   132   131    2
   136    95    94   ar
   137   139   138    2
   138   134   135    1
   139   131   130    1
   140    94    96   ar
   141   130   129    1
   142   125   122    1
   143   135   129    1
   144   122   123    1
   145   122   121    1
   146   124   123    2
