@<TRIPOS>MOLECULE
tmp/6cmvC00.pdb
 84 82 0 0 0
SMALL
GASTEIGER

@<TRIPOS>ATOM
      1  N         34.3350   23.8560   -2.4530 N.3    24  LEU24      -0.1231
      2  CA        35.5300   23.0280   -2.4630 C.3    24  LEU24       0.1693
      3  C         35.5270   22.0880   -1.2680 C.2    24  LEU24       0.2591
      4  O         36.0550   20.9760   -1.3320 O.2    24  LEU24      -0.2718
      5  CB        36.7850   23.8940   -2.4600 C.3    24  LEU24       0.0284
      6  CG        36.9610   24.8050   -3.6790 C.3    24  LEU24       0.0019
      7  CD1       38.1740   25.7240   -3.5290 C.3    24  LEU24       0.0001
      8  CD2       37.0540   23.9710   -4.9410 C.3    24  LEU24       0.0001
      9  N         34.9200   22.5350   -0.1760 N.am   25  LEU25      -0.1980
     10  CA        34.8710   21.7300    1.0320 C.3    25  LEU25       0.1596
     11  C         34.0110   20.4740    0.8320 C.2    25  LEU25       0.2287
     12  O         34.4040   19.3680    1.2230 O.2    25  LEU25      -0.2864
     13  CB        34.3460   22.5720    2.1980 C.3    25  LEU25       0.0297
     14  CG        34.3220   21.9050    3.5780 C.3    25  LEU25       0.0022
     15  CD1       35.7180   21.4520    4.0010 C.3    25  LEU25       0.0001
     16  CD2       33.7040   22.8410    4.6210 C.3    25  LEU25       0.0001
     17  N         33.1700   19.2200   -2.0400 N.3    27  SER27      -0.1202
     18  CA        33.6040   18.5010   -3.2230 C.3    27  SER27       0.2020
     19  C         34.5210   17.3410   -2.8690 C.2    27  SER27       0.2619
     20  O         35.2990   17.4250   -1.9160 O.2    27  SER27      -0.2717
     21  CB        34.3270   19.4430   -4.1800 C.3    27  SER27       0.2103
     22  OG        35.0390   18.7040   -5.1540 O.3    27  SER27      -0.2182
     23  N         34.4440   16.2640   -3.6440 N.am   28  ASP28      -0.1959
     24  CA        35.3750   15.1550   -3.4650 C.3    28  ASP28       0.1840
     25  C         36.2270   14.9300   -4.7100 C.2    28  ASP28       0.2623
     26  O         36.8230   13.8700   -4.8820 O.2    28  ASP28      -0.2715
     27  CB        34.6300   13.8760   -3.0780 C.3    28  ASP28       0.1450
     28  CG        34.4310   13.7550   -1.5730 C.2    28  ASP28       0.3671
     29  OD1       34.2690   12.6200   -1.0850 O.co2  28  ASP28      -0.2456
     30  OD2       34.4400   14.7910   -0.8740 O.co2  28  ASP28      -0.2456
     31  N         36.2740   15.9370   -5.5750 N.am   29  THR29      -0.1937
     32  CA        37.2710   15.9980   -6.6410 C.3    29  THR29       0.2028
     33  C         37.8740   17.4110   -6.7200 C.2    29  THR29       0.2642
     34  O         37.2030   18.4040   -6.4320 O.2    29  THR29      -0.2714
     35  CB        36.6810   15.6160   -8.0190 C.3    29  THR29       0.1808
     36  OG1       35.6000   16.4980   -8.3440 O.3    29  THR29      -0.2208
     37  CG2       36.1780   14.1770   -8.0190 C.3    29  THR29       0.0379
     38  N         39.1430   17.5020   -7.0970 N.am   30  LYS30      -0.1977
     39  CA        39.7700   18.8040   -7.2870 C.3    30  LYS30       0.1596
     40  C         39.1790   19.4930   -8.5180 C.2    30  LYS30       0.2287
     41  O         38.8580   18.8430   -9.5110 O.2    30  LYS30      -0.2864
     42  CB        41.2910   18.6600   -7.4130 C.3    30  LYS30       0.0298
     43  CG        41.9210   17.9020   -6.2530 C.3    30  LYS30       0.0038
     44  CD        43.3760   17.5540   -6.5030 C.3    30  LYS30       0.0206
     45  CE        43.9690   16.8730   -5.2690 C.3    30  LYS30       0.1093
     46  NZ        45.4220   16.5950   -5.4210 N.3    30  LYS30      -0.1314
     47  N         41.4080   22.8240   -4.2890 N.3    79  TYR79      -0.1227
     48  CA        40.7170   22.0020   -3.3160 C.3    79  TYR79       0.1736
     49  C         40.9900   22.5040   -1.9000 C.2    79  TYR79       0.2595
     50  O         41.9030   23.3160   -1.6810 O.2    79  TYR79      -0.2718
     51  CB        41.1240   20.5300   -3.4700 C.3    79  TYR79       0.0548
     52  CG        42.5910   20.2340   -3.2400 C.ar   79  TYR79      -0.0200
     53  CD1       43.5240   20.4300   -4.2510 C.ar   79  TYR79      -0.0009
     54  CD2       43.0410   19.7310   -2.0190 C.ar   79  TYR79      -0.0009
     55  CE1       44.8690   20.1570   -4.0530 C.ar   79  TYR79       0.0417
     56  CE2       44.3930   19.4540   -1.8130 C.ar   79  TYR79       0.0417
     57  CZ        45.2970   19.6700   -2.8390 C.ar   79  TYR79       0.1957
     58  OH        46.6360   19.4060   -2.6650 O.3    79  TYR79      -0.2866
     59  N         40.1930   22.0430   -0.9390 N.am   80  VAL80      -0.1966
     60  CA        40.5670   22.2830    0.4370 C.3    80  VAL80       0.1727
     61  C         41.1500   21.0100    1.0450 C.2    80  VAL80       0.2616
     62  O         40.6240   19.9120    0.8930 O.2    80  VAL80      -0.2715
     63  CB        39.3940   22.8290    1.3010 C.3    80  VAL80       0.0290
     64  CG1       38.5890   23.8590    0.5170 C.3    80  VAL80       0.0023
     65  CG2       38.5140   21.7320    1.8320 C.3    80  VAL80       0.0023
     66  N         42.3130   21.1830    1.6590 N.am   81  ASP81      -0.1957
     67  CA        42.9110   20.1880    2.5190 C.3    81  ASP81       0.1840
     68  C         42.3190   20.4130    3.9210 C.2    81  ASP81       0.2621
     69  O         42.6180   21.4190    4.5790 O.2    81  ASP81      -0.2715
     70  CB        44.4340   20.3310    2.5100 C.3    81  ASP81       0.1450
     71  CG        45.1340   19.1720    3.1880 C.2    81  ASP81       0.3671
     72  OD1       45.0930   19.0860    4.4370 O.co2  81  ASP81      -0.2456
     73  OD2       45.7410   18.3500    2.4670 O.co2  81  ASP81      -0.2456
     74  N         41.4550   19.5070    4.3650 N.am   82  ARG82      -0.1977
     75  CA        40.7320   19.7200    5.6230 C.3    82  ARG82       0.1597
     76  C         41.6380   19.9800    6.8310 C.2    82  ARG82       0.2287
     77  O         41.3290   20.8320    7.6660 O.2    82  ARG82      -0.2864
     78  CB        39.8140   18.5290    5.8950 C.3    82  ARG82       0.0334
     79  CG        38.5530   18.6230    5.0940 C.3    82  ARG82       0.0492
     80  CD        37.6680   17.4160    5.2520 C.3    82  ARG82       0.2205
     81  NE        36.5910   17.4880    4.2760 N.pl3  82  ARG82      -0.0865
     82  CZ        35.4620   16.7980    4.3460 C.cat  82  ARG82       0.5346
     83  NH1       35.2470   15.9710    5.3620 N.pl3  82  ARG82       0.1354
     84  NH2       34.5480   16.9420    3.3960 N.pl3  82  ARG82       0.1354
@<TRIPOS>BOND
     1    41    40    2
     2    40    39    1
     3    36    35    1
     4    37    35    1
     5    35    32    1
     6    42    39    1
     7    42    43    1
     8    39    38    1
     9    38    33   am
    10    33    32    1
    11    33    34    2
    12    32    31    1
    13    44    43    1
    14    44    45    1
    15    31    25   am
    16    46    45    1
    17    22    21    1
    18     8     6    1
    19    26    25    2
    20    25    24    1
    21    47    48    1
    22    53    55   ar
    23    53    52   ar
    24    21    18    1
    25    55    57   ar
    26     6     7    1
    27     6     5    1
    28    23    24    1
    29    23    19   am
    30    51    48    1
    31    51    52    1
    32    24    27    1
    33    48    49    1
    34    52    54   ar
    35    18    19    1
    36    18    17    1
    37    27    28    1
    38    19    20    2
    39    57    58    1
    40    57    56   ar
    41     2     5    1
    42     2     1    1
    43     2     3    1
    44    54    56   ar
    45    49    50    2
    46    49    59   am
    47    28    29   ar
    48    28    30   ar
    49     4     3    2
    50     3     9   am
    51    59    60    1
    52     9    10    1
    53    60    61    1
    54    60    63    1
    55    64    63    1
    56    11    10    1
    57    11    12    2
    58    62    61    2
    59    10    13    1
    60    61    66   am
    61    63    65    1
    62    66    67    1
    63    13    14    1
    64    73    71   ar
    65    70    67    1
    66    70    71    1
    67    67    68    1
    68    71    72   ar
    69    84    82    1
    70    14    15    1
    71    14    16    1
    72    68    74   am
    73    68    69    2
    74    81    82    2
    75    81    80    1
    76    82    83    1
    77    74    75    1
    78    79    80    1
    79    79    78    1
    80    75    78    1
    81    75    76    1
    82    76    77    2
