@<TRIPOS>MOLECULE
tmp/6cmvF01.pdb
 83 77 0 0 0
SMALL
GASTEIGER

@<TRIPOS>ATOM
      1  N         54.6420   22.0100   77.8530 N.3    14  ASN14      -0.1240
      2  CA        54.9310   21.0430   76.7930 C.3    14  ASN14       0.1653
      3  C         54.5350   19.6340   77.2350 C.2    14  ASN14       0.2266
      4  O         54.0640   19.4420   78.3560 O.2    14  ASN14      -0.2867
      5  CB        56.4060   21.0890   76.3850 C.3    14  ASN14       0.1155
      6  CG        57.3310   21.2380   77.5640 C.2    14  ASN14       0.2627
      7  OD1       56.9490   20.9690   78.6960 O.2    14  ASN14      -0.2716
      8  ND2       58.5560   21.6730   77.3070 N.am   14  ASN14      -0.0877
      9  N         56.2560   16.8390   77.8230 N.3    16  LYS16      -0.1231
     10  CA        57.0440   16.2160   78.8590 C.3    16  LYS16       0.1693
     11  C         56.6810   16.7980   80.2320 C.2    16  LYS16       0.2591
     12  O         56.7650   16.1000   81.2480 O.2    16  LYS16      -0.2718
     13  CB        58.5380   16.3980   78.5840 C.3    16  LYS16       0.0285
     14  CG        59.0400   15.6490   77.3600 C.3    16  LYS16       0.0035
     15  CD        60.5220   15.8920   77.1320 C.3    16  LYS16       0.0206
     16  CE        61.0300   15.1250   75.9230 C.3    16  LYS16       0.1093
     17  NZ        62.4760   15.3730   75.6740 N.3    16  LYS16      -0.1314
     18  N         56.2680   18.0660   80.2670 N.am   17  GLU17      -0.1979
     19  CA        55.8460   18.6850   81.5270 C.3    17  GLU17       0.1602
     20  C         54.5240   18.0950   81.9740 C.2    17  GLU17       0.2287
     21  O         54.1820   18.1360   83.1550 O.2    17  GLU17      -0.2864
     22  CB        55.7230   20.2050   81.4050 C.3    17  GLU17       0.0415
     23  CG        56.8400   20.9830   82.0930 C.3    17  GLU17       0.1163
     24  CD        56.9160   22.4400   81.6410 C.2    17  GLU17       0.3649
     25  OE1       56.1560   22.8330   80.7290 O.co2  17  GLU17      -0.2457
     26  OE2       57.7470   23.1940   82.1960 O.co2  17  GLU17      -0.2457
     27  N         55.3220   14.6020   83.2910 N.3    20  LEU20      -0.1245
     28  CA        55.8760   14.8130   84.6160 C.3    20  LEU20       0.1561
     29  C         54.7870   14.9010   85.7030 C.2    20  LEU20       0.2260
     30  O         54.8970   14.2520   86.7430 O.2    20  LEU20      -0.2867
     31  CB        56.7420   16.0690   84.6120 C.3    20  LEU20       0.0270
     32  CG        57.4230   16.5080   85.9090 C.3    20  LEU20       0.0019
     33  CD1       58.1340   15.3390   86.6010 C.3    20  LEU20       0.0001
     34  CD2       58.4190   17.5950   85.5480 C.3    20  LEU20       0.0001
     35  N         63.6500   10.8070   82.9390 N.3    40  PHE40      -0.1241
     36  CA        63.4360   11.7550   81.8490 C.3    40  PHE40       0.1605
     37  C         64.7120   12.0150   81.0490 C.2    40  PHE40       0.2264
     38  O         64.6940   12.7840   80.0940 O.2    40  PHE40      -0.2867
     39  CB        62.8710   13.0740   82.3910 C.3    40  PHE40       0.0534
     40  CG        61.3850   13.0400   82.6310 C.ar   40  PHE40      -0.0203
     41  CD1       60.8790   12.7000   83.8750 C.ar   40  PHE40      -0.0042
     42  CD2       60.4930   13.3320   81.6030 C.ar   40  PHE40      -0.0042
     43  CE1       59.5160   12.6640   84.0930 C.ar   40  PHE40      -0.0003
     44  CE2       59.1280   13.3010   81.8110 C.ar   40  PHE40      -0.0003
     45  CZ        58.6350   12.9640   83.0550 C.ar   40  PHE40      -0.0000
     46  N         67.2860   13.8170   81.4120 N.3    42  VAL42      -0.1245
     47  CA        67.7200   15.2090   81.2990 C.3    42  VAL42       0.1561
     48  C         68.6090   15.5690   82.4920 C.2    42  VAL42       0.2260
     49  O         68.6830   14.8240   83.4730 O.2    42  VAL42      -0.2867
     50  CB        66.5280   16.1920   81.2600 C.3    42  VAL42       0.0252
     51  CG1       65.5940   15.8740   80.1280 C.3    42  VAL42       0.0019
     52  CG2       65.7690   16.1680   82.5850 C.3    42  VAL42       0.0019
     53  N         67.5750   20.9420   84.5320 N.3    46  LEU46      -0.1231
     54  CA        66.3800   21.0460   83.7120 C.3    46  LEU46       0.1693
     55  C         65.1380   20.5520   84.4320 C.2    46  LEU46       0.2591
     56  O         64.0760   21.1800   84.3570 O.2    46  LEU46      -0.2718
     57  CB        66.5570   20.2570   82.4270 C.3    46  LEU46       0.0284
     58  CG        65.4730   20.4900   81.3830 C.3    46  LEU46       0.0019
     59  CD1       65.1630   21.9730   81.2840 C.3    46  LEU46       0.0001
     60  CD2       65.9470   19.9340   80.0470 C.3    46  LEU46       0.0001
     61  N         65.2710   19.4180   85.1140 N.am   47  ILE47      -0.1980
     62  CA        64.1420   18.8270   85.8100 C.3    47  ILE47       0.1595
     63  C         63.7650   19.7510   86.9630 C.2    47  ILE47       0.2287
     64  O         62.6040   19.8290   87.3520 O.2    47  ILE47      -0.2864
     65  CB        64.4510   17.3900   86.3150 C.3    47  ILE47       0.0276
     66  CG1       63.2200   16.5010   86.1800 C.3    47  ILE47       0.0022
     67  CG2       64.9060   17.3900   87.7510 C.3    47  ILE47       0.0022
     68  CD1       63.0030   15.9700   84.8000 C.3    47  ILE47       0.0001
     69  N         64.0780   23.1250   86.9100 N.3    49  LYS49      -0.1231
     70  CA        63.3480   24.2550   86.3310 C.3    49  LYS49       0.1693
     71  C         61.8910   23.8870   85.9940 C.2    49  LYS49       0.2592
     72  O         60.9790   24.6680   86.2540 O.2    49  LYS49      -0.2718
     73  CB        64.0700   24.7810   85.0840 C.3    49  LYS49       0.0285
     74  CG        63.2850   25.8340   84.2990 C.3    49  LYS49       0.0035
     75  CD        62.6880   25.2430   83.0130 C.3    49  LYS49       0.0206
     76  CE        61.7310   26.2070   82.3090 C.3    49  LYS49       0.1093
     77  NZ        61.2630   25.6610   80.9990 N.3    49  LYS49      -0.1314
     78  N         61.6760   22.6960   85.4420 N.am   50  SER50      -0.1952
     79  CA        60.3290   22.2350   85.1120 C.3    50  SER50       0.1924
     80  C         59.4600   22.0670   86.3510 C.2    50  SER50       0.2314
     81  O         58.3160   22.5170   86.3660 O.2    50  SER50      -0.2863
     82  CB        60.3890   20.9150   84.3450 C.3    50  SER50       0.2116
     83  OG        61.1160   21.0880   83.1410 O.3    50  SER50      -0.2180
@<TRIPOS>BOND
     1    17    16    1
     2    16    15    1
     3     5     2    1
     4     5     6    1
     5     2     3    1
     6     2     1    1
     7    15    14    1
     8     3     4    2
     9     8     6   am
    10    14    13    1
    11     6     7    2
    12     9    10    1
    13    13    10    1
    14    10    11    1
    15    60    58    1
    16    38    37    2
    17    51    50    1
    18    11    18   am
    19    11    12    2
    20    18    19    1
    21    25    24   ar
    22    77    76    1
    23    37    36    1
    24    50    47    1
    25    50    52    1
    26    59    58    1
    27    47    46    1
    28    47    48    1
    29    58    57    1
    30    22    19    1
    31    22    23    1
    32    19    20    1
    33    42    44   ar
    34    42    40   ar
    35    24    23    1
    36    24    26   ar
    37    44    45   ar
    38    36    39    1
    39    36    35    1
    40    20    21    2
    41    76    75    1
    42    39    40    1
    43    57    54    1
    44    48    49    2
    45    40    41   ar
    46    75    74    1
    47    45    43   ar
    48    83    82    1
    49    27    28    1
    50    54    55    1
    51    54    53    1
    52    41    43   ar
    53    74    73    1
    54    82    79    1
    55    56    55    2
    56    55    61   am
    57    31    28    1
    58    31    32    1
    59    28    29    1
    60    68    66    1
    61    73    70    1
    62    79    78    1
    63    79    80    1
    64    61    62    1
    65    78    71   am
    66    34    32    1
    67    29    30    2
    68    62    65    1
    69    62    63    1
    70    32    33    1
    71    71    72    2
    72    71    70    1
    73    66    65    1
    74    65    67    1
    75    70    69    1
    76    80    81    2
    77    63    64    2
