@<TRIPOS>MOLECULE
tmp/6cmwA00.pdb
 185 171 0 0 0
SMALL
GASTEIGER

@<TRIPOS>ATOM
      1  N        -19.7090   15.2700   -4.9000 N.3    94  LEU94      -0.1245
      2  CA       -20.9660   14.5790   -5.1170 C.3    94  LEU94       0.1561
      3  C        -20.8520   13.0780   -4.8450 C.2    94  LEU94       0.2260
      4  O        -20.0390   12.3860   -5.4720 O.2    94  LEU94      -0.2867
      5  CB       -21.4410   14.8240   -6.5490 C.3    94  LEU94       0.0270
      6  CG       -22.8000   15.4940   -6.7230 C.3    94  LEU94       0.0019
      7  CD1      -23.1890   15.5610   -8.2030 C.3    94  LEU94       0.0001
      8  CD2      -23.8360   14.7230   -5.9030 C.3    94  LEU94       0.0001
      9  N        -23.4040    8.1880   -7.5290 N.3    97  PRO97      -0.2102
     10  CA       -24.3280    7.0520   -7.6410 C.3    97  PRO97       0.1504
     11  C        -23.8320    6.0560   -8.6850 C.2    97  PRO97       0.2576
     12  O        -24.5200    5.0840   -9.0080 O.2    97  PRO97      -0.2718
     13  CB       -25.6420    7.7070   -8.0730 C.3    97  PRO97       0.0282
     14  CG       -25.2140    8.9240   -8.8240 C.3    97  PRO97       0.0208
     15  CD       -23.9110    9.3880   -8.2200 C.3    97  PRO97       0.0893
     16  N        -22.6350    6.3160   -9.2050 N.am   98  GLY98      -0.1943
     17  CA       -22.0250    5.4560  -10.1960 C.3    98  GLY98       0.2014
     18  C        -21.2770    4.2980   -9.5690 C.2    98  GLY98       0.2639
     19  O        -20.3850    4.4990   -8.7410 O.2    98  GLY98      -0.2714
     20  N        -21.6580    3.0840   -9.9650 N.am   99  ALA99      -0.1963
     21  CA       -20.9520    1.8700   -9.5700 C.3    99  ALA99       0.1728
     22  C        -19.4860    1.9300  -10.0040 C.2    99  ALA99       0.2616
     23  O        -18.6040    1.4200   -9.3070 O.2    99  ALA99      -0.2715
     24  CB       -21.6360    0.6440  -10.1560 C.3    99  ALA99       0.0334
     25  N        -19.2340    2.5550  -11.1560 N.am  100  SER100     -0.1950
     26  CA       -17.8710    2.7970  -11.6260 C.3   100  SER100      0.1924
     27  C        -17.1670    3.7430  -10.6610 C.2   100  SER100      0.2314
     28  O        -17.8070    4.5950  -10.0400 O.2   100  SER100     -0.2863
     29  CB       -17.8750    3.3700  -13.0480 C.3   100  SER100      0.2116
     30  OG       -16.5860    3.5130  -13.5970 O.3   100  SER100     -0.2180
     31  N        -15.7260    6.3050  -10.9760 N.3   102  SER102     -0.1217
     32  CA       -15.7030    7.6930  -11.4180 C.3   102  SER102      0.1889
     33  C        -16.3980    8.5610  -10.3850 C.2   102  SER102      0.2288
     34  O        -17.4260    8.1780   -9.8030 O.2   102  SER102     -0.2866
     35  CB       -16.3460    7.8490  -12.8050 C.3   102  SER102      0.2089
     36  OG       -17.4340    6.9590  -12.9940 O.3   102  SER102     -0.2183
     37  N        -17.7590   12.6410   -9.3830 N.3   104  PHE104     -0.1241
     38  CA       -18.2900   13.8940   -9.8990 C.3   104  PHE104      0.1605
     39  C        -18.0890   15.1120   -8.9790 C.2   104  PHE104      0.2264
     40  O        -17.9980   14.9870   -7.7670 O.2   104  PHE104     -0.2867
     41  CB       -19.7880   13.7450  -10.1570 C.3   104  PHE104      0.0534
     42  CG       -20.1530   12.6290  -11.1060 C.ar  104  PHE104     -0.0203
     43  CD1      -19.9840   11.3070  -10.7540 C.ar  104  PHE104     -0.0042
     44  CD2      -20.7280   12.9090  -12.3330 C.ar  104  PHE104     -0.0042
     45  CE1      -20.3490   10.2940  -11.6180 C.ar  104  PHE104     -0.0003
     46  CE2      -21.0990   11.8980  -13.1900 C.ar  104  PHE104     -0.0003
     47  CZ       -20.9080   10.5930  -12.8330 C.ar  104  PHE104     -0.0000
     48  N        -21.2720   19.9970  -14.6990 N.3   113  ILE113     -0.1245
     49  CA       -20.7830   18.8270  -13.9800 C.3   113  ILE113      0.1561
     50  C        -19.4150   18.4300  -14.4630 C.2   113  ILE113      0.2260
     51  O        -19.2230   18.2670  -15.6700 O.2   113  ILE113     -0.2867
     52  CB       -21.6470   17.5970  -14.1680 C.3   113  ILE113      0.0252
     53  CG1      -23.1060   17.9020  -13.9350 C.3   113  ILE113      0.0019
     54  CG2      -21.2020   16.5010  -13.2090 C.3   113  ILE113      0.0019
     55  CD1      -23.9270   16.6530  -13.9450 C.3   113  ILE113      0.0001
     56  N        -16.9050   15.1730  -14.3600 N.3   115  LYS115     -0.1245
     57  CA       -16.7950   13.7410  -14.0540 C.3   115  LYS115      0.1561
     58  C        -15.3820   13.2720  -14.3850 C.2   115  LYS115      0.2260
     59  O        -14.7870   13.7520  -15.3490 O.2   115  LYS115     -0.2867
     60  CB       -17.8440   12.9390  -14.8300 C.3   115  LYS115      0.0271
     61  CG       -17.4840   11.4860  -15.1010 C.3   115  LYS115      0.0035
     62  CD       -18.7170   10.6540  -15.5070 C.3   115  LYS115      0.0206
     63  CE       -18.3730    9.3300  -16.1950 C.3   115  LYS115      0.1093
     64  NZ       -19.5880    8.4990  -16.3630 N.3   115  LYS115     -0.1314
     65  N        -11.5450    5.7790  -21.6940 N.3   121  GLU121     -0.1245
     66  CA       -12.6700    6.6490  -22.0360 C.3   121  GLU121      0.1567
     67  C        -12.1800    7.9770  -22.6110 C.2   121  GLU121      0.2260
     68  O        -12.6860    8.4510  -23.6170 O.2   121  GLU121     -0.2867
     69  CB       -13.5800    6.8840  -20.8120 C.3   121  GLU121      0.0388
     70  CG       -14.6120    5.7710  -20.5640 C.3   121  GLU121      0.1160
     71  CD       -15.5710    6.0430  -19.3890 C.2   121  GLU121      0.3649
     72  OE1      -15.1580    6.7010  -18.3950 O.co2 121  GLU121     -0.2457
     73  OE2      -16.7390    5.5740  -19.4550 O.co2 121  GLU121     -0.2457
     74  N        -18.8430   18.9550  -18.5370 N.3   165  MET165     -0.1230
     75  CA       -20.0210   18.8200  -19.3710 C.3   165  MET165      0.1702
     76  C        -21.1780   19.4930  -18.6770 C.2   165  MET165      0.2592
     77  O        -20.9660   20.2700  -17.7570 O.2   165  MET165     -0.2718
     78  CB       -20.3210   17.3570  -19.6630 C.3   165  MET165      0.0401
     79  CG       -20.3390   16.4810  -18.4240 C.3   165  MET165      0.0596
     80  SD       -20.3340   14.7180  -18.8080 S.3   165  MET165     -0.1393
     81  CE       -22.0770   14.3980  -19.2350 C.3   165  MET165      0.0692
     82  N        -22.3950   19.2230  -19.1250 N.am  166  ASN166     -0.1960
     83  CA       -23.5190   20.0370  -18.6900 C.3   166  ASN166      0.1819
     84  C        -24.3980   19.3160  -17.7050 C.2   166  ASN166      0.2621
     85  O        -24.8230   18.1850  -17.9450 O.2   166  ASN166     -0.2715
     86  CB       -24.3770   20.4920  -19.8770 C.3   166  ASN166      0.1195
     87  CG       -24.9880   19.3310  -20.6250 C.2   166  ASN166      0.2630
     88  OD1      -24.2910   18.3800  -20.9680 O.2   166  ASN166     -0.2716
     89  ND2      -26.2910   19.3820  -20.8580 N.am  166  ASN166     -0.0877
     90  N        -24.6970   19.9860  -16.6000 N.am  167  ASN167     -0.1958
     91  CA       -25.6710   19.4650  -15.6660 C.3   167  ASN167      0.1819
     92  C        -27.0640   19.4110  -16.2830 C.2   167  ASN167      0.2621
     93  O        -27.6600   20.4270  -16.6090 O.2   167  ASN167     -0.2715
     94  CB       -25.6820   20.3090  -14.4020 C.3   167  ASN167      0.1195
     95  CG       -26.2810   19.5800  -13.2360 C.2   167  ASN167      0.2630
     96  OD1      -27.1430   18.7100  -13.4030 O.2   167  ASN167     -0.2716
     97  ND2      -25.8220   19.9180  -12.0380 N.am  167  ASN167     -0.0877
     98  N        -27.5810   18.2120  -16.4510 N.am  168  LEU168     -0.1963
     99  CA       -28.8990   18.0580  -17.0240 C.3   168  LEU168      0.1728
    100  C        -30.0230   18.4490  -16.0810 C.2   168  LEU168      0.2616
    101  O        -31.1450   18.7170  -16.5150 O.2   168  LEU168     -0.2715
    102  CB       -29.0880   16.6220  -17.4520 C.3   168  LEU168      0.0311
    103  CG       -28.5560   16.4020  -18.8450 C.3   168  LEU168      0.0022
    104  CD1      -28.1840   14.9410  -18.9770 C.3   168  LEU168      0.0001
    105  CD2      -29.6640   16.7990  -19.8160 C.3   168  LEU168      0.0001
    106  N        -29.7220   18.4470  -14.7870 N.am  169  LEU169     -0.1977
    107  CA       -30.7240   18.6770  -13.7480 C.3   169  LEU169      0.1596
    108  C        -30.1920   19.6750  -12.7300 C.2   169  LEU169      0.2287
    109  O        -29.6250   19.2760  -11.7050 O.2   169  LEU169     -0.2864
    110  CB       -31.0910   17.3690  -13.0380 C.3   169  LEU169      0.0297
    111  CG       -31.5190   16.1800  -13.8850 C.3   169  LEU169      0.0022
    112  CD1      -31.6520   14.9540  -13.0320 C.3   169  LEU169      0.0001
    113  CD2      -32.8220   16.4910  -14.5950 C.3   169  LEU169      0.0001
    114  N        -36.8360   11.5620  -10.5460 N.3   178  LYS178     -0.1245
    115  CA       -35.7590   11.3380  -11.5010 C.3   178  LYS178      0.1561
    116  C        -35.6460    9.8780  -11.9130 C.2   178  LYS178      0.2260
    117  O        -35.9400    8.9710  -11.1440 O.2   178  LYS178     -0.2867
    118  CB       -34.4180   11.8090  -10.9510 C.3   178  LYS178      0.0271
    119  CG       -34.4220   13.2230  -10.4590 C.3   178  LYS178      0.0035
    120  CD       -33.0340   13.5960   -9.9150 C.3   178  LYS178      0.0206
    121  CE       -32.1520   12.3620   -9.5120 C.3   178  LYS178      0.1093
    122  NZ       -32.5250   11.7480   -8.1820 N.3   178  LYS178     -0.1314
    123  N        -32.8590    7.2330  -14.1760 N.3   180  ASP180     -0.1239
    124  CA       -31.7600    6.8060  -15.0300 C.3   180  ASP180      0.1674
    125  C        -32.3020    5.6010  -15.8150 C.2   180  ASP180      0.2266
    126  O        -32.6600    4.6010  -15.2290 O.2   180  ASP180     -0.2867
    127  CB       -30.5350    6.4660  -14.1720 C.3   180  ASP180      0.1410
    128  CG       -29.3050    6.0980  -14.9860 C.2   180  ASP180      0.3668
    129  OD1      -29.3040    5.0300  -15.6330 O.co2 180  ASP180     -0.2456
    130  OD2      -28.3080    6.8510  -14.9310 O.co2 180  ASP180     -0.2456
    131  N        -32.4750    2.7810  -19.3710 N.3   182  LYS182     -0.1245
    132  CA       -31.6030    2.0220  -20.2760 C.3   182  LYS182      0.1561
    133  C        -32.3830    1.1060  -21.2100 C.2   182  LYS182      0.2260
    134  O        -31.8980    0.7780  -22.2950 O.2   182  LYS182     -0.2867
    135  CB       -30.5880    1.1650  -19.5030 C.3   182  LYS182      0.0271
    136  CG       -29.3760    1.8890  -18.9640 C.3   182  LYS182      0.0035
    137  CD       -28.3120    0.9070  -18.5200 C.3   182  LYS182      0.0206
    138  CE       -27.5400    1.4040  -17.2970 C.3   182  LYS182      0.1093
    139  NZ       -26.0450    1.4690  -17.4020 N.3   182  LYS182     -0.1314
    140  N        -32.5130    8.6420   -7.5030 N.3   201  THR201     -0.1218
    141  CA       -32.5010    8.3470   -8.9390 C.3   201  THR201      0.1862
    142  C        -33.1010    6.9750   -9.2520 C.2   201  THR201      0.2287
    143  O        -32.4040    5.9500   -9.2520 O.2   201  THR201     -0.2866
    144  CB       -31.0940    8.3950   -9.5260 C.3   201  THR201      0.1770
    145  OG1      -30.3080    9.3850   -8.8350 O.3   201  THR201     -0.2211
    146  CG2      -31.1790    8.7310  -10.9840 C.3   201  THR201      0.0375
    147  N        -27.4070    5.7550  -20.4370 N.3   245  SER245     -0.1217
    148  CA       -28.7190    5.9470  -19.8920 C.3   245  SER245      0.1889
    149  C        -29.3650    7.1920  -20.4510 C.2   245  SER245      0.2288
    150  O        -28.6790    8.1470  -20.7940 O.2   245  SER245     -0.2866
    151  CB       -28.6340    6.0290  -18.3760 C.3   245  SER245      0.2089
    152  OG       -27.6860    5.1030  -17.8770 O.3   245  SER245     -0.2183
    153  N        -31.2120    9.9600  -18.8460 N.3   247  LEU247     -0.1245
    154  CA       -31.5230   10.6090  -17.5720 C.3   247  LEU247      0.1561
    155  C        -32.7700   11.4690  -17.7380 C.2   247  LEU247      0.2260
    156  O        -32.8270   12.2990  -18.6380 O.2   247  LEU247     -0.2867
    157  CB       -30.3450   11.4520  -17.1060 C.3   247  LEU247      0.0270
    158  CG       -30.4250   12.0730  -15.7320 C.3   247  LEU247      0.0019
    159  CD1      -30.5860   10.9690  -14.7220 C.3   247  LEU247      0.0001
    160  CD2      -29.1550   12.8500  -15.4630 C.3   247  LEU247      0.0001
    161  N        -26.5730    9.9690  -21.2680 N.3   275  ILE275     -0.1231
    162  CA       -25.3280   10.0300  -20.4960 C.3   275  ILE275      0.1692
    163  C        -24.5440    8.6970  -20.4950 C.2   275  ILE275      0.2592
    164  O        -25.0720    7.6870  -20.9380 O.2   275  ILE275     -0.2718
    165  CB       -25.6360   10.4290  -19.0600 C.3   275  ILE275      0.0266
    166  CG1      -26.4650    9.3400  -18.3640 C.3   275  ILE275      0.0019
    167  CG2      -26.4460   11.7180  -19.0430 C.3   275  ILE275      0.0020
    168  CD1      -26.4700    9.4550  -16.8300 C.3   275  ILE275      0.0001
    169  N        -23.3040    8.7020  -19.9940 N.am  276  ASP276     -0.1974
    170  CA       -22.4310    7.5040  -19.9320 C.3   276  ASP276      0.1709
    171  C        -22.2180    6.9380  -21.3480 C.2   276  ASP276      0.2293
    172  O        -22.4700    5.7510  -21.6280 O.2   276  ASP276     -0.2864
    173  CB       -23.0160    6.4400  -18.9710 C.3   276  ASP276      0.1436
    174  CG       -21.9350    5.6960  -18.1330 C.2   276  ASP276      0.3671
    175  OD1      -20.8080    6.2200  -18.0130 O.co2 276  ASP276     -0.2456
    176  OD2      -22.2260    4.5970  -17.5830 O.co2 276  ASP276     -0.2456
    177  N        -18.1860    4.4120  -23.1210 N.3   279  GLN279     -0.1245
    178  CA       -17.7480    3.0150  -23.0530 C.3   279  GLN279      0.1566
    179  C        -17.9360    2.3710  -24.4090 C.2   279  GLN279      0.2260
    180  O        -19.0220    1.8890  -24.7310 O.2   279  GLN279     -0.2867
    181  CB       -18.5080    2.2210  -21.9750 C.3   279  GLN279      0.0367
    182  CG       -18.1710    2.7330  -20.5540 C.3   279  GLN279      0.0905
    183  CD       -18.9830    2.0500  -19.4810 C.2   279  GLN279      0.2608
    184  OE1      -20.0670    2.5220  -19.1230 O.2   279  GLN279     -0.2717
    185  NE2      -18.5230    0.8870  -19.0550 N.am  279  GLN279     -0.0878
@<TRIPOS>BOND
     1   180   179    2
     2   179   178    1
     3    68    67    2
     4   177   178    1
     5   178   181    1
     6    67    66    1
     7   134   133    2
     8    66    65    1
     9    66    69    1
    10   181   182    1
    11   172   171    2
    12   171   170    1
    13   161   162    1
    14   133   132    1
    15    88    87    2
    16   164   163    2
    17    89    87   am
    18    69    70    1
    19   150   149    2
    20    87    86    1
    21    70    71    1
    22   182   183    1
    23   162   163    1
    24   162   165    1
    25   163   169   am
    26   149   148    1
    27   147   148    1
    28   132   135    1
    29   132   131    1
    30   169   170    1
    31   170   173    1
    32   148   151    1
    33    86    83    1
    34   105   103    1
    35    78    75    1
    36    78    79    1
    37   135   136    1
    38   183   184    2
    39   183   185   am
    40    73    71   ar
    41    71    72   ar
    42    75    76    1
    43    75    74    1
    44    81    80    1
    45    82    83    1
    46    82    76   am
    47   165   167    1
    48   165   166    1
    49   104   103    1
    50   173   174    1
    51   136   137    1
    52   153   154    1
    53   103   102    1
    54    80    79    1
    55    83    84    1
    56    76    77    2
    57   156   155    2
    58   137   138    1
    59   151   152    1
    60   166   168    1
    61   174   175   ar
    62   174   176   ar
    63    85    84    2
    64   155   154    1
    65    84    90   am
    66   154   157    1
    67   102    99    1
    68   139   138    1
    69   157   158    1
    70    99    98    1
    71    99   100    1
    72    93    92    2
    73    90    91    1
    74   101   100    2
    75    98    92   am
    76    64    63    1
    77    92    91    1
    78    63    62    1
    79   100   106   am
    80   125   126    2
    81   125   124    1
    82   158   160    1
    83   158   159    1
    84    51    50    2
    85    91    94    1
    86   129   128   ar
    87    62    61    1
    88    59    58    2
    89    61    60    1
    90   124   123    1
    91   124   127    1
    92   128   130   ar
    93   128   127    1
    94    60    57    1
    95   106   107    1
    96    48    49    1
    97   113   111    1
    98    50    49    1
    99    94    95    1
   100    58    57    1
   101    56    57    1
   102    52    49    1
   103    52    53    1
   104    52    54    1
   105    55    53    1
   106   111   110    1
   107   111   112    1
   108   107   110    1
   109   107   108    1
   110    30    29    1
   111    96    95    2
   112    95    97   am
   113    46    47   ar
   114    46    44   ar
   115    29    26    1
   116    36    35    1
   117    47    45   ar
   118    35    32    1
   119   108   109    2
   120    44    42   ar
   121   116   115    1
   122   116   117    2
   123    26    25    1
   124    26    27    1
   125    45    43   ar
   126   115   118    1
   127   115   114    1
   128    32    31    1
   129    32    33    1
   130    25    22   am
   131    42    43   ar
   132    42    41    1
   133   146   144    1
   134   118   119    1
   135    27    28    2
   136   119   120    1
   137    33    34    2
   138    17    18    1
   139    17    16    1
   140    41    38    1
   141    24    21    1
   142    22    21    1
   143    22    23    2
   144    20    21    1
   145    20    18   am
   146   120   121    1
   147    38    37    1
   148    38    39    1
   149    18    19    2
   150   144   141    1
   151   144   145    1
   152   121   122    1
   153   142   143    2
   154   142   141    1
   155    16    11   am
   156    12    11    2
   157    39    40    2
   158   141   140    1
   159    14    15    1
   160    14    13    1
   161    11    10    1
   162    15     9    1
   163     7     6    1
   164    13    10    1
   165    10     9    1
   166     6     5    1
   167     6     8    1
   168     5     2    1
   169     4     3    2
   170     2     1    1
   171     2     3    1
