@<TRIPOS>MOLECULE
tmp/6cmzD02.pdb
 148 144 0 0 0
SMALL
GASTEIGER

@<TRIPOS>ATOM
      1  N         21.6650   45.4250   18.3590 N.3   152  LEU152     -0.1245
      2  CA        22.5610   44.3360   18.7680 C.3   152  LEU152      0.1561
      3  C         23.8390   44.4690   17.9650 C.2   152  LEU152      0.2260
      4  O         23.7890   44.3780   16.7340 O.2   152  LEU152     -0.2867
      5  CB        21.9870   42.9420   18.5000 C.3   152  LEU152      0.0270
      6  CG        20.9450   42.3260   19.4250 C.3   152  LEU152      0.0019
      7  CD1       20.6790   40.8980   18.9650 C.3   152  LEU152      0.0001
      8  CD2       21.4200   42.3300   20.8760 C.3   152  LEU152      0.0001
      9  N         14.0270   38.9100   17.2200 N.3   180  VAL180     -0.1231
     10  CA        14.9080   38.7800   18.3640 C.3   180  VAL180      0.1692
     11  C         14.3020   39.6620   19.4350 C.2   180  VAL180      0.2593
     12  O         14.1680   40.8790   19.2430 O.2   180  VAL180     -0.2718
     13  CB        16.3420   39.2250   18.0350 C.3   180  VAL180      0.0266
     14  CG1       17.2620   39.0030   19.2260 C.3   180  VAL180      0.0020
     15  CG2       16.8570   38.4420   16.8370 C.3   180  VAL180      0.0020
     16  N         13.9260   39.0350   20.5480 N.am  181  GLY181     -0.1942
     17  CA        13.3140   39.7220   21.6790 C.3   181  GLY181      0.2014
     18  C         11.8170   39.4680   21.6880 C.2   181  GLY181      0.2639
     19  O         11.1380   39.7130   20.6860 O.2   181  GLY181     -0.2714
     20  N         11.3110   38.9640   22.8160 N.am  182  ALA182     -0.1963
     21  CA         9.8970   38.6460   22.9710 C.3   182  ALA182      0.1728
     22  C          9.2040   39.5580   23.9810 C.2   182  ALA182      0.2617
     23  O          8.3440   39.1140   24.7520 O.2   182  ALA182     -0.2715
     24  CB         9.7240   37.1850   23.3510 C.3   182  ALA182      0.0334
     25  N          9.5800   40.8400   23.9670 N.am  183  GLY183     -0.1940
     26  CA         8.9380   41.8470   24.8050 C.3   183  GLY183      0.2014
     27  C          7.6720   42.1610   24.0420 C.2   183  GLY183      0.2639
     28  O          7.3950   41.5070   23.0370 O.2   183  GLY183     -0.2714
     29  N          6.9140   43.1730   24.4580 N.am  184  TYR184     -0.1959
     30  CA         5.6540   43.4530   23.7690 C.3   184  TYR184      0.1771
     31  C          5.8600   43.8430   22.3040 C.2   184  TYR184      0.2619
     32  O          5.1040   43.4010   21.4470 O.2   184  TYR184     -0.2715
     33  CB         4.7890   44.4820   24.5220 C.3   184  TYR184      0.0574
     34  CG         5.1380   45.9500   24.3560 C.ar  184  TYR184     -0.0198
     35  CD1        6.0440   46.5900   25.2030 C.ar  184  TYR184     -0.0009
     36  CD2        4.5000   46.7180   23.3740 C.ar  184  TYR184     -0.0009
     37  CE1        6.3330   47.9460   25.0500 C.ar  184  TYR184      0.0417
     38  CE2        4.7870   48.0660   23.2130 C.ar  184  TYR184      0.0417
     39  CZ         5.6960   48.6800   24.0510 C.ar  184  TYR184      0.1957
     40  OH         5.9530   50.0160   23.8680 O.3   184  TYR184     -0.2866
     41  N          6.8970   44.6300   22.0160 N.am  185  ILE185     -0.1977
     42  CA         7.1740   45.0750   20.6310 C.3   185  ILE185      0.1596
     43  C          7.4180   43.8890   19.7120 C.2   185  ILE185      0.2287
     44  O          6.7170   43.7140   18.7190 O.2   185  ILE185     -0.2864
     45  CB         8.3580   46.0750   20.5530 C.3   185  ILE185      0.0276
     46  CG1        7.9890   47.3900   21.2630 C.3   185  ILE185      0.0022
     47  CG2        8.7040   46.3760   19.0960 C.3   185  ILE185      0.0022
     48  CD1        9.1340   48.3830   21.4110 C.3   185  ILE185      0.0001
     49  N         13.1200   34.4810   18.9950 N.3   203  VAL203     -0.1231
     50  CA        14.2160   34.0760   19.8640 C.3   203  VAL203      0.1692
     51  C         14.2120   35.0390   21.0350 C.2   203  VAL203      0.2592
     52  O         14.1890   36.2480   20.8460 O.2   203  VAL203     -0.2718
     53  CB        15.5690   34.1300   19.1350 C.3   203  VAL203      0.0266
     54  CG1       16.7040   33.6910   20.0620 C.3   203  VAL203      0.0020
     55  CG2       15.5230   33.2660   17.8770 C.3   203  VAL203      0.0020
     56  N         14.2340   34.4840   22.2390 N.am  204  GLU204     -0.1966
     57  CA        14.1970   35.2480   23.4870 C.3   204  GLU204      0.1733
     58  C         15.1580   34.6450   24.4870 C.2   204  GLU204      0.2616
     59  O         15.2300   33.4190   24.6120 O.2   204  GLU204     -0.2715
     60  CB        12.7680   35.2190   24.0490 C.3   204  GLU204      0.0429
     61  CG        12.6020   35.6330   25.5100 C.3   204  GLU204      0.1163
     62  CD        13.0560   37.0430   25.8090 C.2   204  GLU204      0.3649
     63  OE1       12.8550   37.9470   24.9670 O.co2 204  GLU204     -0.2457
     64  OE2       13.5900   37.2460   26.9200 O.co2 204  GLU204     -0.2457
     65  N         15.8630   35.5070   25.2190 N.am  205  ALA205     -0.1963
     66  CA        16.8480   35.0720   26.2170 C.3   205  ALA205      0.1728
     67  C         16.2090   34.4220   27.4380 C.2   205  ALA205      0.2616
     68  O         16.6500   33.3630   27.8740 O.2   205  ALA205     -0.2715
     69  CB        17.7250   36.2410   26.6390 C.3   205  ALA205      0.0334
     70  N         15.1740   35.0530   27.9850 N.am  206  ALA206     -0.1977
     71  CA        14.4700   34.5120   29.1590 C.3   206  ALA206      0.1597
     72  C         13.7810   33.1680   28.8390 C.2   206  ALA206      0.2287
     73  O         13.5610   32.8330   27.6690 O.2   206  ALA206     -0.2864
     74  CB        13.4560   35.5260   29.6780 C.3   206  ALA206      0.0319
     75  N          8.6730   38.2570   29.5090 N.3   211  PRO211     -0.2102
     76  CA         9.2260   38.0560   30.8670 C.3   211  PRO211      0.1504
     77  C          8.8530   39.0940   31.9300 C.2   211  PRO211      0.2575
     78  O          8.8700   38.7680   33.1200 O.2   211  PRO211     -0.2718
     79  CB        10.7470   38.0340   30.6400 C.3   211  PRO211      0.0282
     80  CG        10.9530   38.6840   29.3220 C.3   211  PRO211      0.0208
     81  CD         9.7400   38.3850   28.5030 C.3   211  PRO211      0.0893
     82  N          8.5300   40.3190   31.5140 N.am  212  ALA212     -0.1980
     83  CA         8.1440   41.3730   32.4580 C.3   212  ALA212      0.1597
     84  C          6.8210   41.0510   33.1910 C.2   212  ALA212      0.2287
     85  O          6.6100   41.5140   34.3100 O.2   212  ALA212     -0.2864
     86  CB         8.0520   42.7170   31.7460 C.3   212  ALA212      0.0319
     87  N         17.2840   30.9600   24.6830 N.3   236  HIS236     -0.1226
     88  CA        18.2990   31.0310   23.6390 C.3   236  HIS236      0.1752
     89  C         18.7840   32.4770   23.4730 C.2   236  HIS236      0.2596
     90  O         17.9950   33.4150   23.5550 O.2   236  HIS236     -0.2718
     91  CB        17.7260   30.5270   22.3110 C.3   236  HIS236      0.0759
     92  CG        17.4860   29.0470   22.2560 C.ar  236  HIS236      0.0818
     93  ND1       16.3320   28.4580   22.7280 N.ar  236  HIS236     -0.2268
     94  CD2       18.2300   28.0430   21.7340 C.ar  236  HIS236      0.1154
     95  CE1       16.3890   27.1530   22.5240 C.ar  236  HIS236      0.1986
     96  NE2       17.5310   26.8750   21.9230 N.ar  236  HIS236     -0.2212
     97  N         20.0800   32.6400   23.2230 N.am  237  LYS237     -0.1966
     98  CA        20.7060   33.9530   23.0430 C.3   237  LYS237      0.1728
     99  C         21.2260   34.0420   21.6200 C.2   237  LYS237      0.2616
    100  O         21.9100   33.1270   21.1530 O.2   237  LYS237     -0.2715
    101  CB        21.8620   34.1040   24.0330 C.3   237  LYS237      0.0311
    102  CG        21.4280   34.0910   25.5010 C.3   237  LYS237      0.0038
    103  CD        22.5580   33.7120   26.4540 C.3   237  LYS237      0.0206
    104  CE        22.8920   32.2220   26.3450 C.3   237  LYS237      0.1093
    105  NZ        23.9500   31.7790   27.2910 N.3   237  LYS237     -0.1314
    106  N         20.8940   35.1280   20.9240 N.am  238  VAL238     -0.1977
    107  CA        21.3470   35.3110   19.5480 C.3   238  VAL238      0.1596
    108  C         22.7880   35.7850   19.5910 C.2   238  VAL238      0.2287
    109  O         23.1110   36.7070   20.3340 O.2   238  VAL238     -0.2864
    110  CB        20.4860   36.3350   18.7740 C.3   238  VAL238      0.0276
    111  CG1       21.0250   36.5360   17.3600 C.3   238  VAL238      0.0022
    112  CG2       19.0370   35.8810   18.7210 C.3   238  VAL238      0.0022
    113  N         14.2440   43.6320   18.2620 N.3   267  ALA267     -0.1231
    114  CA        13.4520   44.3440   19.2450 C.3   267  ALA267      0.1694
    115  C         13.9200   43.8790   20.6150 C.2   267  ALA267      0.2592
    116  O         13.1410   43.3110   21.3960 O.2   267  ALA267     -0.2718
    117  CB        11.9770   44.0380   19.0470 C.3   267  ALA267      0.0304
    118  N         15.2120   44.0990   20.8750 N.am  268  VAL268     -0.1966
    119  CA        15.8260   43.7080   22.1500 C.3   268  VAL268      0.1727
    120  C         15.7300   44.7930   23.2130 C.2   268  VAL268      0.2617
    121  O         16.1940   44.6030   24.3310 O.2   268  VAL268     -0.2715
    122  CB        17.3030   43.2670   21.9860 C.3   268  VAL268      0.0290
    123  CG1       17.3700   42.0220   21.1150 C.3   268  VAL268      0.0023
    124  CG2       18.1810   44.3940   21.4240 C.3   268  VAL268      0.0023
    125  N         15.1410   45.9310   22.8620 N.am  269  GLY269     -0.1940
    126  CA        14.9760   47.0130   23.8210 C.3   269  GLY269      0.2014
    127  C         14.8050   48.3890   23.2260 C.2   269  GLY269      0.2638
    128  O         14.7680   48.5600   22.0020 O.2   269  GLY269     -0.2714
    129  N         14.7020   49.3590   24.1360 N.am  270  ARG270     -0.1977
    130  CA        14.5500   50.7810   23.8370 C.3   270  ARG270      0.1597
    131  C         15.5020   51.5500   24.7580 C.2   270  ARG270      0.2287
    132  O         15.5870   51.2410   25.9500 O.2   270  ARG270     -0.2864
    133  CB        13.1200   51.2150   24.1370 C.3   270  ARG270      0.0334
    134  CG        12.0440   50.5650   23.2730 C.3   270  ARG270      0.0492
    135  CD        12.0430   51.0780   21.8400 C.3   270  ARG270      0.2205
    136  NE        11.8560   52.5330   21.7970 N.pl3 270  ARG270     -0.0865
    137  CZ        11.7870   53.2500   20.6820 C.cat 270  ARG270      0.5346
    138  NH1       11.6460   54.5690   20.7660 N.pl3 270  ARG270      0.1354
    139  NH2       11.8610   52.6640   19.4830 N.pl3 270  ARG270      0.1354
    140  N         11.8340   54.0700   32.5560 N.3   313  GLU313     -0.1245
    141  CA        10.6060   53.2720   32.5810 C.3   313  GLU313      0.1567
    142  C          9.5170   53.8340   33.5300 C.2   313  GLU313      0.2260
    143  O          9.8360   54.5490   34.4770 O.2   313  GLU313     -0.2867
    144  CB        10.9490   51.8170   32.9690 C.3   313  GLU313      0.0388
    145  CG        11.8630   51.0780   31.9800 C.3   313  GLU313      0.1160
    146  CD        11.2170   50.7300   30.6260 C.2   313  GLU313      0.3649
    147  OE1       11.9790   50.3700   29.7010 O.co2 313  GLU313     -0.2457
    148  OE2        9.9690   50.8010   30.4580 O.co2 313  GLU313     -0.2457
@<TRIPOS>BOND
     1     4     3    2
     2    15    13    1
     3     9    10    1
     4   111   110    1
     5    55    53    1
     6     3     2    1
     7    13    10    1
     8    13    14    1
     9   113   114    1
    10     1     2    1
    11    10    11    1
    12     5     2    1
    13     5     6    1
    14    44    43    2
    15   112   110    1
    16   110   107    1
    17     7     6    1
    18    49    50    1
    19   117   114    1
    20    47    45    1
    21    53    50    1
    22    53    54    1
    23    12    11    2
    24   114   115    1
    25     6     8    1
    26    11    16   am
    27   139   137    1
    28   107   108    1
    29   107   106    1
    30   108   109    2
    31    43    42    1
    32    50    51    1
    33    16    17    1
    34    45    42    1
    35    45    46    1
    36   115   118   am
    37   115   116    2
    38    42    41    1
    39   137   138    1
    40   137   136    2
    41    19    18    2
    42    52    51    2
    43   118   119    1
    44   106    99   am
    45    51    56   am
    46   123   122    1
    47   100    99    2
    48    46    48    1
    49   124   122    1
    50    32    31    2
    51    99    98    1
    52    17    18    1
    53    18    20   am
    54    94    96   ar
    55    94    92   ar
    56   136   135    1
    57   135   134    1
    58    96    95   ar
    59   122   119    1
    60   128   127    2
    61    41    31   am
    62   119   120    1
    63    56    57    1
    64    92    91    1
    65    92    93   ar
    66    31    30    1
    67    91    88    1
    68    95    93   ar
    69    20    21    1
    70   125   120   am
    71   125   126    1
    72    21    24    1
    73    21    22    1
    74    28    27    2
    75    98    97    1
    76    98   101    1
    77    38    36   ar
    78    38    39   ar
    79   120   121    2
    80    97    89   am
    81   127   126    1
    82   127   129   am
    83   134   133    1
    84    36    34   ar
    85    89    90    2
    86    89    88    1
    87    57    60    1
    88    57    58    1
    89    88    87    1
    90    30    29    1
    91    30    33    1
    92   130   129    1
    93   130   133    1
    94   130   131    1
    95    40    39    1
    96    25    22   am
    97    25    26    1
    98    22    23    2
    99   101   102    1
   100    27    29   am
   101    27    26    1
   102    60    61    1
   103    39    37   ar
   104    34    33    1
   105    34    35   ar
   106    58    59    2
   107    58    65   am
   108   131   132    2
   109    63    62   ar
   110    37    35   ar
   111    65    66    1
   112   102   103    1
   113    61    62    1
   114    62    64   ar
   115    66    69    1
   116    66    67    1
   117   104   103    1
   118   104   105    1
   119    67    68    2
   120    67    70   am
   121    73    72    2
   122    70    71    1
   123    81    80    1
   124    81    75    1
   125    72    71    1
   126    71    74    1
   127    80    79    1
   128    75    76    1
   129   147   146   ar
   130   148   146   ar
   131   146   145    1
   132    79    76    1
   133    76    77    1
   134    82    77   am
   135    82    83    1
   136    86    83    1
   137    77    78    2
   138   145   144    1
   139    83    84    1
   140   140   141    1
   141   141   144    1
   142   141   142    1
   143    84    85    2
   144   142   143    2
