@<TRIPOS>MOLECULE
tmp/6cmzA02.pdb
 87 85 0 0 0
SMALL
GASTEIGER

@<TRIPOS>ATOM
      1  N         14.9070   -1.9000    6.6270 N.3   231  ARG231     -0.1231
      2  CA        15.9670   -2.8800    6.4250 C.3   231  ARG231      0.1694
      3  C         16.6120   -3.1770    7.7700 C.2   231  ARG231      0.2592
      4  O         17.0380   -2.2570    8.4630 O.2   231  ARG231     -0.2718
      5  CB        17.0190   -2.3220    5.4740 C.3   231  ARG231      0.0321
      6  CG        16.5110   -1.9370    4.0930 C.3   231  ARG231      0.0489
      7  CD        17.6240   -1.2410    3.3220 C.3   231  ARG231      0.2205
      8  NE        17.2220   -0.7860    1.9920 N.pl3 231  ARG231     -0.0865
      9  CZ        18.0060   -0.0930    1.1610 C.cat 231  ARG231      0.5346
     10  NH1       19.2430    0.2490    1.5150 N.pl3 231  ARG231      0.1354
     11  NH2       17.5510    0.2720   -0.0350 N.pl3 231  ARG231      0.1354
     12  N         16.7010   -4.4540    8.1290 N.am  232  LEU232     -0.1966
     13  CA        17.2760   -4.8570    9.4120 C.3   232  LEU232      0.1728
     14  C         18.6250   -5.5420    9.2630 C.2   232  LEU232      0.2616
     15  O         18.7730   -6.4920    8.4910 O.2   232  LEU232     -0.2715
     16  CB        16.3260   -5.8060   10.1390 C.3   232  LEU232      0.0311
     17  CG        14.9280   -5.2720   10.4710 C.3   232  LEU232      0.0022
     18  CD1       14.0860   -6.3860   11.0820 C.3   232  LEU232      0.0001
     19  CD2       15.0030   -4.0660   11.4040 C.3   232  LEU232      0.0001
     20  N         19.6010   -5.0490   10.0160 N.am  233  TRP233     -0.1960
     21  CA        20.9380   -5.6100   10.0450 C.3   233  TRP233      0.1771
     22  C         21.1070   -6.1670   11.4510 C.2   233  TRP233      0.2619
     23  O         21.5750   -5.4770   12.3550 O.2   233  TRP233     -0.2715
     24  CB        21.9670   -4.5340    9.7430 C.3   233  TRP233      0.0590
     25  CG        21.8890   -4.0010    8.3450 C.ar  233  TRP233      0.0006
     26  CD1       20.9540   -3.1430    7.8420 C.ar  233  TRP233      0.0946
     27  CD2       22.8100   -4.2550    7.2890 C.ar  233  TRP233      0.0152
     28  NE1       21.2200   -2.8690    6.5260 N.ar  233  TRP233     -0.2442
     29  CE2       22.3600   -3.5310    6.1600 C.ar  233  TRP233      0.0810
     30  CE3       23.9710   -5.0350    7.1790 C.ar  233  TRP233      0.0012
     31  CZ2       23.0270   -3.5590    4.9410 C.ar  233  TRP233      0.0191
     32  CZ3       24.6340   -5.0650    5.9690 C.ar  233  TRP233      0.0001
     33  CH2       24.1600   -4.3310    4.8610 C.ar  233  TRP233      0.0015
     34  N         20.6850   -7.4120   11.6330 N.am  234  LEU234     -0.1977
     35  CA        20.7380   -8.0670   12.9350 C.3   234  LEU234      0.1596
     36  C         22.0450   -8.8240   13.1070 C.2   234  LEU234      0.2287
     37  O         22.5750   -9.3840   12.1470 O.2   234  LEU234     -0.2864
     38  CB        19.5400   -9.0050   13.0900 C.3   234  LEU234      0.0297
     39  CG        18.1630   -8.3410   12.9550 C.3   234  LEU234      0.0022
     40  CD1       17.0570   -9.3900   13.0040 C.3   234  LEU234      0.0001
     41  CD2       17.9530   -7.2660   14.0230 C.3   234  LEU234      0.0001
     42  N         24.8140   -7.3980   14.0370 N.3   236  HIS236     -0.1241
     43  CA        25.8070   -6.4810   13.4800 C.3   236  HIS236      0.1621
     44  C         26.1900   -5.3930   14.4620 C.2   236  HIS236      0.2264
     45  O         25.3370   -4.8500   15.1610 O.2   236  HIS236     -0.2867
     46  CB        25.2590   -5.8180   12.2160 C.3   236  HIS236      0.0745
     47  CG        25.3290   -6.6780   10.9960 C.ar  236  HIS236      0.0817
     48  ND1       24.4590   -7.7200   10.7660 N.ar  236  HIS236     -0.2268
     49  CD2       26.1440   -6.6220    9.9180 C.ar  236  HIS236      0.1154
     50  CE1       24.7490   -8.2850    9.6070 C.ar  236  HIS236      0.1986
     51  NE2       25.7670   -7.6370    9.0720 N.ar  236  HIS236     -0.2212
     52  N         29.5690   -7.8010   10.9290 N.3   251  ALA251     -0.1245
     53  CA        28.7600   -8.9600   11.3000 C.3   251  ALA251      0.1562
     54  C         29.5340   -9.8090   12.3140 C.2   251  ALA251      0.2260
     55  O         30.6820   -9.4940   12.6530 O.2   251  ALA251     -0.2867
     56  CB        28.4170   -9.7830   10.0660 C.3   251  ALA251      0.0290
     57  N         30.7780  -12.9960   12.0210 N.3   253  ASP253     -0.1239
     58  CA        31.9380  -13.7100   11.4500 C.3   253  ASP253      0.1674
     59  C         33.1360  -12.8150   11.0830 C.2   253  ASP253      0.2266
     60  O         34.2270  -13.3280   10.8220 O.2   253  ASP253     -0.2867
     61  CB        31.5300  -14.5750   10.2330 C.3   253  ASP253      0.1410
     62  CG        31.1270  -13.7500    9.0000 C.2   253  ASP253      0.3668
     63  OD1       30.7080  -12.5810    9.1400 O.co2 253  ASP253     -0.2456
     64  OD2       31.2200  -14.2980    7.8770 O.co2 253  ASP253     -0.2456
     65  N         32.9860  -10.2750    8.5030 N.3   255  ALA255     -0.1231
     66  CA        32.6640   -9.5760    7.2390 C.3   255  ALA255      0.1694
     67  C         32.0470   -8.2010    7.5140 C.2   255  ALA255      0.2592
     68  O         31.4160   -8.0000    8.5600 O.2   255  ALA255     -0.2718
     69  CB        31.7190  -10.4170    6.3920 C.3   255  ALA255      0.0304
     70  N         32.2170   -7.2580    6.5870 N.am  256  GLU256     -0.1966
     71  CA        31.6740   -5.9150    6.8020 C.3   256  GLU256      0.1733
     72  C         31.2270   -5.1230    5.5720 C.2   256  GLU256      0.2616
     73  O         31.9410   -5.0300    4.5820 O.2   256  GLU256     -0.2715
     74  CB        32.6570   -5.0720    7.6360 C.3   256  GLU256      0.0429
     75  CG        34.1000   -5.0600    7.1590 C.3   256  GLU256      0.1163
     76  CD        34.9840   -4.1330    7.9890 C.2   256  GLU256      0.3649
     77  OE1       34.5140   -3.0430    8.3930 O.co2 256  GLU256     -0.2457
     78  OE2       36.1650   -4.4780    8.2110 O.co2 256  GLU256     -0.2457
     79  N         30.0210   -4.5580    5.6830 N.am  257  GLN257     -0.1977
     80  CA        29.4090   -3.7010    4.6670 C.3   257  GLN257      0.1601
     81  C         29.3360   -2.2690    5.1660 C.2   257  GLN257      0.2287
     82  O         29.6320   -1.9870    6.3310 O.2   257  GLN257     -0.2864
     83  CB        27.9820   -4.1760    4.3120 C.3   257  GLN257      0.0394
     84  CG        27.8700   -5.0950    3.1000 C.3   257  GLN257      0.0908
     85  CD        28.0990   -4.3660    1.7630 C.2   257  GLN257      0.2608
     86  OE1       28.5110   -3.1990    1.7210 O.2   257  GLN257     -0.2717
     87  NE2       27.8200   -5.0590    0.6650 N.am  257  GLN257     -0.0878
@<TRIPOS>BOND
     1    11     9    1
     2    87    85   am
     3     9    10    1
     4     9     8    2
     5    86    85    2
     6    85    84    1
     7     8     7    1
     8    84    83    1
     9     7     6    1
    10     6     5    1
    11    83    80    1
    12    73    72    2
    13    80    81    1
    14    80    79    1
    15    33    31   ar
    16    33    32   ar
    17    31    29   ar
    18    81    82    2
    19     5     2    1
    20    72    79   am
    21    72    71    1
    22    32    30   ar
    23    29    28   ar
    24    29    27   ar
    25    69    66    1
    26     2     1    1
    27     2     3    1
    28    28    26   ar
    29    70    71    1
    30    70    67   am
    31    71    74    1
    32    75    74    1
    33    75    76    1
    34    30    27   ar
    35    66    67    1
    36    66    65    1
    37    27    25   ar
    38    67    68    2
    39     3    12   am
    40     3     4    2
    41    26    25   ar
    42    64    62   ar
    43    76    78   ar
    44    76    77   ar
    45    12    13    1
    46    25    24    1
    47    15    14    2
    48    62    63   ar
    49    62    61    1
    50    51    50   ar
    51    51    49   ar
    52    14    13    1
    53    14    20   am
    54    13    16    1
    55    50    48   ar
    56    24    21    1
    57    49    47   ar
    58    20    21    1
    59    21    22    1
    60    56    53    1
    61    16    17    1
    62    61    58    1
    63    17    18    1
    64    17    19    1
    65    48    47   ar
    66    60    59    2
    67    52    53    1
    68    47    46    1
    69    59    58    1
    70    53    54    1
    71    58    57    1
    72    22    34   am
    73    22    23    2
    74    34    35    1
    75    37    36    2
    76    46    43    1
    77    54    55    2
    78    35    38    1
    79    35    36    1
    80    39    40    1
    81    39    38    1
    82    39    41    1
    83    43    42    1
    84    43    44    1
    85    44    45    2
