@<TRIPOS>MOLECULE
tmp/6cn0B00.pdb
 142 134 0 0 0
SMALL
GASTEIGER

@<TRIPOS>ATOM
      1  N         55.4130   29.8150   -6.2760 N.3    60  TYR60      -0.1241
      2  CA        55.1500   30.3510   -7.6210 C.3    60  TYR60       0.1605
      3  C         55.4060   31.8630   -7.7750 C.2    60  TYR60       0.2264
      4  O         54.9270   32.4760   -8.7330 O.2    60  TYR60      -0.2867
      5  CB        53.7220   29.9870   -8.0650 C.3    60  TYR60       0.0534
      6  CG        53.5100   28.4950   -8.1620 C.ar   60  TYR60      -0.0201
      7  CD1       53.9760   27.7840   -9.2690 C.ar   60  TYR60      -0.0009
      8  CD2       52.8540   27.7880   -7.1520 C.ar   60  TYR60      -0.0009
      9  CE1       53.7990   26.4130   -9.3700 C.ar   60  TYR60       0.0417
     10  CE2       52.6690   26.4140   -7.2450 C.ar   60  TYR60       0.0417
     11  CZ        53.1450   25.7320   -8.3580 C.ar   60  TYR60       0.1957
     12  OH        52.9730   24.3720   -8.4720 O.3    60  TYR60      -0.2866
     13  N         61.0270   20.0310  -17.4250 N.3    96  HIS96      -0.1241
     14  CA        60.1880   20.3490  -16.2620 C.3    96  HIS96       0.1621
     15  C         59.7990   19.0730  -15.4960 C.2    96  HIS96       0.2264
     16  O         59.6370   18.0070  -16.0920 O.2    96  HIS96      -0.2867
     17  CB        58.9530   21.1240  -16.7380 C.3    96  HIS96       0.0745
     18  CG        58.1810   21.7880  -15.6430 C.ar   96  HIS96       0.0817
     19  ND1       57.0580   21.2290  -15.0760 N.ar   96  HIS96      -0.2268
     20  CD2       58.3590   22.9820  -15.0290 C.ar   96  HIS96       0.1154
     21  CE1       56.5850   22.0420  -14.1470 C.ar   96  HIS96       0.1986
     22  NE2       57.3560   23.1130  -14.0990 N.ar   96  HIS96      -0.2212
     23  N         56.9470   18.2510  -13.9030 N.3    98  SER98      -0.1217
     24  CA        55.5720   17.7680  -14.0960 C.3    98  SER98       0.1889
     25  C         55.4180   16.8800  -15.3290 C.2    98  SER98       0.2288
     26  O         54.7240   15.8620  -15.2880 O.2    98  SER98      -0.2866
     27  CB        54.6020   18.9450  -14.2410 C.3    98  SER98       0.2089
     28  OG        54.8770   19.6890  -15.4210 O.3    98  SER98      -0.2183
     29  N         46.6610   24.2430  -15.6320 N.3   127  GLY127     -0.1225
     30  CA        47.9990   24.0450  -15.0720 C.3   127  GLY127      0.1811
     31  C         48.8540   23.2860  -16.0680 C.2   127  GLY127      0.2280
     32  O         49.5500   22.3240  -15.7130 O.2   127  GLY127     -0.2866
     33  N         51.6750   23.7990  -17.6960 N.3   129  ALA129     -0.1245
     34  CA        53.1210   23.6910  -17.5180 C.3   129  ALA129      0.1562
     35  C         53.6920   23.5120  -18.9390 C.2   129  ALA129      0.2260
     36  O         53.2950   24.2660  -19.8320 O.2   129  ALA129     -0.2867
     37  CB        53.4860   22.5430  -16.5770 C.3   129  ALA129      0.0290
     38  N         46.5420   27.0320  -19.9780 N.3   150  PHE150     -0.1227
     39  CA        46.8760   28.1720  -19.1140 C.3   150  PHE150      0.1736
     40  C         47.6580   27.7820  -17.8640 C.2   150  PHE150      0.2595
     41  O         47.6540   26.6230  -17.4590 O.2   150  PHE150     -0.2718
     42  CB        45.6220   28.9890  -18.7620 C.3   150  PHE150      0.0547
     43  CG        44.5110   28.1850  -18.1500 C.ar  150  PHE150     -0.0202
     44  CD1       44.5060   27.9050  -16.7920 C.ar  150  PHE150     -0.0042
     45  CD2       43.4460   27.7370  -18.9290 C.ar  150  PHE150     -0.0042
     46  CE1       43.4750   27.1730  -16.2260 C.ar  150  PHE150     -0.0003
     47  CE2       42.4100   27.0050  -18.3640 C.ar  150  PHE150     -0.0003
     48  CZ        42.4230   26.7250  -17.0110 C.ar  150  PHE150     -0.0000
     49  N         48.3330   28.7680  -17.2680 N.am  151  ASP151     -0.1960
     50  CA        49.1710   28.5470  -16.0830 C.3   151  ASP151      0.1840
     51  C         49.4830   29.8890  -15.3890 C.2   151  ASP151      0.2622
     52  O         49.4970   30.9280  -16.0270 O.2   151  ASP151     -0.2715
     53  CB        50.4600   27.8370  -16.5330 C.3   151  ASP151      0.1450
     54  CG        51.2630   27.2700  -15.3910 C.2   151  ASP151      0.3671
     55  OD1       51.4400   27.9540  -14.3660 O.co2 151  ASP151     -0.2456
     56  OD2       51.7560   26.1280  -15.5430 O.co2 151  ASP151     -0.2456
     57  N         49.7160   29.8570  -14.0820 N.am  152  LEU152     -0.1963
     58  CA        50.0310   31.0720  -13.3170 C.3   152  LEU152      0.1728
     59  C         51.3260   31.7510  -13.7500 C.2   152  LEU152      0.2616
     60  O         51.3640   32.9700  -13.9110 O.2   152  LEU152     -0.2715
     61  CB        50.1540   30.7550  -11.8240 C.3   152  LEU152      0.0311
     62  CG        48.9130   30.2690  -11.0850 C.3   152  LEU152      0.0022
     63  CD1       49.2670   29.8830   -9.6580 C.3   152  LEU152      0.0001
     64  CD2       47.8450   31.3400  -11.0990 C.3   152  LEU152      0.0001
     65  N         52.3780   30.9550  -13.9320 N.am  153  ASP153     -0.1971
     66  CA        53.7080   31.4680  -14.2970 C.3   153  ASP153      0.1709
     67  C         53.7110   32.1820  -15.6660 C.2   153  ASP153      0.2293
     68  O         53.7150   31.5420  -16.7220 O.2   153  ASP153     -0.2864
     69  CB        54.7420   30.3250  -14.2500 C.3   153  ASP153      0.1436
     70  CG        56.1880   30.8180  -14.2970 C.2   153  ASP153      0.3671
     71  OD1       56.4330   32.0060  -14.5880 O.co2 153  ASP153     -0.2456
     72  OD2       57.0920   29.9990  -14.0340 O.co2 153  ASP153     -0.2456
     73  N         56.8320   31.6530  -18.0350 N.3   156  MET156     -0.1245
     74  CA        56.8370   30.2980  -18.5740 C.3   156  MET156      0.1570
     75  C         56.0110   30.2220  -19.8570 C.2   156  MET156      0.2261
     76  O         56.4320   29.6060  -20.8290 O.2   156  MET156     -0.2867
     77  CB        56.2980   29.3060  -17.5380 C.3   156  MET156      0.0387
     78  CG        56.4170   27.8480  -17.9480 C.3   156  MET156      0.0595
     79  SD        55.8570   26.7230  -16.6580 S.3   156  MET156     -0.1393
     80  CE        56.2600   25.1520  -17.4110 C.3   156  MET156      0.0692
     81  N         46.6690   31.9940  -16.6550 N.3   178  GLY178     -0.1210
     82  CA        45.3730   31.8380  -16.0240 C.3   178  GLY178      0.1956
     83  C         45.4300   30.9820  -14.7800 C.2   178  GLY178      0.2612
     84  O         46.3780   30.2230  -14.5690 O.2   178  GLY178     -0.2717
     85  N         44.3960   31.1280  -13.9620 N.am  179  ASP179     -0.1959
     86  CA        44.2460   30.4120  -12.7120 C.3   179  ASP179      0.1840
     87  C         42.8470   29.8310  -12.7470 C.2   179  ASP179      0.2621
     88  O         41.8720   30.5710  -12.7510 O.2   179  ASP179     -0.2715
     89  CB        44.3890   31.3900  -11.5360 C.3   179  ASP179      0.1450
     90  CG        44.3430   30.7050  -10.1720 C.2   179  ASP179      0.3671
     91  OD1       44.2330   29.4590  -10.1050 O.co2 179  ASP179     -0.2456
     92  OD2       44.4260   31.4290   -9.1530 O.co2 179  ASP179     -0.2456
     93  N         42.7420   28.5100  -12.7860 N.am  180  ILE180     -0.1977
     94  CA        41.4210   27.8650  -12.8240 C.3   180  ILE180      0.1596
     95  C         40.5830   28.1830  -11.5640 C.2   180  ILE180      0.2287
     96  O         39.3610   28.0420  -11.5660 O.2   180  ILE180     -0.2864
     97  CB        41.5420   26.3380  -13.0800 C.3   180  ILE180      0.0276
     98  CG1       40.1620   25.7380  -13.3760 C.3   180  ILE180      0.0022
     99  CG2       42.2690   25.6400  -11.9280 C.3   180  ILE180      0.0022
    100  CD1       40.2140   24.3480  -13.9570 C.3   180  ILE180      0.0001
    101  N         48.2960   16.4750  -12.5680 N.3   195  LYS195     -0.1231
    102  CA        49.0130   16.7860  -11.3260 C.3   195  LYS195      0.1693
    103  C         48.6650   18.1840  -10.8350 C.2   195  LYS195      0.2591
    104  O         49.5440   19.0220  -10.6280 O.2   195  LYS195     -0.2718
    105  CB        50.5200   16.6270  -11.5470 C.3   195  LYS195      0.0285
    106  CG        50.9080   15.2180  -11.9800 C.3   195  LYS195      0.0035
    107  CD        52.3860   15.0610  -12.3200 C.3   195  LYS195      0.0206
    108  CE        53.3070   15.2750  -11.1280 C.3   195  LYS195      0.1093
    109  NZ        54.7290   15.0220  -11.4920 N.3   195  LYS195     -0.1314
    110  N         47.3670   18.4140  -10.6460 N.am  196  LEU196     -0.1980
    111  CA        46.8580   19.7200  -10.2350 C.3   196  LEU196      0.1596
    112  C         45.7920   19.6990   -9.1350 C.2   196  LEU196      0.2287
    113  O         45.7010   20.6440   -8.3590 O.2   196  LEU196     -0.2864
    114  CB        46.2630   20.3980  -11.4720 C.3   196  LEU196      0.0297
    115  CG        45.6890   21.8090  -11.3600 C.3   196  LEU196      0.0022
    116  CD1       46.7810   22.7780  -10.9680 C.3   196  LEU196      0.0001
    117  CD2       45.0720   22.2300  -12.6840 C.3   196  LEU196      0.0001
    118  N         46.9260   20.1350   -5.4830 N.3   199  LEU199     -0.1231
    119  CA        47.6130   21.4150   -5.3840 C.3   199  LEU199      0.1693
    120  C         46.5600   22.5070   -5.1950 C.2   199  LEU199      0.2591
    121  O         46.7880   23.4730   -4.4690 O.2   199  LEU199     -0.2718
    122  CB        48.4620   21.6670   -6.6330 C.3   199  LEU199      0.0284
    123  CG        49.2320   22.9870   -6.7330 C.3   199  LEU199      0.0019
    124  CD1       50.0320   23.3060   -5.4720 C.3   199  LEU199      0.0001
    125  CD2       50.1390   22.9370   -7.9530 C.3   199  LEU199      0.0001
    126  N         45.4080   22.3390   -5.8470 N.am  200  LEU200     -0.1980
    127  CA        44.2950   23.2770   -5.7070 C.3   200  LEU200      0.1596
    128  C         43.7480   23.2130   -4.2840 C.2   200  LEU200      0.2287
    129  O         43.5660   24.2510   -3.6440 O.2   200  LEU200     -0.2864
    130  CB        43.1880   22.9640   -6.7090 C.3   200  LEU200      0.0297
    131  CG        43.5270   23.2280   -8.1710 C.3   200  LEU200      0.0022
    132  CD1       42.5200   22.5400   -9.0620 C.3   200  LEU200      0.0001
    133  CD2       43.5880   24.7140   -8.4800 C.3   200  LEU200      0.0001
    134  N         45.8690   25.3040   -2.0640 N.3   203  GLN203     -0.1245
    135  CA        45.6640   26.7390   -2.2940 C.3   203  GLN203      0.1566
    136  C         44.3490   27.1890   -1.6770 C.2   203  GLN203      0.2260
    137  O         44.2690   28.2590   -1.0760 O.2   203  GLN203     -0.2867
    138  CB        45.6440   27.0420   -3.7910 C.3   203  GLN203      0.0367
    139  CG        46.9650   26.7970   -4.5060 C.3   203  GLN203      0.0905
    140  CD        46.8510   26.9340   -6.0140 C.2   203  GLN203      0.2608
    141  OE1       45.8370   27.4100   -6.5400 O.2   203  GLN203     -0.2717
    142  NE2       47.8940   26.5150   -6.7200 N.am  203  GLN203     -0.0878
@<TRIPOS>BOND
     1    76    75    2
     2    38    39    1
     3    75    74    1
     4    36    35    2
     5    39    42    1
     6    39    40    1
     7    35    34    1
     8    45    47   ar
     9    45    43   ar
    10    42    43    1
    11    74    73    1
    12    74    77    1
    13    47    48   ar
    14    43    44   ar
    15    78    77    1
    16    78    79    1
    17    40    41    2
    18    40    49   am
    19    33    34    1
    20    34    37    1
    21    13    14    1
    22    80    79    1
    23    49    50    1
    24    48    46   ar
    25    44    46   ar
    26    17    14    1
    27    17    18    1
    28    68    67    2
    29    81    82    1
    30    53    50    1
    31    53    54    1
    32    14    15    1
    33    16    15    2
    34    50    51    1
    35    31    32    2
    36    31    30    1
    37    52    51    2
    38    82    83    1
    39    67    66    1
    40    18    19   ar
    41    18    20   ar
    42    29    30    1
    43    56    54   ar
    44    28    27    1
    45    54    55   ar
    46    51    57   am
    47    25    26    2
    48    25    24    1
    49    19    21   ar
    50    20    22   ar
    51    83    84    2
    52    83    85   am
    53    71    70   ar
    54    70    69    1
    55    70    72   ar
    56    66    69    1
    57    66    65    1
    58    27    24    1
    59    21    22   ar
    60    24    23    1
    61    57    58    1
    62    85    86    1
    63   100    98    1
    64    65    59   am
    65    60    59    2
    66    59    58    1
    67    98    97    1
    68    58    61    1
    69    97    94    1
    70    97    99    1
    71    94    93    1
    72    94    95    1
    73    93    87   am
    74    88    87    2
    75    87    86    1
    76    86    89    1
    77   117   115    1
    78   101   102    1
    79   107   106    1
    80   107   108    1
    81   106   105    1
    82    61    62    1
    83    96    95    2
    84   105   102    1
    85    89    90    1
    86   109   108    1
    87   114   115    1
    88   114   111    1
    89   115   116    1
    90   102   103    1
    91    64    62    1
    92    62    63    1
    93   103   110   am
    94   103   104    2
    95   110   111    1
    96   111   112    1
    97    90    91   ar
    98    90    92   ar
    99     9     7   ar
   100     9    11   ar
   101     7     6   ar
   102   112   113    2
   103   132   131    1
   104     4     3    2
   105   133   131    1
   106    12    11    1
   107    11    10   ar
   108   131   130    1
   109     6     5    1
   110     6     8   ar
   111     5     2    1
   112   125   123    1
   113     3     2    1
   114     2     1    1
   115    10     8   ar
   116   123   122    1
   117   123   124    1
   118   142   140   am
   119   130   127    1
   120   122   119    1
   121   141   140    2
   122   140   139    1
   123   126   127    1
   124   126   120   am
   125   127   128    1
   126   118   119    1
   127   119   120    1
   128   120   121    2
   129   139   138    1
   130   128   129    2
   131   138   135    1
   132   135   134    1
   133   135   136    1
   134   136   137    2
