@<TRIPOS>MOLECULE
tmp/6cn1F01.pdb
 125 120 0 0 0
SMALL
GASTEIGER

@<TRIPOS>ATOM
      1  N         46.4540    7.7790   95.9720 N.3    89  VAL89      -0.1231
      2  CA        46.6270    9.2310   95.7940 C.3    89  VAL89       0.1692
      3  C         47.0480    9.9440   97.0930 C.2    89  VAL89       0.2592
      4  O         47.7660   10.9470   97.0420 O.2    89  VAL89      -0.2718
      5  CB        45.3620    9.8900   95.1910 C.3    89  VAL89       0.0266
      6  CG1       45.5460   11.3960   95.0360 C.3    89  VAL89       0.0020
      7  CG2       45.0310    9.2710   93.8370 C.3    89  VAL89       0.0020
      8  N         46.6240    9.4230   98.2470 N.am   90  LYS90      -0.1966
      9  CA        47.0080   10.0240   99.5270 C.3    90  LYS90       0.1728
     10  C         48.5190    9.8770   99.7890 C.2    90  LYS90       0.2617
     11  O         49.0730   10.5880  100.6260 O.2    90  LYS90      -0.2715
     12  CB        46.2250    9.4070  100.6920 C.3    90  LYS90       0.0311
     13  CG        46.5720    7.9590  100.9990 C.3    90  LYS90       0.0038
     14  CD        45.7700    7.4310  102.1720 C.3    90  LYS90       0.0206
     15  CE        46.1650    5.9990  102.4840 C.3    90  LYS90       0.1093
     16  NZ        45.3920    5.4350  103.6220 N.3    90  LYS90      -0.1314
     17  N         49.1680    8.9460   99.0840 N.am   91  THR91      -0.1937
     18  CA        50.6090    8.6980   99.2400 C.3    91  THR91       0.2028
     19  C         51.4500    9.4610   98.2130 C.2    91  THR91       0.2642
     20  O         52.6740    9.5600   98.3620 O.2    91  THR91      -0.2714
     21  CB        50.9490    7.1950   99.1090 C.3    91  THR91       0.1808
     22  OG1       50.7800    6.7650   97.7520 O.3    91  THR91      -0.2208
     23  CG2       50.0750    6.3500  100.0420 C.3    91  THR91       0.0379
     24  N         50.7940    9.9810   97.1730 N.am   92  MET92      -0.1962
     25  CA        51.4800   10.7230   96.1230 C.3    92  MET92       0.1736
     26  C         50.4820   11.6040   95.3640 C.2    92  MET92       0.2616
     27  O         49.7240   11.1120   94.5280 O.2    92  MET92      -0.2715
     28  CB        52.1640    9.7370   95.1690 C.3    92  MET92       0.0427
     29  CG        53.0040   10.3870   94.0830 C.3    92  MET92       0.0599
     30  SD        53.8540    9.1910   93.0360 S.3    92  MET92      -0.1393
     31  CE        52.4790    8.3800   92.2250 C.3    92  MET92       0.0692
     32  N         50.4960   12.9080   95.6530 N.am   93  ARG93      -0.1963
     33  CA        49.5770   13.8600   95.0020 C.3    93  ARG93       0.1729
     34  C         49.8420   14.0020   93.4920 C.2    93  ARG93       0.2616
     35  O         48.9760   14.4810   92.7550 O.2    93  ARG93      -0.2715
     36  CB        49.6150   15.2330   95.6920 C.3    93  ARG93       0.0348
     37  CG        50.9200   15.9930   95.5140 C.3    93  ARG93       0.0492
     38  CD        51.0240   17.2230   96.4100 C.3    93  ARG93       0.2205
     39  NE        49.8750   18.1340   96.3150 N.pl3  93  ARG93      -0.0865
     40  CZ        48.8400   18.1690   97.1590 C.cat  93  ARG93       0.5346
     41  NH1       48.7650   17.3500   98.2060 N.pl3  93  ARG93       0.1354
     42  NH2       47.8650   19.0460   96.9590 N.pl3  93  ARG93       0.1354
     43  N         51.0330   13.5910   93.0420 N.am   94  ALA94      -0.1977
     44  CA        51.3800   13.6270   91.6130 C.3    94  ALA94       0.1597
     45  C         50.4960   12.6590   90.8040 C.2    94  ALA94       0.2287
     46  O         50.4910   12.6890   89.5690 O.2    94  ALA94      -0.2864
     47  CB        52.8460   13.2880   91.4120 C.3    94  ALA94       0.0319
     48  N         46.5760   17.4590  102.1490 N.3   116  GLY116     -0.1210
     49  CA        47.7160   18.3230  102.4630 C.3   116  GLY116      0.1956
     50  C         49.0490   17.5920  102.3340 C.2   116  GLY116      0.2612
     51  O         49.1110   16.3660  102.4600 O.2   116  GLY116     -0.2717
     52  N         50.1050   18.3540  102.0480 N.am  117  CYS117     -0.1956
     53  CA        51.4720   17.8320  101.9430 C.3   117  CYS117      0.1843
     54  C         52.3250   18.7620  102.8060 C.2   117  CYS117      0.2625
     55  O         52.2880   19.9800  102.6250 O.2   117  CYS117     -0.2714
     56  CB        51.9680   17.8120  100.4890 C.3   117  CYS117      0.0997
     57  SG        53.6650   17.1850  100.2580 S.3   117  CYS117     -0.0797
     58  N         53.0740   18.1870  103.7500 N.am  118  ALA118     -0.1963
     59  CA        53.9300   18.9510  104.6830 C.3   118  ALA118      0.1728
     60  C         54.6890   20.1350  104.0560 C.2   118  ALA118      0.2616
     61  O         54.9210   21.1400  104.7240 O.2   118  ALA118     -0.2715
     62  CB        54.9070   18.0110  105.3800 C.3   118  ALA118      0.0334
     63  N         55.0750   19.9970  102.7870 N.am  119  ILE119     -0.1977
     64  CA        55.7860   21.0540  102.0510 C.3   119  ILE119      0.1596
     65  C         55.0680   22.4030  102.1810 C.2   119  ILE119      0.2287
     66  O         55.6940   23.4050  102.5440 O.2   119  ILE119     -0.2864
     67  CB        55.9820   20.6930  100.5490 C.3   119  ILE119      0.0276
     68  CG1       57.0000   19.5490  100.3980 C.3   119  ILE119      0.0022
     69  CG2       56.4700   21.9080   99.7550 C.3   119  ILE119      0.0022
     70  CD1       57.2250   19.0770   98.9740 C.3   119  ILE119      0.0001
     71  N         49.5000   23.5320   98.3070 N.3   122  ARG122     -0.1245
     72  CA        49.5570   22.8910   96.9900 C.3   122  ARG122      0.1563
     73  C         48.1720   22.5470   96.4170 C.2   122  ARG122      0.2260
     74  O         47.9240   21.4020   96.0340 O.2   122  ARG122     -0.2867
     75  CB        50.4360   21.6360   97.0750 C.3   122  ARG122      0.0307
     76  CG        51.8280   21.9080   97.6380 C.3   122  ARG122      0.0489
     77  CD        52.7240   20.6870   97.5820 C.3   122  ARG122      0.2205
     78  NE        53.0130   20.2830   96.2100 N.pl3 122  ARG122     -0.0865
     79  CZ        53.8000   19.2630   95.8750 C.cat 122  ARG122      0.5346
     80  NH1       54.3850   18.5110   96.8100 N.pl3 122  ARG122      0.1354
     81  NH2       53.9970   18.9830   94.5920 N.pl3 122  ARG122      0.1354
     82  N         61.5890   14.1070  106.0730 N.3   371  THR371     -0.1203
     83  CA        60.1520   14.3360  105.8080 C.3   371  THR371      0.1994
     84  C         59.8060   14.7460  104.3600 C.2   371  THR371      0.2618
     85  O         58.6680   14.5580  103.9230 O.2   371  THR371     -0.2717
     86  CB        59.5830   15.4350  106.7310 C.3   371  THR371      0.1784
     87  OG1       60.2490   16.6770  106.4680 O.3   371  THR371     -0.2211
     88  CG2       59.7490   15.0610  108.2040 C.3   371  THR371      0.0376
     89  N         60.7720   15.2950  103.6270 N.am  372  ASP372     -0.1959
     90  CA        60.5410   15.7650  102.2610 C.3   372  ASP372      0.1840
     91  C         61.3320   14.9210  101.2590 C.2   372  ASP372      0.2621
     92  O         62.5420   14.7910  101.3790 O.2   372  ASP372     -0.2715
     93  CB        60.9460   17.2370  102.2000 C.3   372  ASP372      0.1450
     94  CG        60.5500   17.9150  100.9120 C.2   372  ASP372      0.3671
     95  OD1       60.4240   17.2380   99.8690 O.co2 372  ASP372     -0.2456
     96  OD2       60.3970   19.1550  100.9370 O.co2 372  ASP372     -0.2456
     97  N         60.6450   14.3730  100.2550 N.am  373  LEU373     -0.1977
     98  CA        61.3070   13.4940   99.2670 C.3   373  LEU373      0.1596
     99  C         62.5210   14.0840   98.5400 C.2   373  LEU373      0.2287
    100  O         63.3730   13.3330   98.0690 O.2   373  LEU373     -0.2864
    101  CB        60.3140   12.8840   98.2560 C.3   373  LEU373      0.0297
    102  CG        59.5740   13.7690   97.2500 C.3   373  LEU373      0.0022
    103  CD1       58.8390   12.9080   96.2320 C.3   373  LEU373      0.0001
    104  CD2       58.6100   14.7260   97.9320 C.3   373  LEU373      0.0001
    105  N         61.2240    8.5400  102.5630 N.3   397  HIS397     -0.1241
    106  CA        61.0130    9.8470  101.9110 C.3   397  HIS397      0.1621
    107  C         62.1050   10.0930  100.8690 C.2   397  HIS397      0.2264
    108  O         61.8070   10.4450   99.7350 O.2   397  HIS397     -0.2867
    109  CB        60.9690   11.0040  102.9220 C.3   397  HIS397      0.0745
    110  CG        59.7710   10.9830  103.8220 C.ar  397  HIS397      0.0817
    111  ND1       58.5320   11.4350  103.4210 N.ar  397  HIS397     -0.2268
    112  CD2       59.6280   10.5860  105.1070 C.ar  397  HIS397      0.1154
    113  CE1       57.6730   11.3010  104.4140 C.ar  397  HIS397      0.1986
    114  NE2       58.3140   10.7930  105.4510 N.ar  397  HIS397     -0.2212
    115  N         61.9100    8.0120   97.7200 N.3   400  ARG400     -0.1245
    116  CA        60.9160    8.4370   96.7270 C.3   400  ARG400      0.1563
    117  C         61.5440    9.3520   95.6760 C.2   400  ARG400      0.2260
    118  O         61.1950    9.2680   94.5000 O.2   400  ARG400     -0.2867
    119  CB        59.7440    9.1920   97.3640 C.3   400  ARG400      0.0307
    120  CG        58.7420    8.3490   98.1370 C.3   400  ARG400      0.0489
    121  CD        57.6540    9.2430   98.7210 C.3   400  ARG400      0.2205
    122  NE        56.9400    9.9870   97.6780 N.pl3 400  ARG400     -0.0865
    123  CZ        56.0210   10.9280   97.8990 C.cat 400  ARG400      0.5346
    124  NH1       55.6740   11.2760   99.1380 N.pl3 400  ARG400      0.1354
    125  NH2       55.4430   11.5340   96.8680 N.pl3 400  ARG400      0.1354
@<TRIPOS>BOND
     1    46    45    2
     2    45    44    1
     3    47    44    1
     4    44    43    1
     5    31    30    1
     6    35    34    2
     7    30    29    1
     8    43    34   am
     9    34    33    1
    10     7     5    1
    11    29    28    1
    12   118   117    2
    13    27    26    2
    14    81    79    1
    15    33    32    1
    16    33    36    1
    17     6     5    1
    18    28    25    1
    19     5     2    1
    20    26    32   am
    21    26    25    1
    22    37    36    1
    23    37    38    1
    24   117   116    1
    25     2     1    1
    26     2     3    1
    27    79    78    2
    28    79    80    1
    29    74    73    2
    30    25    24    1
    31    78    77    1
    32   103   102    1
    33    39    38    1
    34    39    40    2
    35    73    72    1
    36   116   119    1
    37   116   115    1
    38   125   123    1
    39    42    40    1
    40    72    75    1
    41    72    71    1
    42     4     3    2
    43    75    76    1
    44     3     8   am
    45    40    41    1
    46    24    19   am
    47   102   104    1
    48   102   101    1
    49   119   120    1
    50    77    76    1
    51   122   123    2
    52   122   121    1
    53    22    21    1
    54   123   124    1
    55   100    99    2
    56   120   121    1
    57    19    20    2
    58    19    18    1
    59     8     9    1
    60   101    98    1
    61    99    98    1
    62    70    68    1
    63    17    18    1
    64    17    10   am
    65    21    18    1
    66    21    23    1
    67    98    97    1
    68     9    10    1
    69     9    12    1
    70   108   107    2
    71    69    67    1
    72    10    11    2
    73    95    94   ar
    74    97    91   am
    75    57    56    1
    76    68    67    1
    77    56    53    1
    78    67    64    1
    79    12    13    1
    80   107   106    1
    81    94    96   ar
    82    94    93    1
    83    13    14    1
    84    91    92    2
    85    91    90    1
    86   106   105    1
    87   106   109    1
    88    53    52    1
    89    53    54    1
    90    52    50   am
    91    64    65    1
    92    64    63    1
    93    48    49    1
    94    14    15    1
    95    65    66    2
    96    93    90    1
    97    90    89    1
    98    50    51    2
    99    50    49    1
   100    15    16    1
   101    55    54    2
   102    63    60   am
   103    54    58   am
   104   109   110    1
   105   111   110   ar
   106   111   113   ar
   107    89    84   am
   108    58    59    1
   109   110   112   ar
   110    85    84    2
   111    60    59    1
   112    60    61    2
   113    84    83    1
   114   113   114   ar
   115    59    62    1
   116   112   114   ar
   117    83    82    1
   118    83    86    1
   119    87    86    1
   120    86    88    1
