@<TRIPOS>MOLECULE
tmp/6cn7A00.pdb
 120 113 0 0 0
SMALL
GASTEIGER

@<TRIPOS>ATOM
      1  N        -12.7860  199.4100   78.8350 N.3   122  ILE122     -0.1231
      2  CA       -11.4930  199.7370   78.2350 C.3   122  ILE122      0.1692
      3  C        -10.8700  200.9940   78.8230 C.2   122  ILE122      0.2592
      4  O         -9.7000  201.2820   78.5390 O.2   122  ILE122     -0.2718
      5  CB       -11.6070  199.8920   76.7060 C.3   122  ILE122      0.0266
      6  CG1      -12.6090  200.9940   76.3420 C.3   122  ILE122      0.0019
      7  CG2      -12.0050  198.5610   76.0790 C.3   122  ILE122      0.0020
      8  CD1      -12.6460  201.3240   74.8630 C.3   122  ILE122      0.0001
      9  N        -11.6050  201.7450   79.6390 N.am  123  ASP123     -0.1960
     10  CA       -11.0700  202.9320   80.2950 C.3   123  ASP123      0.1840
     11  C        -10.5520  202.6630   81.7000 C.2   123  ASP123      0.2622
     12  O        -10.0840  203.5980   82.3570 O.2   123  ASP123     -0.2715
     13  CB       -12.1350  204.0290   80.3510 C.3   123  ASP123      0.1450
     14  CG       -12.2800  204.7590   79.0380 C.2   123  ASP123      0.3671
     15  OD1      -11.4220  204.5640   78.1530 O.co2 123  ASP123     -0.2456
     16  OD2      -13.2530  205.5260   78.8860 O.co2 123  ASP123     -0.2456
     17  N        -10.6220  201.4260   82.1820 N.am  124  LEU124     -0.1963
     18  CA       -10.0680  201.1150   83.4900 C.3   124  LEU124      0.1728
     19  C         -8.5510  201.2490   83.4740 C.2   124  LEU124      0.2616
     20  O         -7.9080  201.2400   82.4220 O.2   124  LEU124     -0.2715
     21  CB       -10.4340  199.6950   83.9250 C.3   124  LEU124      0.0311
     22  CG       -11.8350  199.4570   84.4950 C.3   124  LEU124      0.0022
     23  CD1      -12.8270  199.6590   83.4330 C.3   124  LEU124      0.0001
     24  CD2      -11.9590  198.0550   85.0300 C.3   124  LEU124      0.0001
     25  N         -7.9820  201.3750   84.6700 N.am  125  ASP125     -0.1957
     26  CA        -6.5450  201.2210   84.8260 C.3   125  ASP125      0.1840
     27  C         -6.1110  199.8960   84.2150 C.2   125  ASP125      0.2621
     28  O         -6.7690  198.8680   84.3930 O.2   125  ASP125     -0.2715
     29  CB        -6.1650  201.2800   86.3060 C.3   125  ASP125      0.1450
     30  CG        -4.6850  201.0530   86.5370 C.2   125  ASP125      0.3671
     31  OD1       -3.8850  201.9560   86.2110 O.co2 125  ASP125     -0.2456
     32  OD2       -4.3200  199.9690   87.0430 O.co2 125  ASP125     -0.2456
     33  N         -5.0010  199.9290   83.4750 N.am  126  ALA126     -0.1977
     34  CA        -4.5420  198.7350   82.7710 C.3   126  ALA126      0.1597
     35  C         -4.4510  197.5350   83.7050 C.2   126  ALA126      0.2287
     36  O         -4.8280  196.4180   83.3330 O.2   126  ALA126     -0.2864
     37  CB        -3.1880  199.0060   82.1150 C.3   126  ALA126      0.0319
     38  N         -8.0150  196.2270   84.5950 N.3   129  LEU129     -0.1245
     39  CA        -8.6280  195.5270   83.4720 C.3   129  LEU129      0.1561
     40  C         -8.0600  194.1210   83.3330 C.2   129  LEU129      0.2260
     41  O         -8.8080  193.1580   83.1230 O.2   129  LEU129     -0.2867
     42  CB        -8.4240  196.3220   82.1820 C.3   129  LEU129      0.0270
     43  CG        -8.9350  195.6730   80.8900 C.3   129  LEU129      0.0019
     44  CD1      -10.4190  195.3510   80.9800 C.3   129  LEU129      0.0001
     45  CD2       -8.6580  196.5780   79.6970 C.3   129  LEU129      0.0001
     46  N          1.0050  208.4840   76.1940 N.3   344  ASP344     -0.1239
     47  CA        -0.4040  208.2000   75.9530 C.3   344  ASP344      0.1674
     48  C         -0.6910  206.7210   75.7190 C.2   344  ASP344      0.2266
     49  O         -1.8590  206.3490   75.5690 O.2   344  ASP344     -0.2867
     50  CB        -0.8990  209.0100   74.7500 C.3   344  ASP344      0.1410
     51  CG        -0.3160  208.6760   73.4820 C.2   344  ASP344      0.3668
     52  OD1        0.5630  207.7850   73.3400 O.co2 344  ASP344     -0.2456
     53  OD2       -0.7380  209.2870   72.4320 O.co2 344  ASP344     -0.2456
     54  N         -1.1670  202.6910   76.4130 N.3   346  SER346     -0.1217
     55  CA        -1.6660  201.8590   77.4930 C.3   346  SER346      0.1889
     56  C         -1.5400  200.3860   77.1270 C.2   346  SER346      0.2288
     57  O         -1.8440  200.0010   75.9920 O.2   346  SER346     -0.2866
     58  CB        -3.1300  202.1750   77.8130 C.3   346  SER346      0.2089
     59  OG        -3.5920  201.3540   78.8750 O.3   346  SER346     -0.2183
     60  N         -2.5660  196.3720   77.1810 N.3   348  ILE348     -0.1245
     61  CA        -3.6220  195.3970   77.4110 C.3   348  ILE348      0.1561
     62  C         -3.1030  194.0340   76.9850 C.2   348  ILE348      0.2260
     63  O         -2.2470  193.9230   76.1020 O.2   348  ILE348     -0.2867
     64  CB        -4.9280  195.7340   76.6500 C.3   348  ILE348      0.0252
     65  CG1       -4.7250  195.6260   75.1300 C.3   348  ILE348      0.0019
     66  CG2       -5.4250  197.1250   77.0330 C.3   348  ILE348      0.0019
     67  CD1       -6.0110  195.6860   74.3350 C.3   348  ILE348      0.0001
     68  N        -12.8090  199.5070   71.1050 N.3   367  TYR367     -0.1241
     69  CA       -11.5500  200.0190   70.5750 C.3   367  TYR367      0.1605
     70  C        -11.7210  200.5220   69.1490 C.2   367  TYR367      0.2264
     71  O        -11.1960  201.5810   68.7880 O.2   367  TYR367     -0.2867
     72  CB       -10.4740  198.9330   70.6280 C.3   367  TYR367      0.0534
     73  CG       -10.0170  198.5780   72.0240 C.ar  367  TYR367     -0.0201
     74  CD1       -9.4240  199.5300   72.8440 C.ar  367  TYR367     -0.0009
     75  CD2      -10.1600  197.2900   72.5150 C.ar  367  TYR367     -0.0009
     76  CE1       -9.0000  199.2120   74.1180 C.ar  367  TYR367      0.0417
     77  CE2       -9.7380  196.9600   73.7890 C.ar  367  TYR367      0.0417
     78  CZ        -9.1590  197.9260   74.5850 C.ar  367  TYR367      0.1957
     79  OH        -8.7360  197.6070   75.8550 O.3   367  TYR367     -0.2866
     80  N        -13.3740  203.9560   68.8910 N.3   370  ARG370     -0.1245
     81  CA       -12.5030  205.0480   69.3040 C.3   370  ARG370      0.1563
     82  C        -11.3580  205.2870   68.3320 C.2   370  ARG370      0.2260
     83  O        -10.7970  206.3880   68.3160 O.2   370  ARG370     -0.2867
     84  CB       -11.9390  204.7730   70.6950 C.3   370  ARG370      0.0307
     85  CG       -12.9670  204.9010   71.7850 C.3   370  ARG370      0.0489
     86  CD       -12.3170  205.0750   73.1310 C.3   370  ARG370      0.2205
     87  NE       -13.3120  205.0790   74.1930 N.pl3 370  ARG370     -0.0865
     88  CZ       -13.0180  205.1100   75.4860 C.cat 370  ARG370      0.5346
     89  NH1      -11.7520  205.1380   75.8790 N.pl3 370  ARG370      0.1354
     90  NH2      -13.9960  205.1100   76.3810 N.pl3 370  ARG370      0.1354
     91  N         -1.6940  200.2440   73.3030 N.3   412  MET412     -0.1230
     92  CA        -2.8870  200.8570   72.7350 C.3   412  MET412      0.1702
     93  C         -2.8210  202.3670   72.9050 C.2   412  MET412      0.2592
     94  O         -2.4780  202.8610   73.9830 O.2   412  MET412     -0.2718
     95  CB        -4.1540  200.3160   73.4040 C.3   412  MET412      0.0401
     96  CG        -4.3140  198.8030   73.3360 C.3   412  MET412      0.0596
     97  SD        -4.6140  198.1910   71.6650 S.3   412  MET412     -0.1393
     98  CE        -6.2160  198.9050   71.3010 C.3   412  MET412      0.0692
     99  N         -3.1490  203.0910   71.8370 N.am  413  LYS413     -0.1966
    100  CA        -3.2850  204.5410   71.8830 C.3   413  LYS413      0.1728
    101  C         -4.5070  204.9320   71.0690 C.2   413  LYS413      0.2616
    102  O         -4.5300  204.7380   69.8500 O.2   413  LYS413     -0.2715
    103  CB        -2.0320  205.2380   71.3400 C.3   413  LYS413      0.0311
    104  CG        -2.1080  206.7340   71.0580 C.3   413  LYS413      0.0038
    105  CD        -0.9170  207.1600   70.1700 C.3   413  LYS413      0.0206
    106  CE        -1.2000  208.3760   69.2990 C.3   413  LYS413      0.1093
    107  NZ        -0.4040  208.3640   68.0280 N.3   413  LYS413     -0.1314
    108  N         -5.5150  205.4770   71.7430 N.am  414  LYS414     -0.1963
    109  CA        -6.7390  205.9280   71.0870 C.3   414  LYS414      0.1728
    110  C         -7.3490  204.8150   70.2360 C.2   414  LYS414      0.2616
    111  O         -7.7250  205.0130   69.0780 O.2   414  LYS414     -0.2715
    112  CB        -6.4730  207.1800   70.2500 C.3   414  LYS414      0.0311
    113  CG        -5.9340  208.3420   71.0670 C.3   414  LYS414      0.0038
    114  CD        -5.9510  209.6430   70.2840 C.3   414  LYS414      0.0206
    115  CE        -5.6330  210.8230   71.1880 C.3   414  LYS414      0.1093
    116  NZ        -4.3360  210.6460   71.9010 N.3   414  LYS414     -0.1314
    117  N         -7.4370  203.6240   70.8270 N.am  415  GLY415     -0.1955
    118  CA        -8.1260  202.5090   70.2150 C.3   415  GLY415      0.1869
    119  C         -7.3350  201.7280   69.1900 C.2   415  GLY415      0.2309
    120  O         -7.8560  200.7380   68.6620 O.2   415  GLY415     -0.2863
@<TRIPOS>BOND
     1   107   106    1
     2    83    82    2
     3    82    81    1
     4   120   119    2
     5    71    70    2
     6    80    81    1
     7   111   110    2
     8    70    69    1
     9   119   118    1
    10   106   105    1
    11    81    84    1
    12   102   101    2
    13   105   104    1
    14   118   117    1
    15   110   117   am
    16   110   109    1
    17   112   113    1
    18   112   109    1
    19   114   113    1
    20   114   115    1
    21    69    72    1
    22    69    68    1
    23    72    73    1
    24    84    85    1
    25   104   103    1
    26   101   108   am
    27   101   100    1
    28   109   108    1
    29   115   116    1
    30    98    97    1
    31   103   100    1
    32    97    96    1
    33    85    86    1
    34    99   100    1
    35    99    93   am
    36    73    75   ar
    37    73    74   ar
    38    53    51   ar
    39    75    77   ar
    40    92    93    1
    41    92    91    1
    42    92    95    1
    43    74    76   ar
    44    93    94    2
    45    86    87    1
    46    96    95    1
    47    52    51   ar
    48    51    50    1
    49    77    78   ar
    50    76    78   ar
    51    87    88    2
    52    67    65    1
    53    78    79    1
    54    50    47    1
    55     8     6    1
    56    65    64    1
    57    88    89    1
    58    88    90    1
    59    49    48    2
    60    48    47    1
    61    47    46    1
    62    57    56    2
    63     7     5    1
    64    63    62    2
    65     6     5    1
    66    54    55    1
    67    64    66    1
    68    64    61    1
    69     5     2    1
    70    62    61    1
    71    56    55    1
    72    60    61    1
    73    55    58    1
    74    58    59    1
    75    15    14   ar
    76     2     3    1
    77     2     1    1
    78     4     3    2
    79     3     9   am
    80    16    14   ar
    81    14    13    1
    82     9    10    1
    83    45    43    1
    84    10    13    1
    85    10    11    1
    86    43    44    1
    87    43    42    1
    88    11    17   am
    89    11    12    2
    90    37    34    1
    91    42    39    1
    92    17    18    1
    93    20    19    2
    94    34    33    1
    95    34    35    1
    96    41    40    2
    97    40    39    1
    98    36    35    2
    99    23    22    1
   100    39    38    1
   101    19    18    1
   102    19    25   am
   103    33    27   am
   104    18    21    1
   105    21    22    1
   106    27    28    2
   107    27    26    1
   108    22    24    1
   109    25    26    1
   110    26    29    1
   111    31    30   ar
   112    29    30    1
   113    30    32   ar
