@<TRIPOS>MOLECULE
tmp/6cnhA00.pdb
 237 223 0 0 0
SMALL
GASTEIGER

@<TRIPOS>ATOM
      1  N        116.3550   -8.7490   10.5920 N.3     1  SER1       -0.1217
      2  CA       116.0760   -9.3610   11.9270 C.3     1  SER1        0.1889
      3  C        116.6160  -10.7870   11.9940 C.2     1  SER1        0.2288
      4  O        116.6910  -11.4760   10.9700 O.2     1  SER1       -0.2866
      5  CB       114.5700   -9.3580   12.2020 C.3     1  SER1        0.2089
      6  OG       113.9830   -8.1360   11.7860 O.3     1  SER1       -0.2183
      7  N        105.1880    3.0060   -3.4230 N.3    30  THR30      -0.1218
      8  CA       105.6750    3.6720   -2.2050 C.3    30  THR30       0.1862
      9  C        107.1200    4.1880   -2.3540 C.2    30  THR30       0.2287
     10  O        107.4420    5.2660   -1.8430 O.2    30  THR30      -0.2866
     11  CB       105.6200    2.7440   -0.9710 C.3    30  THR30       0.1770
     12  OG1      106.5470    1.6610   -1.1280 O.3    30  THR30      -0.2211
     13  CG2      104.2060    2.2010   -0.7430 C.3    30  THR30       0.0375
     14  N        109.5390    2.3130   -1.0750 N.3    32  GLN32      -0.1245
     15  CA       110.1780    1.6240    0.0370 C.3    32  GLN32       0.1566
     16  C        110.4970    0.1850   -0.3710 C.2    32  GLN32       0.2260
     17  O        109.9780   -0.3260   -1.3720 O.2    32  GLN32      -0.2867
     18  CB       109.2850    1.6680    1.2850 C.3    32  GLN32       0.0367
     19  CG       108.6850    3.0460    1.5390 C.3    32  GLN32       0.0905
     20  CD       108.4120    3.3230    2.9970 C.2    32  GLN32       0.2608
     21  OE1      109.3290    3.6220    3.7630 O.2    32  GLN32      -0.2717
     22  NE2      107.1440    3.2470    3.3880 N.am   32  GLN32      -0.0878
     23  N        107.1050   -2.5290   -3.1710 N.3    38  VAL38      -0.1245
     24  CA       106.1040   -2.3580   -2.1530 C.3    38  VAL38       0.1561
     25  C        105.0960   -1.3890   -2.7360 C.2    38  VAL38       0.2260
     26  O        105.4410   -0.2520   -3.0620 O.2    38  VAL38      -0.2867
     27  CB       106.6720   -1.8040   -0.8490 C.3    38  VAL38       0.0252
     28  CG1      105.5660   -1.7180    0.1900 C.3    38  VAL38       0.0019
     29  CG2      107.7910   -2.6990   -0.3490 C.3    38  VAL38       0.0019
     30  N        100.9110    0.3120   -2.8510 N.3    40  ARG40      -0.1245
     31  CA        99.7160    0.7060   -2.1170 C.3    40  ARG40       0.1563
     32  C         98.5420    0.1190   -2.8570 C.2    40  ARG40       0.2260
     33  O         98.5010    0.1510   -4.0890 O.2    40  ARG40      -0.2867
     34  CB        99.5790    2.2310   -2.0780 C.3    40  ARG40       0.0307
     35  CG       100.7760    2.9430   -1.4790 C.3    40  ARG40       0.0489
     36  CD       100.6210    4.4510   -1.5890 C.3    40  ARG40       0.2205
     37  NE        99.5040    4.9490   -0.7880 N.pl3  40  ARG40      -0.0865
     38  CZ        99.0890    6.2180   -0.7640 C.cat  40  ARG40       0.5346
     39  NH1       99.6940    7.1480   -1.5080 N.pl3  40  ARG40       0.1354
     40  NH2       98.0530    6.5590    0.0040 N.pl3  40  ARG40       0.1354
     41  N         92.8810    0.4540    3.0190 N.3    50  GLU50      -0.1245
     42  CA        94.2110    0.6600    2.4550 C.3    50  GLU50       0.1567
     43  C         95.1560   -0.4030    3.0480 C.2    50  GLU50       0.2260
     44  O         95.0790   -0.7230    4.2220 O.2    50  GLU50      -0.2867
     45  CB        94.7070    2.0900    2.7750 C.3    50  GLU50       0.0388
     46  CG        95.6290    2.6950    1.7110 C.3    50  GLU50       0.1160
     47  CD        96.7080    3.6310    2.2790 C.2    50  GLU50       0.3649
     48  OE1       97.8720    3.5750    1.8040 O.co2  50  GLU50      -0.2457
     49  OE2       96.4060    4.4180    3.2090 O.co2  50  GLU50      -0.2457
     50  N         99.4470   -2.0930    2.3430 N.3    52  ALA52      -0.1245
     51  CA       100.6960   -2.1000    1.5980 C.3    52  ALA52       0.1562
     52  C        100.9850   -3.5480    1.2640 C.2    52  ALA52       0.2260
     53  O        100.8290   -4.4090    2.1210 O.2    52  ALA52      -0.2867
     54  CB       101.8190   -1.4870    2.4460 C.3    52  ALA52       0.0290
     55  N        104.0000   -6.0630   -0.2210 N.3    54  LYS54      -0.1245
     56  CA       105.3620   -6.3090   -0.6810 C.3    54  LYS54       0.1561
     57  C        105.3930   -7.5290   -1.6030 C.2    54  LYS54       0.2260
     58  O        104.9940   -8.6080   -1.1970 O.2    54  LYS54      -0.2867
     59  CB       106.3320   -6.5080    0.4860 C.3    54  LYS54       0.0271
     60  CG       107.7710   -6.6480   -0.0190 C.3    54  LYS54       0.0035
     61  CD       108.8090   -6.4550    1.0730 C.3    54  LYS54       0.0206
     62  CE       108.9610   -7.6950    1.9260 C.3    54  LYS54       0.1093
     63  NZ       110.2170   -7.6600    2.7230 N.3    54  LYS54      -0.1314
     64  N        113.9950  -16.3610    2.3610 N.3    65  THR65      -0.1218
     65  CA       114.0760  -15.1660    3.2020 C.3    65  THR65       0.1862
     66  C        112.6720  -14.6040    3.5000 C.2    65  THR65       0.2287
     67  O        112.3780  -14.2380    4.6290 O.2    65  THR65      -0.2866
     68  CB       114.9770  -14.1190    2.5230 C.3    65  THR65       0.1770
     69  OG1      116.2360  -14.7310    2.2280 O.3    65  THR65      -0.2211
     70  CG2      115.2340  -12.9320    3.4070 C.3    65  THR65       0.0375
     71  N        110.9890  -16.7280    6.1370 N.3    68  LYS68      -0.1231
     72  CA       111.5220  -16.3530    7.4660 C.3    68  LYS68       0.1693
     73  C        110.8830  -15.0560    7.9750 C.2    68  LYS68       0.2591
     74  O        110.4760  -14.9650    9.1340 O.2    68  LYS68      -0.2718
     75  CB       113.0450  -16.2040    7.4450 C.3    68  LYS68       0.0285
     76  CG       113.7940  -17.4970    7.1550 C.3    68  LYS68       0.0035
     77  CD       115.3040  -17.3840    7.4020 C.3    68  LYS68       0.0206
     78  CE       116.0230  -16.4720    6.4060 C.3    68  LYS68       0.1093
     79  NZ       115.7190  -15.0190    6.5770 N.3    68  LYS68      -0.1314
     80  N        110.7810  -14.0600    7.0970 N.am   69  GLU69      -0.1979
     81  CA       110.1390  -12.7900    7.4630 C.3    69  GLU69       0.1602
     82  C        108.7060  -13.0390    7.9310 C.2    69  GLU69       0.2287
     83  O        108.2800  -12.5560    8.9850 O.2    69  GLU69      -0.2864
     84  CB       110.1740  -11.7990    6.2900 C.3    69  GLU69       0.0415
     85  CG       109.5250  -10.4590    6.6070 C.3    69  GLU69       0.1163
     86  CD       109.5770   -9.4720    5.4700 C.2    69  GLU69       0.3649
     87  OE1      110.0610   -9.8290    4.3710 O.co2  69  GLU69      -0.2457
     88  OE2      109.1150   -8.3220    5.6860 O.co2  69  GLU69      -0.2457
     89  N        108.7340  -14.5880   11.4880 N.3    72  PHE72      -0.1227
     90  CA       109.0180  -13.5600   12.5110 C.3    72  PHE72       0.1736
     91  C        107.7860  -12.7070   12.8190 C.2    72  PHE72       0.2595
     92  O        107.4410  -12.5080   13.9890 O.2    72  PHE72      -0.2718
     93  CB       110.1930  -12.6650   12.0770 C.3    72  PHE72       0.0547
     94  CG       111.5520  -13.2680   12.3350 C.ar   72  PHE72      -0.0202
     95  CD1      111.8060  -14.6250   12.1180 C.ar   72  PHE72      -0.0042
     96  CD2      112.5930  -12.4710   12.7760 C.ar   72  PHE72      -0.0042
     97  CE1      113.0600  -15.1630   12.3550 C.ar   72  PHE72      -0.0003
     98  CE2      113.8520  -13.0060   13.0180 C.ar   72  PHE72      -0.0003
     99  CZ       114.0860  -14.3510   12.8090 C.ar   72  PHE72      -0.0000
    100  N        107.1140  -12.2330   11.7680 N.am   73  LEU73      -0.1980
    101  CA       105.9440  -11.3600   11.9040 C.3    73  LEU73       0.1596
    102  C        104.7360  -12.0570   12.5450 C.2    73  LEU73       0.2287
    103  O        104.0500  -11.4660   13.3990 O.2    73  LEU73      -0.2864
    104  CB       105.5600  -10.7760   10.5370 C.3    73  LEU73       0.0297
    105  CG       106.5780   -9.7760    9.9620 C.3    73  LEU73       0.0022
    106  CD1      106.4390   -9.6500    8.4570 C.3    73  LEU73       0.0001
    107  CD2      106.4320   -8.4140   10.6030 C.3    73  LEU73       0.0001
    108  N        105.5240  -12.3130   16.2940 N.3    76  LEU76      -0.1245
    109  CA       105.2250  -11.0350   16.9540 C.3    76  LEU76       0.1561
    110  C        103.7260  -10.7100   16.9840 C.2    76  LEU76       0.2260
    111  O        103.2260  -10.1900   17.9900 O.2    76  LEU76      -0.2867
    112  CB       105.9880   -9.8840   16.3080 C.3    76  LEU76       0.0270
    113  CG       107.4960   -9.9320   16.5050 C.3    76  LEU76       0.0019
    114  CD1      108.1450   -8.9710   15.5470 C.3    76  LEU76       0.0001
    115  CD2      107.9110   -9.5670   17.9150 C.3    76  LEU76       0.0001
    116  N        105.3650   -2.9030   16.8630 N.3    87  CYS87      -0.1221
    117  CA       105.9560   -3.5440   15.6880 C.3    87  CYS87       0.1808
    118  C        104.9260   -3.5610   14.5490 C.2    87  CYS87       0.2601
    119  O        103.7090   -3.5710   14.7820 O.2    87  CYS87      -0.2717
    120  CB       106.4430   -4.9400   16.0350 C.3    87  CYS87       0.0970
    121  SG       107.7770   -4.9220   17.2620 S.3    87  CYS87      -0.0800
    122  N        105.4310   -3.5190   13.3210 N.am   88  LEU88      -0.1979
    123  CA       104.5920   -3.5380   12.1310 C.3    88  LEU88       0.1596
    124  C        103.7090   -4.7950   12.1130 C.2    88  LEU88       0.2287
    125  O        104.1610   -5.8630   12.5190 O.2    88  LEU88      -0.2864
    126  CB       105.4730   -3.4830   10.8870 C.3    88  LEU88       0.0297
    127  CG       104.7890   -3.5240    9.5240 C.3    88  LEU88       0.0022
    128  CD1      104.0160   -2.2500    9.2650 C.3    88  LEU88       0.0001
    129  CD2      105.8360   -3.7370    8.4590 C.3    88  LEU88       0.0001
    130  N        100.4780   -5.7390    4.5430 N.3   104  PHE104     -0.1227
    131  CA       100.7520   -5.0450    5.7960 C.3   104  PHE104      0.1736
    132  C         99.7380   -3.9330    6.0210 C.2   104  PHE104      0.2595
    133  O         99.1800   -3.3950    5.0670 O.2   104  PHE104     -0.2718
    134  CB       102.1390   -4.4090    5.7310 C.3   104  PHE104      0.0547
    135  CG       103.2590   -5.3920    5.6470 C.ar  104  PHE104     -0.0202
    136  CD1      103.7190   -6.0210    6.7880 C.ar  104  PHE104     -0.0042
    137  CD2      103.8790   -5.6730    4.4340 C.ar  104  PHE104     -0.0042
    138  CE1      104.7570   -6.9400    6.7250 C.ar  104  PHE104     -0.0003
    139  CE2      104.9140   -6.5830    4.3690 C.ar  104  PHE104     -0.0003
    140  CZ       105.3640   -7.2070    5.5160 C.ar  104  PHE104     -0.0000
    141  N         99.5280   -3.5740    7.2860 N.am  105  GLU105     -0.1966
    142  CA        98.8750   -2.3130    7.6440 C.3   105  GLU105      0.1718
    143  C         99.5690   -1.1400    6.9230 C.2   105  GLU105      0.2458
    144  O        100.7850   -1.1410    6.7950 O.2   105  GLU105     -0.2730
    145  CB        98.9300   -2.0770    9.1560 C.3   105  GLU105      0.0428
    146  CG       100.3470   -1.8770    9.7090 C.3   105  GLU105      0.1163
    147  CD       100.3810   -1.5170   11.1880 C.2   105  GLU105      0.3649
    148  OE1      101.2910   -2.0040   11.8980 O.co2 105  GLU105     -0.2457
    149  OE2       99.5050   -0.7490   11.6340 O.co2 105  GLU105     -0.2457
    150  N         98.8000   -0.1480    6.4550 N.am  106  PRO106     -0.2716
    151  CA        99.4170    0.9740    5.7770 C.3   106  PRO106      0.1536
    152  C        100.0130    1.9750    6.7800 C.2   106  PRO106      0.2598
    153  O         99.4510    2.2100    7.8530 O.2   106  PRO106     -0.2715
    154  CB        98.2370    1.5950    5.0190 C.3   106  PRO106      0.0310
    155  CG        97.0850    1.3610    5.9260 C.3   106  PRO106      0.0237
    156  CD        97.3470    0.0440    6.6080 C.3   106  PRO106      0.0939
    157  N        101.1530    2.5410    6.4380 N.am  107  LEU107     -0.1964
    158  CA       101.7160    3.6270    7.2370 C.3   107  LEU107      0.1728
    159  C        102.1620    4.7380    6.2940 C.2   107  LEU107      0.2616
    160  O        102.2180    4.5370    5.0880 O.2   107  LEU107     -0.2715
    161  CB       102.8550    3.1040    8.1250 C.3   107  LEU107      0.0311
    162  CG       102.3870    2.1390    9.2320 C.3   107  LEU107      0.0022
    163  CD1      103.4850    1.2100    9.7050 C.3   107  LEU107      0.0001
    164  CD2      101.7890    2.9090   10.3850 C.3   107  LEU107      0.0001
    165  N        102.4710    5.9030    6.8480 N.am  108  SER108     -0.1950
    166  CA       102.6330    7.1190    6.0510 C.3   108  SER108      0.1924
    167  C        104.0530    7.3100    5.5300 C.2   108  SER108      0.2314
    168  O        104.2710    7.4210    4.3250 O.2   108  SER108     -0.2863
    169  CB       102.1990    8.3240    6.8790 C.3   108  SER108      0.2116
    170  OG       102.2660    9.5100    6.1140 O.3   108  SER108     -0.2180
    171  N        110.3290   -7.6270   21.0400 N.3   143  LEU143     -0.1245
    172  CA       111.3950   -8.3550   20.3500 C.3   143  LEU143      0.1561
    173  C        112.1320   -9.2950   21.3060 C.2   143  LEU143      0.2260
    174  O        112.3090  -10.4830   20.9840 O.2   143  LEU143     -0.2867
    175  CB       112.3940   -7.4180   19.6720 C.3   143  LEU143      0.0270
    176  CG       111.9540   -6.5540   18.4760 C.3   143  LEU143      0.0019
    177  CD1      113.1740   -5.8560   17.8850 C.3   143  LEU143      0.0001
    178  CD2      111.2620   -7.3470   17.3850 C.3   143  LEU143      0.0001
    179  N        113.9950  -12.2080   19.4310 N.3   148  ILE148     -0.1245
    180  CA       114.3800  -11.6300   18.1420 C.3   148  ILE148      0.1561
    181  C        115.3640  -10.4680   18.3610 C.2   148  ILE148      0.2260
    182  O        115.1730   -9.6340   19.2520 O.2   148  ILE148     -0.2867
    183  CB       113.1290  -11.1660   17.3600 C.3   148  ILE148      0.0252
    184  CG1      112.3330  -12.3910   16.8910 C.3   148  ILE148      0.0019
    185  CG2      113.5150  -10.2970   16.1650 C.3   148  ILE148      0.0019
    186  CD1      110.9210  -12.0560   16.4670 C.3   148  ILE148      0.0001
    187  N        116.8640   -7.3200   16.1520 N.3   150  HIS150     -0.1241
    188  CA       116.6570   -6.5260   14.9350 C.3   150  HIS150      0.1621
    189  C        117.9890   -6.3440   14.2090 C.2   150  HIS150      0.2264
    190  O        118.1310   -6.7230   13.0360 O.2   150  HIS150     -0.2867
    191  CB       116.0030   -5.1690   15.2630 C.3   150  HIS150      0.0745
    192  CG       115.5700   -4.3950   14.0540 C.ar  150  HIS150      0.0817
    193  ND1      116.4470   -3.9990   13.0640 N.ar  150  HIS150     -0.2268
    194  CD2      114.3490   -3.9590   13.6700 C.ar  150  HIS150      0.1154
    195  CE1      115.7860   -3.3340   12.1350 C.ar  150  HIS150      0.1986
    196  NE2      114.5080   -3.3050   12.4740 N.ar  150  HIS150     -0.2212
    197  N        108.5780    3.4200   10.8590 N.3   159  LEU159     -0.1245
    198  CA       107.5130    4.0710   10.0930 C.3   159  LEU159      0.1561
    199  C        106.5410    4.7090   11.0380 C.2   159  LEU159      0.2260
    200  O        106.3970    4.2650   12.1740 O.2   159  LEU159     -0.2867
    201  CB       106.7450    3.0690    9.2270 C.3   159  LEU159      0.0270
    202  CG       107.4660    2.3510    8.1060 C.3   159  LEU159      0.0019
    203  CD1      106.5220    1.3540    7.4540 C.3   159  LEU159      0.0001
    204  CD2      107.9660    3.3180    7.0650 C.3   159  LEU159      0.0001
    205  N        108.0850   -0.2640   14.4010 N.3   169  LEU169     -0.1231
    206  CA       109.4000   -0.7320   14.0330 C.3   169  LEU169      0.1693
    207  C        109.2500   -1.7370   12.8940 C.2   169  LEU169      0.2592
    208  O        108.3800   -2.6020   12.9320 O.2   169  LEU169     -0.2718
    209  CB       110.0770   -1.3990   15.2270 C.3   169  LEU169      0.0284
    210  CG       111.5070   -1.8840   15.0100 C.3   169  LEU169      0.0019
    211  CD1      112.4660   -0.7050   14.8810 C.3   169  LEU169      0.0001
    212  CD2      111.9010   -2.7890   16.1620 C.3   169  LEU169      0.0001
    213  N        110.1290   -1.6420   11.9110 N.am  170  CYS170     -0.1956
    214  CA       110.0690   -2.5090   10.7530 C.3   170  CYS170      0.1843
    215  C        111.5040   -2.7620   10.3120 C.2   170  CYS170      0.2625
    216  O        112.4370   -2.2740   10.9510 O.2   170  CYS170     -0.2714
    217  CB       109.1850   -1.8640    9.6700 C.3   170  CYS170      0.0997
    218  SG       109.8840   -0.4680    8.7730 S.3   170  CYS170     -0.0797
    219  N        111.6810   -3.5610    9.2670 N.am  171  ASP171     -0.1957
    220  CA       113.0000   -3.8910    8.7440 C.3   171  ASP171      0.1840
    221  C        112.9210   -4.1250    7.2310 C.2   171  ASP171      0.2622
    222  O        112.0610   -4.8480    6.7700 O.2   171  ASP171     -0.2715
    223  CB       113.5550   -5.1360    9.4560 C.3   171  ASP171      0.1450
    224  CG       115.0320   -5.3860    9.1500 C.2   171  ASP171      0.3671
    225  OD1      115.6450   -4.5920    8.4240 O.co2 171  ASP171     -0.2456
    226  OD2      115.5880   -6.3780    9.6480 O.co2 171  ASP171     -0.2456
    227  N        113.8510   -3.5270    6.4840 N.am  172  PHE172     -0.1974
    228  CA       113.8710   -3.5710    5.0070 C.3   172  PHE172      0.1639
    229  C        115.0570   -4.3390    4.4270 C.2   172  PHE172      0.2290
    230  O        116.0300   -4.6490    5.1310 O.2   172  PHE172     -0.2864
    231  CB       113.8660   -2.1390    4.4620 C.3   172  PHE172      0.0560
    232  CG       112.5600   -1.4200    4.6540 C.ar  172  PHE172     -0.0200
    233  CD1      111.4620   -1.7280    3.8590 C.ar  172  PHE172     -0.0042
    234  CD2      112.4250   -0.4290    5.6140 C.ar  172  PHE172     -0.0042
    235  CE1      110.2610   -1.0680    4.0300 C.ar  172  PHE172     -0.0003
    236  CE2      111.2250    0.2380    5.7890 C.ar  172  PHE172     -0.0003
    237  CZ       110.1390   -0.0830    4.9990 C.ar  172  PHE172     -0.0000
@<TRIPOS>BOND
     1    33    32    2
     2     7     8    1
     3    23    24    1
     4    26    25    2
     5    32    31    1
     6    30    31    1
     7    25    24    1
     8     9     8    1
     9     9    10    2
    10     8    11    1
    11    24    27    1
    12    31    34    1
    13    34    35    1
    14    57    58    2
    15    57    56    1
    16    36    35    1
    17    36    37    1
    18    39    38    1
    19    17    16    2
    20    12    11    1
    21    14    15    1
    22    11    13    1
    23    27    29    1
    24    27    28    1
    25    37    38    2
    26    38    40    1
    27    56    55    1
    28    56    59    1
    29    16    15    1
    30    60    59    1
    31    60    61    1
    32    15    18    1
    33    61    62    1
    34    52    51    1
    35    52    53    2
    36    18    19    1
    37    19    20    1
    38    51    50    1
    39    51    54    1
    40    46    47    1
    41    46    45    1
    42    48    47   ar
    43    62    63    1
    44    69    68    1
    45    47    49   ar
    46    64    65    1
    47    42    45    1
    48    42    41    1
    49    42    43    1
    50    68    65    1
    51    68    70    1
    52    20    22   am
    53    20    21    2
    54    43    44    2
    55    65    66    1
    56    66    67    2
    57   233   235   ar
    58   233   232   ar
    59   235   237   ar
    60   168   167    2
    61   139   137   ar
    62   139   140   ar
    63    87    86   ar
    64   229   228    1
    65   229   230    2
    66   137   135   ar
    67   231   232    1
    68   231   228    1
    69   130   131    1
    70   232   234   ar
    71   237   236   ar
    72   228   227    1
    73   154   151    1
    74   154   155    1
    75   133   132    2
    76   160   159    2
    77    86    88   ar
    78    86    85    1
    79   140   138   ar
    80   167   166    1
    81   234   236   ar
    82   135   134    1
    83   135   136   ar
    84   134   131    1
    85   151   150    1
    86   151   152    1
    87   131   132    1
    88   155   156    1
    89   132   141   am
    90   166   165    1
    91   166   169    1
    92   170   169    1
    93    71    72    1
    94    84    85    1
    95    84    81    1
    96   159   165   am
    97   159   158    1
    98    78    79    1
    99    78    77    1
   100   157   152   am
   101   157   158    1
   102   150   156    1
   103   150   143   am
   104   227   221   am
   105   138   136   ar
   106   222   221    2
   107   152   153    2
   108   144   143    2
   109   143   142    1
   110   204   202    1
   111    80    81    1
   112    80    73   am
   113    76    77    1
   114    76    75    1
   115   221   220    1
   116   158   161    1
   117   141   142    1
   118    75    72    1
   119   203   202    1
   120    81    82    1
   121    72    73    1
   122   142   145    1
   123    82    83    2
   124    73    74    2
   125   202   201    1
   126   161   162    1
   127   225   224   ar
   128   106   105    1
   129   129   127    1
   130   220   219    1
   131   220   223    1
   132   218   217    1
   133   224   223    1
   134   224   226   ar
   135   145   146    1
   136   201   198    1
   137   162   163    1
   138   162   164    1
   139   128   127    1
   140   219   215   am
   141   127   126    1
   142   217   214    1
   143   146   147    1
   144   105   104    1
   145   105   107    1
   146   198   197    1
   147   198   199    1
   148   215   214    1
   149   215   216    2
   150   104   101    1
   151     1     2    1
   152   214   213    1
   153   126   123    1
   154     4     3    2
   155   199   200    2
   156   147   149   ar
   157   147   148   ar
   158    89    90    1
   159   100   101    1
   160   100    91   am
   161     6     5    1
   162   101   102    1
   163   213   207   am
   164     2     3    1
   165     2     5    1
   166    93    94    1
   167    93    90    1
   168   124   123    1
   169   124   125    2
   170    95    94   ar
   171    95    97   ar
   172   123   122    1
   173   195   196   ar
   174   195   193   ar
   175    94    96   ar
   176    97    99   ar
   177   196   194   ar
   178    90    91    1
   179   102   103    2
   180    96    98   ar
   181    99    98   ar
   182    91    92    2
   183   207   208    2
   184   207   206    1
   185   190   189    2
   186   193   192   ar
   187   122   118   am
   188   194   192   ar
   189   206   205    1
   190   206   209    1
   191   192   191    1
   192   189   188    1
   193   118   119    2
   194   118   117    1
   195   211   210    1
   196   188   191    1
   197   188   187    1
   198   210   209    1
   199   210   212    1
   200   114   113    1
   201   117   120    1
   202   117   116    1
   203   120   121    1
   204   185   183    1
   205   108   109    1
   206   112   113    1
   207   112   109    1
   208   186   184    1
   209   113   115    1
   210   184   183    1
   211   109   110    1
   212   110   111    2
   213   183   180    1
   214   178   176    1
   215   177   176    1
   216   180   181    1
   217   180   179    1
   218   181   182    2
   219   176   175    1
   220   175   172    1
   221   172   171    1
   222   172   173    1
   223   174   173    2
