@<TRIPOS>MOLECULE
tmp/6cnjB02.pdb
 121 117 0 0 0
SMALL
GASTEIGER

@<TRIPOS>ATOM
      1  N        145.3330  148.9350  110.8230 N.3   284  PHE284     -0.1241
      2  CA       145.9210  149.5440  109.6350 C.3   284  PHE284      0.1605
      3  C        145.9400  148.5530  108.4730 C.2   284  PHE284      0.2264
      4  O        145.6450  148.9110  107.3230 O.2   284  PHE284     -0.2867
      5  CB       147.3280  150.0380  109.9670 C.3   284  PHE284      0.0534
      6  CG       148.0020  150.7530  108.8450 C.ar  284  PHE284     -0.0203
      7  CD1      147.6450  152.0480  108.5200 C.ar  284  PHE284     -0.0042
      8  CD2      149.0080  150.1370  108.1210 C.ar  284  PHE284     -0.0042
      9  CE1      148.2720  152.7120  107.4890 C.ar  284  PHE284     -0.0003
     10  CE2      149.6380  150.7950  107.0890 C.ar  284  PHE284     -0.0003
     11  CZ       149.2710  152.0850  106.7720 C.ar  284  PHE284     -0.0000
     12  N        142.3650  148.1580  106.9710 N.3   287  VAL287     -0.1231
     13  CA       141.8890  149.2960  106.1880 C.3   287  VAL287      0.1692
     14  C        142.6250  149.3730  104.8490 C.2   287  VAL287      0.2592
     15  O        142.0080  149.6090  103.7980 O.2   287  VAL287     -0.2718
     16  CB       141.9860  150.6070  106.9950 C.3   287  VAL287      0.0266
     17  CG1      143.4220  150.9980  107.2700 C.3   287  VAL287      0.0020
     18  CG2      141.2480  151.7230  106.2770 C.3   287  VAL287      0.0020
     19  N        143.9400  149.1240  104.8390 N.am  288  THR288     -0.1953
     20  CA       144.6180  149.1210  103.5460 C.3   288  THR288      0.1897
     21  C        144.1970  147.9250  102.6940 C.2   288  THR288      0.2313
     22  O        144.1880  148.0140  101.4580 O.2   288  THR288     -0.2863
     23  CB       146.1370  149.1600  103.7290 C.3   288  THR288      0.1794
     24  OG1      146.7670  149.2750  102.4480 O.3   288  THR288     -0.2208
     25  CG2      146.6340  147.9150  104.4160 C.3   288  THR288      0.0378
     26  N        141.0270  148.8810  101.0360 N.3   291  CYS291     -0.1235
     27  CA       141.3390  149.8210   99.9610 C.3   291  CYS291      0.1677
     28  C        141.8150  149.0930   98.7060 C.2   291  CYS291      0.2270
     29  O        141.3350  149.3620   97.5960 O.2   291  CYS291     -0.2867
     30  CB       142.3890  150.8280  100.4250 C.3   291  CYS291      0.0956
     31  SG       142.8160  152.0580   99.1680 S.3   291  CYS291     -0.0801
     32  N        140.0000  148.8810   94.9820 N.3   295  VAL295     -0.1245
     33  CA       140.6240  149.3030   93.7330 C.3   295  VAL295      0.1561
     34  C        140.8380  148.1160   92.8010 C.2   295  VAL295      0.2260
     35  O        141.0990  148.3040   91.6080 O.2   295  VAL295     -0.2867
     36  CB       141.9500  150.0380   94.0020 C.3   295  VAL295      0.0252
     37  CG1      143.0280  149.0630   94.4330 C.3   295  VAL295      0.0019
     38  CG2      142.3860  150.8480   92.7860 C.3   295  VAL295      0.0019
     39  N        137.6490  147.6120   90.0140 N.3   298  ARG298     -0.1245
     40  CA       137.1900  148.6960   89.1540 C.3   298  ARG298      0.1563
     41  C        137.3040  148.3110   87.6850 C.2   298  ARG298      0.2260
     42  O        138.3880  147.9780   87.1960 O.2   298  ARG298     -0.2867
     43  CB       137.9840  149.9730   89.4280 C.3   298  ARG298      0.0307
     44  CG       137.6940  150.5980   90.7800 C.3   298  ARG298      0.0489
     45  CD       138.4800  151.8810   90.9800 C.3   298  ARG298      0.2205
     46  NE       138.2350  152.4640   92.2940 N.pl3 298  ARG298     -0.0865
     47  CZ       138.8320  153.5630   92.7460 C.cat 298  ARG298      0.5346
     48  NH1      139.7100  154.2030   91.9890 N.pl3 298  ARG298      0.1354
     49  NH2      138.5470  154.0200   93.9570 N.pl3 298  ARG298      0.1354
     50  N        147.2200  159.3740   84.5660 N.3   308  TRP308     -0.1227
     51  CA       147.8320  159.6160   85.8690 C.3   308  TRP308      0.1737
     52  C        148.3920  158.3370   86.4760 C.2   308  TRP308      0.2595
     53  O        149.2840  158.3960   87.3300 O.2   308  TRP308     -0.2718
     54  CB       146.8200  160.2470   86.8210 C.3   308  TRP308      0.0564
     55  CG       147.4020  160.5630   88.1600 C.ar  308  TRP308      0.0003
     56  CD1      148.3710  161.4810   88.4340 C.ar  308  TRP308      0.0946
     57  CD2      147.0670  159.9480   89.4090 C.ar  308  TRP308      0.0152
     58  NE1      148.6540  161.4840   89.7770 N.ar  308  TRP308     -0.2442
     59  CE2      147.8660  160.5520   90.3980 C.ar  308  TRP308      0.0810
     60  CE3      146.1650  158.9520   89.7870 C.ar  308  TRP308      0.0012
     61  CZ2      147.7920  160.1900   91.7400 C.ar  308  TRP308      0.0191
     62  CZ3      146.0920  158.5950   91.1200 C.ar  308  TRP308      0.0001
     63  CH2      146.9000  159.2130   92.0800 C.ar  308  TRP308      0.0015
     64  N        147.8870  157.1820   86.0560 N.am  309  VAL309     -0.1980
     65  CA       148.2840  155.9100   86.6490 C.3   309  VAL309      0.1595
     66  C        149.4280  155.2600   85.8790 C.2   309  VAL309      0.2287
     67  O        150.3650  154.7250   86.4840 O.2   309  VAL309     -0.2864
     68  CB       147.0530  154.9860   86.7350 C.3   309  VAL309      0.0276
     69  CG1      147.4550  153.5930   87.1620 C.3   309  VAL309      0.0022
     70  CG2      146.0410  155.5610   87.7110 C.3   309  VAL309      0.0022
     71  N        153.0980  154.3060   87.5360 N.3   313  PHE313     -0.1241
     72  CA       153.3510  152.9170   87.9060 C.3   313  PHE313      0.1605
     73  C        154.3820  152.2450   87.0100 C.2   313  PHE313      0.2264
     74  O        155.1600  151.4150   87.4990 O.2   313  PHE313     -0.2867
     75  CB       152.0430  152.1270   87.9210 C.3   313  PHE313      0.0534
     76  CG       151.1670  152.4440   89.0990 C.ar  313  PHE313     -0.0203
     77  CD1      151.6760  153.1430   90.1820 C.ar  313  PHE313     -0.0042
     78  CD2      149.8490  152.0390   89.1340 C.ar  313  PHE313     -0.0042
     79  CE1      150.8810  153.4370   91.2710 C.ar  313  PHE313     -0.0003
     80  CE2      149.0510  152.3340   90.2210 C.ar  313  PHE313     -0.0003
     81  CZ       149.5670  153.0310   91.2900 C.ar  313  PHE313     -0.0000
     82  N        144.0330  146.9470   86.1740 N.3   331  TRP331     -0.1241
     83  CA       143.6190  147.2700   87.5350 C.3   331  TRP331      0.1605
     84  C        144.0740  146.2020   88.5210 C.2   331  TRP331      0.2264
     85  O        144.4980  146.5200   89.6420 O.2   331  TRP331     -0.2867
     86  CB       142.1070  147.4600   87.5970 C.3   331  TRP331      0.0550
     87  CG       141.6810  148.7110   86.9250 C.ar  331  TRP331      0.0003
     88  CD1      141.1250  148.8320   85.6890 C.ar  331  TRP331      0.0946
     89  CD2      141.8220  150.0390   87.4350 C.ar  331  TRP331      0.0152
     90  NE1      140.8900  150.1550   85.4040 N.ar  331  TRP331     -0.2442
     91  CE2      141.3130  150.9150   86.4620 C.ar  331  TRP331      0.0810
     92  CE3      142.3240  150.5720   88.6250 C.ar  331  TRP331      0.0012
     93  CZ2      141.2910  152.2910   86.6410 C.ar  331  TRP331      0.0191
     94  CZ3      142.2990  151.9380   88.8020 C.ar  331  TRP331      0.0001
     95  CH2      141.7850  152.7820   87.8160 C.ar  331  TRP331      0.0015
     96  N        147.6270  146.8080   89.2190 N.3   334  VAL334     -0.1245
     97  CA       147.7440  147.9230   90.1560 C.3   334  VAL334      0.1561
     98  C        147.5520  147.4390   91.5880 C.2   334  VAL334      0.2260
     99  O        148.3360  147.7700   92.4910 O.2   334  VAL334     -0.2867
    100  CB       146.7330  149.0260   89.7980 C.3   334  VAL334      0.0252
    101  CG1      146.6440  150.0520   90.9170 C.3   334  VAL334      0.0019
    102  CG2      147.1270  149.6970   88.4960 C.3   334  VAL334      0.0019
    103  N        150.3960  147.5230   94.6250 N.3   338  ILE338     -0.1245
    104  CA       150.2550  148.3280   95.8340 C.3   338  ILE338      0.1561
    105  C        150.2440  147.4450   97.0780 C.2   338  ILE338      0.2260
    106  O        150.8520  147.7930   98.0980 O.2   338  ILE338     -0.2867
    107  CB       149.0140  149.2400   95.7560 C.3   338  ILE338      0.0252
    108  CG1      147.7260  148.4330   95.6630 C.3   338  ILE338      0.0019
    109  CG2      149.1270  150.1930   94.5750 C.3   338  ILE338      0.0019
    110  CD1      146.4940  149.2850   95.8100 C.3   338  ILE338      0.0001
    111  N        152.7410  147.4400  100.3330 N.3   342  PHE342     -0.1241
    112  CA       152.3160  147.4320  101.7280 C.3   342  PHE342      0.1605
    113  C        152.9490  146.2780  102.4880 C.2   342  PHE342      0.2264
    114  O        153.3430  146.4380  103.6430 O.2   342  PHE342     -0.2867
    115  CB       150.7920  147.3740  101.8480 C.3   342  PHE342      0.0534
    116  CG       150.1120  148.6780  101.5670 C.ar  342  PHE342     -0.0203
    117  CD1      150.1720  149.7120  102.4860 C.ar  342  PHE342     -0.0042
    118  CD2      149.3810  148.8610  100.4100 C.ar  342  PHE342     -0.0042
    119  CE1      149.5430  150.9140  102.2360 C.ar  342  PHE342     -0.0003
    120  CE2      148.7490  150.0610  100.1550 C.ar  342  PHE342     -0.0003
    121  CZ       148.8290  151.0890  101.0690 C.ar  342  PHE342     -0.0000
@<TRIPOS>BOND
     1    50    51    1
     2    90    88   ar
     3    90    91   ar
     4    88    87   ar
     5    51    52    1
     6    51    54    1
     7    66    67    2
     8    66    65    1
     9    64    52   am
    10    64    65    1
    11    82    83    1
    12    91    93   ar
    13    91    89   ar
    14    52    53    2
    15    93    95   ar
    16    65    68    1
    17    68    69    1
    18    68    70    1
    19    54    55    1
    20    87    89   ar
    21    87    86    1
    22    73    74    2
    23    73    72    1
    24    42    41    2
    25    89    92   ar
    26    83    86    1
    27    83    84    1
    28    71    72    1
    29    41    40    1
    30    95    94   ar
    31    72    75    1
    32    75    76    1
    33    55    56   ar
    34    55    57   ar
    35    56    58   ar
    36   102   100    1
    37    84    85    2
    38    92    94   ar
    39    76    78   ar
    40    76    77   ar
    41    78    80   ar
    42    40    43    1
    43    40    39    1
    44    96    97    1
    45    57    60   ar
    46    57    59   ar
    47    43    44    1
    48    58    59   ar
    49    60    62   ar
    50   100    97    1
    51   100   101    1
    52    97    98    1
    53    77    79   ar
    54    80    81   ar
    55    59    61   ar
    56    44    45    1
    57    45    46    1
    58    62    63   ar
    59    79    81   ar
    60    98    99    2
    61    35    34    2
    62    61    63   ar
    63    48    47    1
    64    46    47    2
    65    47    49    1
    66    38    36    1
    67    34    33    1
    68    33    36    1
    69    33    32    1
    70    36    37    1
    71   109   107    1
    72   103   104    1
    73   108   107    1
    74   108   110    1
    75   107   104    1
    76   104   105    1
    77   105   106    2
    78    29    28    2
    79    28    27    1
    80    31    30    1
    81    27    30    1
    82    27    26    1
    83   120   118   ar
    84   120   121   ar
    85   111   112    1
    86   118   116   ar
    87   121   119   ar
    88    22    21    2
    89   116   115    1
    90   116   117   ar
    91   112   115    1
    92   112   113    1
    93   119   117   ar
    94    24    23    1
    95   113   114    2
    96    21    20    1
    97    20    23    1
    98    20    19    1
    99    23    25    1
   100    15    14    2
   101    19    14   am
   102    14    13    1
   103    13    12    1
   104    13    16    1
   105    18    16    1
   106    11    10   ar
   107    11     9   ar
   108    16    17    1
   109    10     8   ar
   110     4     3    2
   111     9     7   ar
   112     8     6   ar
   113     3     2    1
   114     7     6   ar
   115     6     5    1
   116     2     5    1
   117     2     1    1
