@<TRIPOS>MOLECULE
tmp/6cnjA02.pdb
 107 99 0 0 0
SMALL
GASTEIGER

@<TRIPOS>ATOM
      1  N        139.9560  115.6050  120.0140 N.3   225  LEU225     -0.1245
      2  CA       140.4970  114.5570  119.1580 C.3   225  LEU225      0.1561
      3  C        139.6580  114.3830  117.8980 C.2   225  LEU225      0.2260
      4  O        140.1720  113.9280  116.8700 O.2   225  LEU225     -0.2867
      5  CB       140.5940  113.2490  119.9430 C.3   225  LEU225      0.0270
      6  CG       141.3190  112.0550  119.3220 C.3   225  LEU225      0.0019
      7  CD1      141.9810  111.2490  120.4190 C.3   225  LEU225      0.0001
      8  CD2      140.3500  111.1790  118.5470 C.3   225  LEU225      0.0001
      9  N        140.5220  117.6560  115.6560 N.3   228  SER228     -0.1202
     10  CA       141.8850  117.6400  115.1440 C.3   228  SER228      0.2020
     11  C        142.0260  116.8030  113.8810 C.2   228  SER228      0.2619
     12  O        143.0510  116.9080  113.2010 O.2   228  SER228     -0.2717
     13  CB       142.8460  117.1220  116.2130 C.3   228  SER228      0.2103
     14  OG       142.5940  115.7600  116.5030 O.3   228  SER228     -0.2182
     15  N        141.0280  115.9870  113.5490 N.am  229  CYS229     -0.1969
     16  CA       141.0400  115.2190  112.3130 C.3   229  CYS229      0.1712
     17  C        140.6510  116.0530  111.1040 C.2   229  CYS229      0.2296
     18  O        140.3540  115.4890  110.0470 O.2   229  CYS229     -0.2864
     19  CB       140.1080  114.0110  112.4300 C.3   229  CYS229      0.0983
     20  SG       140.6350  112.7770  113.6400 S.3   229  CYS229     -0.0798
     21  N        144.4040  117.9660  108.5940 N.3   232  VAL232     -0.1231
     22  CA       144.9060  117.3460  107.3760 C.3   232  VAL232      0.1692
     23  C        143.8210  117.2640  106.3100 C.2   232  VAL232      0.2591
     24  O        144.1310  117.0420  105.1310 O.2   232  VAL232     -0.2718
     25  CB       145.4740  115.9470  107.6820 C.3   232  VAL232      0.0266
     26  CG1      144.3540  114.9830  108.0430 C.3   232  VAL232      0.0020
     27  CG2      146.3070  115.4270  106.5230 C.3   232  VAL232      0.0020
     28  N        142.5610  117.4660  106.6880 N.am  233  LEU233     -0.1980
     29  CA       141.4540  117.3500  105.7500 C.3   233  LEU233      0.1596
     30  C        141.3950  118.5130  104.7680 C.2   233  LEU233      0.2287
     31  O        140.8880  118.3460  103.6540 O.2   233  LEU233     -0.2864
     32  CB       140.1450  117.2340  106.5340 C.3   233  LEU233      0.0297
     33  CG       138.8260  117.0540  105.7920 C.3   233  LEU233      0.0022
     34  CD1      137.9030  116.1860  106.6110 C.3   233  LEU233      0.0001
     35  CD2      138.1860  118.4100  105.5720 C.3   233  LEU233      0.0001
     36  N        142.9530  118.4730  100.8790 N.3   236  TYR236     -0.1241
     37  CA       142.2480  117.7730   99.8130 C.3   236  TYR236      0.1605
     38  C        141.1700  118.6350   99.1700 C.2   236  TYR236      0.2264
     39  O        140.7040  118.3050   98.0750 O.2   236  TYR236     -0.2867
     40  CB       141.6410  116.4880  100.3680 C.3   236  TYR236      0.0534
     41  CG       140.9590  115.6230   99.3430 C.ar  236  TYR236     -0.0201
     42  CD1      141.6980  114.8940   98.4270 C.ar  236  TYR236     -0.0009
     43  CD2      139.5780  115.5150   99.3060 C.ar  236  TYR236     -0.0009
     44  CE1      141.0830  114.0900   97.4930 C.ar  236  TYR236      0.0417
     45  CE2      138.9500  114.7120   98.3770 C.ar  236  TYR236      0.0417
     46  CZ       139.7080  114.0020   97.4720 C.ar  236  TYR236      0.1957
     47  OH       139.0910  113.2010   96.5400 O.3   236  TYR236     -0.2866
     48  N        150.1870  117.7150  123.1460 N.3   279  TYR279     -0.1241
     49  CA       149.5330  117.3360  121.8980 C.3   279  TYR279      0.1605
     50  C        148.8390  118.5290  121.2530 C.2   279  TYR279      0.2264
     51  O        148.9060  118.7120  120.0300 O.2   279  TYR279     -0.2867
     52  CB       148.5320  116.2100  122.1480 C.3   279  TYR279      0.0534
     53  CG       147.8210  115.7460  120.9000 C.ar  279  TYR279     -0.0201
     54  CD1      148.4540  114.9190  119.9870 C.ar  279  TYR279     -0.0009
     55  CD2      146.5210  116.1460  120.6300 C.ar  279  TYR279     -0.0009
     56  CE1      147.8120  114.4960  118.8450 C.ar  279  TYR279      0.0417
     57  CE2      145.8700  115.7290  119.4900 C.ar  279  TYR279      0.0417
     58  CZ       146.5210  114.9040  118.6010 C.ar  279  TYR279      0.1957
     59  OH       145.8800  114.4840  117.4610 O.3   279  TYR279     -0.2866
     60  N        148.8470  118.1240   96.5910 N.3   348  ARG348     -0.1245
     61  CA       148.8720  116.6940   96.8990 C.3   348  ARG348      0.1563
     62  C        150.2080  116.2710   97.5050 C.2   348  ARG348      0.2260
     63  O        150.2440  115.4970   98.4770 O.2   348  ARG348     -0.2867
     64  CB       148.5780  115.8780   95.6410 C.3   348  ARG348      0.0307
     65  CG       147.1880  116.0900   95.0810 C.3   348  ARG348      0.0489
     66  CD       146.1330  115.5090   96.0010 C.3   348  ARG348      0.2205
     67  NE       146.2980  114.0700   96.1630 N.pl3 348  ARG348     -0.0865
     68  CZ       145.7870  113.1650   95.3360 C.cat 348  ARG348      0.5346
     69  NH1      145.0750  113.5490   94.2870 N.pl3 348  ARG348      0.1354
     70  NH2      145.9870  111.8730   95.5580 N.pl3 348  ARG348      0.1354
     71  N        150.1790  117.2180  100.9970 N.3   351  LEU351     -0.1245
     72  CA       149.2310  116.4540  101.8050 C.3   351  LEU351      0.1561
     73  C        149.8180  115.1140  102.2230 C.2   351  LEU351      0.2260
     74  O        149.6110  114.6660  103.3590 O.2   351  LEU351     -0.2867
     75  CB       147.9240  116.2450  101.0340 C.3   351  LEU351      0.0270
     76  CG       146.7120  115.6470  101.7650 C.3   351  LEU351      0.0019
     77  CD1      145.4180  116.1070  101.1140 C.3   351  LEU351      0.0001
     78  CD2      146.7460  114.1250  101.8130 C.3   351  LEU351      0.0001
     79  N        150.1400  114.1930  106.2130 N.3   355  ILE355     -0.1245
     80  CA       149.4410  113.0960  106.8790 C.3   355  ILE355      0.1561
     81  C        150.4340  112.0960  107.4610 C.2   355  ILE355      0.2260
     82  O        150.2030  111.5510  108.5500 O.2   355  ILE355     -0.2867
     83  CB       148.4310  112.4150  105.9320 C.3   355  ILE355      0.0252
     84  CG1      147.5680  111.4170  106.7050 C.3   355  ILE355      0.0019
     85  CG2      149.1220  111.7140  104.7830 C.3   355  ILE355      0.0019
     86  CD1      146.6950  112.0490  107.7550 C.3   355  ILE355      0.0001
     87  N        151.6140  113.6900  110.7120 N.3   358  CYS358     -0.1221
     88  CA       150.5820  113.6870  111.7460 C.3   358  CYS358      0.1808
     89  C        150.3920  112.2970  112.3400 C.2   358  CYS358      0.2601
     90  O        150.2990  112.1450  113.5660 O.2   358  CYS358     -0.2717
     91  CB       149.2630  114.2090  111.1780 C.3   358  CYS358      0.0970
     92  SG       147.9200  114.3060  112.3840 S.3   358  CYS358     -0.0800
     93  N        150.3320  111.2690  111.4890 N.am  359  LEU359     -0.1979
     94  CA       150.1410  109.9200  112.0070 C.3   359  LEU359      0.1596
     95  C        151.3450  109.4610  112.8220 C.2   359  LEU359      0.2287
     96  O        151.1730  108.8610  113.8920 O.2   359  LEU359     -0.2864
     97  CB       149.8510  108.9560  110.8550 C.3   359  LEU359      0.0297
     98  CG       149.3540  107.5450  111.1840 C.3   359  LEU359      0.0022
     99  CD1      148.4440  107.0440  110.0760 C.3   359  LEU359      0.0001
    100  CD2      150.5100  106.5780  111.3860 C.3   359  LEU359      0.0001
    101  N        151.1070  111.2320  116.2690 N.3   362  THR362     -0.1218
    102  CA       150.0950  110.6550  117.1480 C.3   362  THR362      0.1862
    103  C        150.4830  109.2570  117.6110 C.2   362  THR362      0.2287
    104  O        150.0370  108.8120  118.6740 O.2   362  THR362     -0.2866
    105  CB       148.7370  110.6230  116.4520 C.3   362  THR362      0.1770
    106  OG1      148.8300  109.8470  115.2510 O.3   362  THR362     -0.2211
    107  CG2      148.2820  112.0310  116.1130 C.3   362  THR362      0.0375
@<TRIPOS>BOND
     1    69    68    1
     2    65    64    1
     3    65    66    1
     4    68    70    1
     5    68    67    2
     6    64    61    1
     7    66    67    1
     8    47    46    1
     9    60    61    1
    10    61    62    1
    11    46    44   ar
    12    46    45   ar
    13    44    42   ar
    14    62    63    2
    15    39    38    2
    16    45    43   ar
    17    42    41   ar
    18    38    37    1
    19    43    41   ar
    20    41    40    1
    21    37    40    1
    22    37    36    1
    23    71    72    1
    24    75    76    1
    25    75    72    1
    26    77    76    1
    27    76    78    1
    28    72    73    1
    29    73    74    2
    30    31    30    2
    31    30    29    1
    32    85    83    1
    33    24    23    2
    34    35    33    1
    35    29    32    1
    36    29    28    1
    37    33    32    1
    38    33    34    1
    39    83    84    1
    40    83    80    1
    41    79    80    1
    42    23    28   am
    43    23    22    1
    44    27    25    1
    45    84    86    1
    46    80    81    1
    47    22    25    1
    48    22    21    1
    49    81    82    2
    50    25    26    1
    51    18    17    2
    52    99    98    1
    53    87    88    1
    54    97    98    1
    55    97    94    1
    56    17    16    1
    57    91    88    1
    58    91    92    1
    59    98   100    1
    60    93    94    1
    61    93    89   am
    62    88    89    1
    63    94    95    1
    64    16    19    1
    65    16    15    1
    66    89    90    2
    67    19    20    1
    68    95    96    2
    69    12    11    2
    70    15    11   am
    71    11    10    1
    72    10     9    1
    73    10    13    1
    74   106   105    1
    75   107   105    1
    76    13    14    1
    77   101   102    1
    78   105   102    1
    79     4     3    2
    80   102   103    1
    81    59    58    1
    82   103   104    2
    83     3     2    1
    84     8     6    1
    85    58    56   ar
    86    58    57   ar
    87    56    54   ar
    88     2     5    1
    89     2     1    1
    90     6     5    1
    91     6     7    1
    92    57    55   ar
    93    54    53   ar
    94    51    50    2
    95    55    53   ar
    96    53    52    1
    97    50    49    1
    98    49    52    1
    99    49    48    1
