@<TRIPOS>MOLECULE
tmp/6cnjC02.pdb
 121 117 0 0 0
SMALL
GASTEIGER

@<TRIPOS>ATOM
      1  N        121.6620  149.9300  111.0290 N.3   284  PHE284     -0.1241
      2  CA       121.1210  150.5790  109.8400 C.3   284  PHE284      0.1605
      3  C        122.0280  150.3320  108.6360 C.2   284  PHE284      0.2264
      4  O        121.5580  150.1990  107.4930 O.2   284  PHE284     -0.2867
      5  CB       120.9560  152.0740  110.1100 C.3   284  PHE284      0.0534
      6  CG       120.2350  152.8130  109.0290 C.ar  284  PHE284     -0.0203
      7  CD1      118.8590  152.7310  108.9210 C.ar  284  PHE284     -0.0042
      8  CD2      120.9280  153.6010  108.1280 C.ar  284  PHE284     -0.0042
      9  CE1      118.1870  153.4160  107.9320 C.ar  284  PHE284     -0.0003
     10  CE2      120.2640  154.2880  107.1360 C.ar  284  PHE284     -0.0003
     11  CZ       118.8910  154.1960  107.0360 C.ar  284  PHE284     -0.0000
     12  N        121.2620  146.9370  106.8440 N.3   287  VAL287     -0.1231
     13  CA       120.0910  146.8780  105.9770 C.3   287  VAL287      0.1692
     14  C        120.3190  147.6950  104.7120 C.2   287  VAL287      0.2592
     15  O        119.9260  147.2820  103.6110 O.2   287  VAL287     -0.2718
     16  CB       118.8220  147.3110  106.7350 C.3   287  VAL287      0.0266
     17  CG1      118.9180  148.7410  107.2100 C.3   287  VAL287      0.0020
     18  CG2      117.6080  147.1410  105.8500 C.3   287  VAL287      0.0020
     19  N        120.9900  148.8460  104.8210 N.am  288  THR288     -0.1953
     20  CA       121.2860  149.5560  103.5820 C.3   288  THR288      0.1897
     21  C        122.2770  148.7780  102.7190 C.2   288  THR288      0.2313
     22  O        122.2150  148.8510  101.4840 O.2   288  THR288     -0.2863
     23  CB       121.7960  150.9670  103.8690 C.3   288  THR288      0.1794
     24  OG1      121.9120  151.6770  102.6360 O.3   288  THR288     -0.2208
     25  CG2      123.1430  150.9330  104.5280 C.3   288  THR288      0.0378
     26  N        120.3800  146.0980  100.9140 N.3   291  CYS291     -0.1235
     27  CA       119.5900  146.7160   99.8540 C.3   291  CYS291      0.1677
     28  C        120.4540  147.0370   98.6370 C.2   291  CYS291      0.2270
     29  O        120.0670  146.7500   97.4940 O.2   291  CYS291     -0.2867
     30  CB       118.9050  147.9750  100.3790 C.3   291  CYS291      0.0956
     31  SG       117.8320  148.7830   99.1810 S.3   291  CYS291     -0.0801
     32  N        120.1320  145.4530   94.8270 N.3   295  VAL295     -0.1245
     33  CA       119.9960  146.2280   93.5980 C.3   295  VAL295      0.1561
     34  C        121.2360  146.1040   92.7230 C.2   295  VAL295      0.2260
     35  O        121.2160  146.5300   91.5650 O.2   295  VAL295     -0.2867
     36  CB       119.6900  147.7100   93.8820 C.3   295  VAL295      0.0252
     37  CG1      118.4070  147.8440   94.6880 C.3   295  VAL295      0.0019
     38  CG2      120.8560  148.3790   94.5780 C.3   295  VAL295      0.0019
     39  N        121.0980  142.5940   90.3800 N.3   298  ARG298     -0.1245
     40  CA       119.9170  142.5610   89.5300 C.3   298  ARG298      0.1563
     41  C        120.3140  142.3930   88.0680 C.2   298  ARG298      0.2260
     42  O        121.2960  142.9700   87.5950 O.2   298  ARG298     -0.2867
     43  CB       119.1040  143.8400   89.7190 C.3   298  ARG298      0.0307
     44  CG       117.8090  143.8830   88.9410 C.3   298  ARG298      0.0489
     45  CD       117.0310  145.1310   89.2920 C.3   298  ARG298      0.2205
     46  NE       116.5360  145.0910   90.6630 N.pl3 298  ARG298     -0.0865
     47  CZ       115.9730  146.1240   91.2780 C.cat 298  ARG298      0.5346
     48  NH1      115.8310  147.2780   90.6400 N.pl3 298  ARG298      0.1354
     49  NH2      115.5490  146.0040   92.5280 N.pl3 298  ARG298      0.1354
     50  N        112.3370  155.8620   84.9230 N.3   308  TRP308     -0.1227
     51  CA       112.2010  156.4860   86.2340 C.3   308  TRP308      0.1737
     52  C        113.5580  156.6700   86.9050 C.2   308  TRP308      0.2595
     53  O        113.7340  157.5800   87.7220 O.2   308  TRP308     -0.2718
     54  CB       111.2790  155.6550   87.1210 C.3   308  TRP308      0.0564
     55  CG       111.0980  156.2430   88.4790 C.ar  308  TRP308      0.0003
     56  CD1      110.4670  157.4120   88.7900 C.ar  308  TRP308      0.0946
     57  CD2      111.5770  155.7030   89.7150 C.ar  308  TRP308      0.0152
     58  NE1      110.5130  157.6280   90.1460 N.ar  308  TRP308     -0.2442
     59  CE2      111.1890  156.5920   90.7350 C.ar  308  TRP308      0.0810
     60  CE3      112.2890  154.5520   90.0580 C.ar  308  TRP308      0.0012
     61  CZ2      111.4910  156.3660   92.0760 C.ar  308  TRP308      0.0191
     62  CZ3      112.5870  154.3290   91.3860 C.ar  308  TRP308      0.0001
     63  CH2      112.1900  155.2300   92.3790 C.ar  308  TRP308      0.0015
     64  N        114.5230  155.8100   86.5790 N.am  309  VAL309     -0.1980
     65  CA       115.8300  155.8560   87.2270 C.3   309  VAL309      0.1595
     66  C        116.8290  156.6740   86.4140 C.2   309  VAL309      0.2287
     67  O        117.6880  157.3640   86.9900 O.2   309  VAL309     -0.2864
     68  CB       116.3360  154.4220   87.4560 C.3   309  VAL309      0.0276
     69  CG1      117.7260  154.4270   88.0570 C.3   309  VAL309      0.0022
     70  CG2      115.3700  153.6590   88.3410 C.3   309  VAL309      0.0022
     71  N        118.9780  159.6300   88.4320 N.3   313  PHE313     -0.1241
     72  CA       120.3370  159.3480   88.8740 C.3   313  PHE313      0.1605
     73  C        121.3910  159.9960   87.9830 C.2   313  PHE313      0.2264
     74  O        122.4630  160.3550   88.4810 O.2   313  PHE313     -0.2867
     75  CB       120.5650  157.8420   88.9880 C.3   313  PHE313      0.0534
     76  CG       119.9640  157.2380   90.2250 C.ar  313  PHE313     -0.0203
     77  CD1      119.5200  158.0510   91.2550 C.ar  313  PHE313     -0.0042
     78  CD2      119.8640  155.8680   90.3730 C.ar  313  PHE313     -0.0042
     79  CE1      118.9730  157.5090   92.4000 C.ar  313  PHE313     -0.0003
     80  CE2      119.3150  155.3200   91.5170 C.ar  313  PHE313     -0.0003
     81  CZ       118.8710  156.1410   92.5320 C.ar  313  PHE313     -0.0000
     82  N        123.3670  148.9930   85.8040 N.3   331  TRP331     -0.1241
     83  CA       122.8480  148.6610   87.1280 C.3   331  TRP331      0.1605
     84  C        123.9480  148.6850   88.1780 C.2   331  TRP331      0.2264
     85  O        123.7300  149.1450   89.3040 O.2   331  TRP331     -0.2867
     86  CB       122.1650  147.2950   87.1160 C.3   331  TRP331      0.0550
     87  CG       120.8450  147.3050   86.4400 C.ar  331  TRP331      0.0003
     88  CD1      120.5600  146.8540   85.1890 C.ar  331  TRP331      0.0946
     89  CD2      119.6230  147.8210   86.9720 C.ar  331  TRP331      0.0152
     90  NE1      119.2290  147.0420   84.9120 N.ar  331  TRP331     -0.2442
     91  CE2      118.6320  147.6370   85.9920 C.ar  331  TRP331      0.0810
     92  CE3      119.2690  148.4150   88.1850 C.ar  331  TRP331      0.0012
     93  CZ2      117.3130  148.0270   86.1860 C.ar  331  TRP331      0.0191
     94  CZ3      117.9590  148.8010   88.3760 C.ar  331  TRP331      0.0001
     95  CH2      116.9970  148.6060   87.3820 C.ar  331  TRP331      0.0015
     96  N        124.6300  152.2390   89.0070 N.3   334  VAL334     -0.1245
     97  CA       123.5600  152.7150   89.8790 C.3   334  VAL334      0.1561
     98  C        123.7950  152.2590   91.3110 C.2   334  VAL334      0.2260
     99  O        123.6440  153.0390   92.2600 O.2   334  VAL334     -0.2867
    100  CB       122.1930  152.2380   89.3560 C.3   334  VAL334      0.0252
    101  CG1      121.1040  152.5190   90.3780 C.3   334  VAL334      0.0019
    102  CG2      121.8700  152.9200   88.0420 C.3   334  VAL334      0.0019
    103  N        124.6280  155.0180   94.8780 N.3   338  ILE338     -0.1245
    104  CA       123.8640  155.2490   96.0970 C.3   338  ILE338      0.1561
    105  C        124.6840  154.8910   97.3300 C.2   338  ILE338      0.2260
    106  O        124.5220  155.5140   98.3860 O.2   338  ILE338     -0.2867
    107  CB       122.5130  154.5050   96.0490 C.3   338  ILE338      0.0252
    108  CG1      122.6850  152.9890   95.9800 C.3   338  ILE338      0.0019
    109  CG2      121.7120  154.9650   94.8500 C.3   338  ILE338      0.0019
    110  CD1      122.6850  152.3080   97.3280 C.3   338  ILE338      0.0001
    111  N        125.5190  157.2740  100.4730 N.3   342  PHE342     -0.1241
    112  CA       125.3290  156.9520  101.8820 C.3   342  PHE342      0.1605
    113  C        126.6100  157.1460  102.6760 C.2   342  PHE342      0.2264
    114  O        126.5690  157.6670  103.7930 O.2   342  PHE342     -0.2867
    115  CB       124.8230  155.5240  102.0330 C.3   342  PHE342      0.0534
    116  CG       123.3960  155.3540  101.6380 C.ar  342  PHE342     -0.0203
    117  CD1      122.5380  156.4370  101.6290 C.ar  342  PHE342     -0.0042
    118  CD2      122.9210  154.1250  101.2300 C.ar  342  PHE342     -0.0042
    119  CE1      121.2230  156.2870  101.2540 C.ar  342  PHE342     -0.0003
    120  CE2      121.6060  153.9720  100.8460 C.ar  342  PHE342     -0.0003
    121  CZ       120.7580  155.0540  100.8610 C.ar  342  PHE342     -0.0000
@<TRIPOS>BOND
     1    90    88   ar
     2    90    91   ar
     3    50    51    1
     4    88    87   ar
     5    82    83    1
     6    91    93   ar
     7    91    89   ar
     8    93    95   ar
     9    51    52    1
    10    51    54    1
    11    66    67    2
    12    66    65    1
    13    87    89   ar
    14    87    86    1
    15    64    52   am
    16    64    65    1
    17    52    53    2
    18    89    92   ar
    19    86    83    1
    20    54    55    1
    21    83    84    1
    22    65    68    1
    23    95    94   ar
    24    68    69    1
    25    68    70    1
    26    42    41    2
    27    73    74    2
    28    73    72    1
    29   102   100    1
    30    41    40    1
    31    84    85    2
    32    92    94   ar
    33    71    72    1
    34    55    56   ar
    35    55    57   ar
    36    56    58   ar
    37    72    75    1
    38    44    45    1
    39    44    43    1
    40    75    76    1
    41    96    97    1
    42    45    46    1
    43   100    97    1
    44   100   101    1
    45    40    43    1
    46    40    39    1
    47    57    60   ar
    48    57    59   ar
    49    97    98    1
    50    60    62   ar
    51    58    59   ar
    52    76    78   ar
    53    76    77   ar
    54    78    80   ar
    55    48    47    1
    56    46    47    2
    57    59    61   ar
    58    77    79   ar
    59    47    49    1
    60    98    99    2
    61    62    63   ar
    62    80    81   ar
    63    35    34    2
    64    61    63   ar
    65    79    81   ar
    66    34    33    1
    67    33    36    1
    68    33    32    1
    69    36    38    1
    70    36    37    1
    71   109   107    1
    72   103   104    1
    73   108   107    1
    74   108   110    1
    75   107   104    1
    76   104   105    1
    77   105   106    2
    78    29    28    2
    79    28    27    1
    80    31    30    1
    81    27    30    1
    82    27    26    1
    83   111   112    1
    84   120   121   ar
    85   120   118   ar
    86   121   119   ar
    87   118   116   ar
    88   119   117   ar
    89    22    21    2
    90   117   116   ar
    91   116   115    1
    92   112   115    1
    93   112   113    1
    94    24    23    1
    95   113   114    2
    96    21    20    1
    97    20    23    1
    98    20    19    1
    99    15    14    2
   100    23    25    1
   101    14    19   am
   102    14    13    1
   103    18    16    1
   104    13    16    1
   105    13    12    1
   106    16    17    1
   107    11    10   ar
   108    11     9   ar
   109    10     8   ar
   110     4     3    2
   111     9     7   ar
   112     8     6   ar
   113     3     2    1
   114     7     6   ar
   115     6     5    1
   116     2     5    1
   117     2     1    1
