@<TRIPOS>MOLECULE
tmp/6cnkE02.pdb
 128 124 0 0 0
SMALL
GASTEIGER

@<TRIPOS>ATOM
      1  N        145.6010  149.8720  111.7510 N.3   284  PHE284     -0.1241
      2  CA       146.1230  150.5830  110.5920 C.3   284  PHE284      0.1605
      3  C        146.1770  149.6560  109.3820 C.2   284  PHE284      0.2264
      4  O        145.8930  150.0670  108.2480 O.2   284  PHE284     -0.2867
      5  CB       147.5010  151.1530  110.9200 C.3   284  PHE284      0.0534
      6  CG       148.1040  151.9620  109.8190 C.ar  284  PHE284     -0.0203
      7  CD1      147.6430  153.2370  109.5460 C.ar  284  PHE284     -0.0042
      8  CD2      149.1450  151.4580  109.0680 C.ar  284  PHE284     -0.0042
      9  CE1      148.2060  153.9870  108.5340 C.ar  284  PHE284     -0.0003
     10  CE2      149.7110  152.2010  108.0580 C.ar  284  PHE284     -0.0003
     11  CZ       149.2430  153.4670  107.7880 C.ar  284  PHE284     -0.0000
     12  N        142.5550  149.3350  107.9350 N.3   287  VAL287     -0.1231
     13  CA       142.0820  150.5070  107.1990 C.3   287  VAL287      0.1692
     14  C        142.8120  150.6300  105.8620 C.2   287  VAL287      0.2592
     15  O        142.1880  150.8790  104.8190 O.2   287  VAL287     -0.2718
     16  CB       142.1950  151.7890  108.0460 C.3   287  VAL287      0.0266
     17  CG1      143.6170  152.0730  108.4420 C.3   287  VAL287      0.0020
     18  CG2      141.6400  152.9700  107.2730 C.3   287  VAL287      0.0020
     19  N        144.1310  150.4150  105.8490 N.am  288  THR288     -0.1953
     20  CA       144.8360  150.5310  104.5770 C.3   288  THR288      0.1897
     21  C        144.4840  149.3840  103.6380 C.2   288  THR288      0.2313
     22  O        144.5120  149.5540  102.4120 O.2   288  THR288     -0.2863
     23  CB       146.3430  150.6040  104.8050 C.3   288  THR288      0.1794
     24  OG1      146.9890  150.9360  103.5740 O.3   288  THR288     -0.2208
     25  CG2      146.8780  149.2840  105.2910 C.3   288  THR288      0.0378
     26  N        141.3670  150.3640  101.9740 N.3   291  CYS291     -0.1221
     27  CA       141.6930  151.3540  100.9500 C.3   291  CYS291      0.1808
     28  C        142.1910  150.6880   99.6650 C.2   291  CYS291      0.2601
     29  O        141.7040  150.9840   98.5620 O.2   291  CYS291     -0.2717
     30  CB       142.7340  152.3350  101.4850 C.3   291  CYS291      0.0970
     31  SG       143.1950  153.6250  100.3150 S.3   291  CYS291     -0.0800
     32  N        143.1750  149.7920   99.7890 N.am  292  VAL292     -0.1979
     33  CA       143.7120  149.1480   98.5910 C.3   292  VAL292      0.1595
     34  C        142.6620  148.2560   97.9410 C.2   292  VAL292      0.2287
     35  O        142.6230  148.1230   96.7120 O.2   292  VAL292     -0.2864
     36  CB       145.0020  148.3690   98.9100 C.3   292  VAL292      0.0276
     37  CG1      144.7340  147.2320   99.8630 C.3   292  VAL292      0.0022
     38  CG2      145.6150  147.8290   97.6340 C.3   292  VAL292      0.0022
     39  N        140.5680  150.5870   95.7950 N.3   295  VAL295     -0.1245
     40  CA       141.2130  151.0170   94.5560 C.3   295  VAL295      0.1561
     41  C        141.3110  149.8520   93.5780 C.2   295  VAL295      0.2260
     42  O        141.3460  150.0490   92.3580 O.2   295  VAL295     -0.2867
     43  CB       142.5920  151.6430   94.8340 C.3   295  VAL295      0.0252
     44  CG1      143.5910  150.5900   95.2530 C.3   295  VAL295      0.0019
     45  CG2      143.0890  152.3970   93.6100 C.3   295  VAL295      0.0019
     46  N        138.2270  149.1450   90.9010 N.3   298  ARG298     -0.1245
     47  CA       137.8140  150.2500   90.0440 C.3   298  ARG298      0.1563
     48  C        137.8100  149.8420   88.5770 C.2   298  ARG298      0.2260
     49  O        138.7180  149.1590   88.0990 O.2   298  ARG298     -0.2867
     50  CB       138.7310  151.4570   90.2490 C.3   298  ARG298      0.0307
     51  CG       138.5560  152.1250   91.5980 C.3   298  ARG298      0.0489
     52  CD       139.4710  153.3250   91.7510 C.3   298  ARG298      0.2205
     53  NE       139.3320  153.9300   93.0720 N.pl3 298  ARG298     -0.0865
     54  CZ       140.0660  154.9440   93.5090 C.cat 298  ARG298      0.5346
     55  NH1      140.9990  155.4730   92.7280 N.pl3 298  ARG298      0.1354
     56  NH2      139.8740  155.4300   94.7270 N.pl3 298  ARG298      0.1354
     57  N        148.3650  161.5510   86.5670 N.3   308  TRP308     -0.1227
     58  CA       149.1240  161.5230   87.8100 C.3   308  TRP308      0.1737
     59  C        149.6420  160.1210   88.1100 C.2   308  TRP308      0.2595
     60  O        150.8420  159.9280   88.3480 O.2   308  TRP308     -0.2718
     61  CB       148.2490  162.0400   88.9490 C.3   308  TRP308      0.0564
     62  CG       148.9310  162.1070   90.2660 C.ar  308  TRP308      0.0003
     63  CD1      150.0090  162.8720   90.5910 C.ar  308  TRP308      0.0946
     64  CD2      148.5660  161.4010   91.4530 C.ar  308  TRP308      0.0152
     65  NE1      150.3470  162.6770   91.9070 N.ar  308  TRP308     -0.2442
     66  CE2      149.4740  161.7770   92.4590 C.ar  308  TRP308      0.0810
     67  CE3      147.5600  160.4820   91.7630 C.ar  308  TRP308      0.0012
     68  CZ2      149.4090  161.2670   93.7510 C.ar  308  TRP308      0.0191
     69  CZ3      147.4970  159.9770   93.0440 C.ar  308  TRP308      0.0001
     70  CH2      148.4150  160.3700   94.0230 C.ar  308  TRP308      0.0015
     71  N        148.7530  159.1280   88.0790 N.am  309  VAL309     -0.1980
     72  CA       149.1130  157.7800   88.5090 C.3   309  VAL309      0.1595
     73  C        150.0820  157.1370   87.5230 C.2   309  VAL309      0.2287
     74  O        151.1110  156.5730   87.9220 O.2   309  VAL309     -0.2864
     75  CB       147.8480  156.9240   88.6920 C.3   309  VAL309      0.0276
     76  CG1      148.2230  155.4860   88.9830 C.3   309  VAL309      0.0022
     77  CG2      146.9930  157.4880   89.8130 C.3   309  VAL309      0.0022
     78  N        153.3200  155.9940   89.8190 N.3   313  PHE313     -0.1241
     79  CA       153.5220  154.6110   90.2380 C.3   313  PHE313      0.1605
     80  C        154.4550  153.8530   89.3040 C.2   313  PHE313      0.2264
     81  O        155.2310  153.0040   89.7640 O.2   313  PHE313     -0.2867
     82  CB       152.1760  153.9070   90.3740 C.3   313  PHE313      0.0534
     83  CG       151.3940  154.3600   91.5680 C.ar  313  PHE313     -0.0203
     84  CD1      152.0220  155.0460   92.5920 C.ar  313  PHE313     -0.0042
     85  CD2      150.0390  154.1160   91.6670 C.ar  313  PHE313     -0.0042
     86  CE1      151.3180  155.4730   93.6970 C.ar  313  PHE313     -0.0003
     87  CE2      149.3290  154.5450   92.7720 C.ar  313  PHE313     -0.0003
     88  CZ       149.9690  155.2220   93.7870 C.ar  313  PHE313     -0.0000
     89  N        145.0200  149.0170   87.0690 N.3   331  TRP331     -0.1241
     90  CA       144.6040  149.3320   88.4320 C.3   331  TRP331      0.1605
     91  C        144.9460  148.1990   89.3900 C.2   331  TRP331      0.2264
     92  O        145.3330  148.4440   90.5400 O.2   331  TRP331     -0.2867
     93  CB       143.1100  149.6430   88.4770 C.3   331  TRP331      0.0550
     94  CG       142.7720  150.9540   87.8650 C.ar  331  TRP331      0.0003
     95  CD1      142.2470  151.1710   86.6290 C.ar  331  TRP331      0.0946
     96  CD2      142.9640  152.2430   88.4520 C.ar  331  TRP331      0.0152
     97  NE1      142.0830  152.5160   86.4140 N.ar  331  TRP331     -0.2442
     98  CE2      142.5200  153.1960   87.5200 C.ar  331  TRP331      0.0810
     99  CE3      143.4640  152.6820   89.6780 C.ar  331  TRP331      0.0012
    100  CZ2      142.5610  154.5610   87.7740 C.ar  331  TRP331      0.0191
    101  CZ3      143.5020  154.0370   89.9300 C.ar  331  TRP331      0.0001
    102  CH2      143.0540  154.9600   88.9830 C.ar  331  TRP331      0.0015
    103  N        148.4070  148.6030   90.1820 N.3   334  VAL334     -0.1245
    104  CA       148.5320  149.6890   91.1500 C.3   334  VAL334      0.1561
    105  C        148.3140  149.1730   92.5640 C.2   334  VAL334      0.2260
    106  O        149.0810  149.4800   93.4880 O.2   334  VAL334     -0.2867
    107  CB       147.5430  150.8160   90.8090 C.3   334  VAL334      0.0252
    108  CG1      147.4430  151.7920   91.9570 C.3   334  VAL334      0.0019
    109  CG2      147.9810  151.5310   89.5460 C.3   334  VAL334      0.0019
    110  N        151.0540  149.1810   95.6420 N.3   338  ILE338     -0.1245
    111  CA       150.8550  149.9440   96.8690 C.3   338  ILE338      0.1561
    112  C        150.8540  149.0230   98.0850 C.2   338  ILE338      0.2260
    113  O        151.4300  149.3570   99.1310 O.2   338  ILE338     -0.2867
    114  CB       149.5760  150.7990   96.7790 C.3   338  ILE338      0.0252
    115  CG1      149.5010  151.7720   97.9510 C.3   338  ILE338      0.0019
    116  CG2      148.3360  149.9500   96.7430 C.3   338  ILE338      0.0019
    117  CD1      148.4300  152.8130   97.7890 C.3   338  ILE338      0.0001
    118  N        153.3670  148.8690  101.3730 N.3   342  PHE342     -0.1241
    119  CA       152.9440  148.7920  102.7550 C.3   342  PHE342      0.1605
    120  C        153.6130  147.6140  103.4350 C.2   342  PHE342      0.2264
    121  O        154.0810  147.7300  104.5640 O.2   342  PHE342     -0.2867
    122  CB       151.4270  148.6680  102.8540 C.3   342  PHE342      0.0534
    123  CG       150.7310  149.9720  103.0980 C.ar  342  PHE342     -0.0203
    124  CD1      150.7130  150.9550  102.1270 C.ar  342  PHE342     -0.0042
    125  CD2      150.1040  150.2180  104.3040 C.ar  342  PHE342     -0.0042
    126  CE1      150.0760  152.1600  102.3510 C.ar  342  PHE342     -0.0003
    127  CE2      149.4620  151.4180  104.5360 C.ar  342  PHE342     -0.0003
    128  CZ       149.4480  152.3920  103.5580 C.ar  342  PHE342     -0.0000
@<TRIPOS>BOND
     1    97    95   ar
     2    97    98   ar
     3    57    58    1
     4    95    94   ar
     5    89    90    1
     6    98   100   ar
     7    98    96   ar
     8    73    74    2
     9    73    72    1
    10   100   102   ar
    11    58    59    1
    12    58    61    1
    13    94    96   ar
    14    94    93    1
    15    71    59   am
    16    71    72    1
    17    49    48    2
    18    59    60    2
    19    90    93    1
    20    90    91    1
    21    96    99   ar
    22    72    75    1
    23    48    47    1
    24    75    76    1
    25    75    77    1
    26    61    62    1
    27   102   101   ar
    28    80    81    2
    29    80    79    1
    30    91    92    2
    31   109   107    1
    32    99   101   ar
    33    78    79    1
    34    47    50    1
    35    47    46    1
    36   103   104    1
    37    79    82    1
    38    50    51    1
    39    62    63   ar
    40    62    64   ar
    41    82    83    1
    42    63    65   ar
    43   107   104    1
    44   107   108    1
    45   104   105    1
    46    64    67   ar
    47    64    66   ar
    48    83    85   ar
    49    83    84   ar
    50    51    52    1
    51    85    87   ar
    52    52    53    1
    53    67    69   ar
    54    65    66   ar
    55    42    41    2
    56    66    68   ar
    57   105   106    2
    58    84    86   ar
    59    55    54    1
    60    87    88   ar
    61    69    70   ar
    62    53    54    2
    63    54    56    1
    64    41    40    1
    65    45    43    1
    66    86    88   ar
    67    68    70   ar
    68    40    43    1
    69    40    39    1
    70    43    44    1
    71   110   111    1
    72    35    34    2
    73   116   114    1
    74   114   111    1
    75   114   115    1
    76   111   112    1
    77    38    36    1
    78   117   115    1
    79    34    33    1
    80   112   113    2
    81    29    28    2
    82    33    36    1
    83    33    32    1
    84    36    37    1
    85    28    32   am
    86    28    27    1
    87    31    30    1
    88    27    30    1
    89    27    26    1
    90   118   119    1
    91   124   126   ar
    92   124   123   ar
    93   126   128   ar
    94    22    21    2
    95   119   122    1
    96   119   120    1
    97   122   123    1
    98   123   125   ar
    99   120   121    2
   100   128   127   ar
   101    24    23    1
   102    21    20    1
   103   125   127   ar
   104    20    23    1
   105    20    19    1
   106    23    25    1
   107    15    14    2
   108    19    14   am
   109    14    13    1
   110    13    12    1
   111    13    16    1
   112    18    16    1
   113    11    10   ar
   114    11     9   ar
   115    16    17    1
   116    10     8   ar
   117     4     3    2
   118     9     7   ar
   119     8     6   ar
   120     3     2    1
   121     7     6   ar
   122     6     5    1
   123     2     5    1
   124     2     1    1
