@<TRIPOS>MOLECULE
tmp/6cnnA01.pdb
 134 127 0 0 0
SMALL
GASTEIGER

@<TRIPOS>ATOM
      1  N        181.4920  142.2470  185.1900 N.3   118  PHE118     -0.1227
      2  CA       181.4270  143.1700  184.0720 C.3   118  PHE118      0.1736
      3  C        182.7170  143.1340  183.2630 C.2   118  PHE118      0.2595
      4  O        183.7780  142.7420  183.7490 O.2   118  PHE118     -0.2718
      5  CB       181.1900  144.5980  184.5580 C.3   118  PHE118      0.0547
      6  CG       179.8040  144.8540  185.0590 C.ar  118  PHE118     -0.0202
      7  CD1      178.7890  145.1600  184.1740 C.ar  118  PHE118     -0.0042
      8  CD2      179.5170  144.8010  186.4100 C.ar  118  PHE118     -0.0042
      9  CE1      177.5190  145.4040  184.6210 C.ar  118  PHE118     -0.0003
     10  CE2      178.2430  145.0440  186.8650 C.ar  118  PHE118     -0.0003
     11  CZ       177.2430  145.3450  185.9680 C.ar  118  PHE118     -0.0000
     12  N        182.6120  143.5620  182.0120 N.am  119  LEU119     -0.1966
     13  CA       183.7780  143.8160  181.1860 C.3   119  LEU119      0.1728
     14  C        184.4780  145.0950  181.6310 C.2   119  LEU119      0.2617
     15  O        183.9970  145.8380  182.4870 O.2   119  LEU119     -0.2715
     16  CB       183.3760  143.9310  179.7200 C.3   119  LEU119      0.0311
     17  CG       182.9920  142.6620  178.9750 C.3   119  LEU119      0.0022
     18  CD1      182.3100  143.0230  177.6810 C.3   119  LEU119      0.0001
     19  CD2      184.2450  141.8890  178.6810 C.3   119  LEU119      0.0001
     20  N        185.6310  145.3510  181.0370 N.am  120  GLY120     -0.1940
     21  CA       186.2950  146.6180  181.2400 C.3   120  GLY120      0.2014
     22  C        185.6970  147.7090  180.3780 C.2   120  GLY120      0.2638
     23  O        184.7280  147.5120  179.6520 O.2   120  GLY120     -0.2714
     24  N        186.2960  148.8940  180.4620 N.am  121  GLN121     -0.1977
     25  CA       185.8570  149.9840  179.5980 C.3   121  GLN121      0.1601
     26  C        186.5090  149.8760  178.2250 C.2   121  GLN121      0.2287
     27  O        185.9410  150.3200  177.2210 O.2   121  GLN121     -0.2864
     28  CB       186.1720  151.3270  180.2580 C.3   121  GLN121      0.0394
     29  CG       185.5600  152.5430  179.5740 C.3   121  GLN121      0.0908
     30  CD       185.8820  153.8430  180.2890 C.2   121  GLN121      0.2608
     31  OE1      186.6100  153.8550  181.2810 O.2   121  GLN121     -0.2717
     32  NE2      185.3380  154.9460  179.7860 N.am  121  GLN121     -0.0878
     33  N        185.5630  146.1290  176.2700 N.3   124  ALA124     -0.1231
     34  CA       184.2040  146.0390  175.7760 C.3   124  ALA124      0.1694
     35  C        184.0240  146.7750  174.4660 C.2   124  ALA124      0.2591
     36  O        183.0770  146.4810  173.7360 O.2   124  ALA124     -0.2718
     37  CB       183.2180  146.5910  176.8020 C.3   124  ALA124      0.0304
     38  N        184.9070  147.7170  174.1520 N.am  125  LEU125     -0.1980
     39  CA       184.9290  148.3380  172.8390 C.3   125  LEU125      0.1596
     40  C        185.8510  147.6300  171.8630 C.2   125  LEU125      0.2287
     41  O        185.5780  147.6470  170.6590 O.2   125  LEU125     -0.2864
     42  CB       185.3380  149.8070  172.9500 C.3   125  LEU125      0.0297
     43  CG       184.2630  150.6850  173.5780 C.3   125  LEU125      0.0022
     44  CD1      184.7930  152.0740  173.8450 C.3   125  LEU125      0.0001
     45  CD2      183.0680  150.7490  172.6560 C.3   125  LEU125      0.0001
     46  N        183.6080  144.8130  170.8610 N.3   128  LEU128     -0.1245
     47  CA       182.5920  145.2700  169.9260 C.3   128  LEU128      0.1561
     48  C        183.1920  145.9660  168.7160 C.2   128  LEU128      0.2260
     49  O        182.4580  146.5660  167.9280 O.2   128  LEU128     -0.2867
     50  CB       181.6020  146.1870  170.6310 C.3   128  LEU128      0.0270
     51  CG       180.7150  145.4040  171.5770 C.3   128  LEU128      0.0019
     52  CD1      179.9220  146.3460  172.4110 C.3   128  LEU128      0.0001
     53  CD2      179.8000  144.5710  170.7480 C.3   128  LEU128      0.0001
     54  N        174.2690  143.2390  171.1470 N.3   196  VAL196     -0.1245
     55  CA       175.0600  144.4530  171.3520 C.3   196  VAL196      0.1561
     56  C        174.4160  145.3440  172.4100 C.2   196  VAL196      0.2260
     57  O        175.0990  145.8970  173.2830 O.2   196  VAL196     -0.2867
     58  CB       175.2540  145.1890  170.0170 C.3   196  VAL196      0.0252
     59  CG1      175.9520  146.4910  170.2210 C.3   196  VAL196      0.0019
     60  CG2      176.0850  144.3570  169.1050 C.3   196  VAL196      0.0019
     61  N        175.0160  143.9430  175.7310 N.3   199  VAL199     -0.1231
     62  CA       176.3140  144.3250  176.2720 C.3   199  VAL199      0.1692
     63  C        176.2390  145.7310  176.8350 C.2   199  VAL199      0.2591
     64  O        176.7680  146.0070  177.9200 O.2   199  VAL199     -0.2718
     65  CB       177.3990  144.2080  175.1940 C.3   199  VAL199      0.0266
     66  CG1      178.6960  144.7990  175.6640 C.3   199  VAL199      0.0020
     67  CG2      177.6180  142.7850  174.8930 C.3   199  VAL199      0.0020
     68  N        175.5410  146.6260  176.1320 N.am  200  ALA200     -0.1980
     69  CA       175.5370  148.0370  176.5040 C.3   200  ALA200      0.1597
     70  C        174.7940  148.3030  177.8030 C.2   200  ALA200      0.2287
     71  O        175.0450  149.3250  178.4450 O.2   200  ALA200     -0.2864
     72  CB       174.9320  148.8730  175.3850 C.3   200  ALA200      0.0319
     73  N        173.9710  146.0040  181.0970 N.3   202  ARG202     -0.1231
     74  CA       173.8980  144.8780  182.0140 C.3   202  ARG202      0.1694
     75  C        173.8150  145.4460  183.4200 C.2   202  ARG202      0.2591
     76  O        174.5960  146.3280  183.7850 O.2   202  ARG202     -0.2718
     77  CB       175.1080  143.9670  181.8550 C.3   202  ARG202      0.0321
     78  CG       175.0740  143.1500  180.6040 C.3   202  ARG202      0.0489
     79  CD       176.3800  142.4230  180.3660 C.3   202  ARG202      0.2205
     80  NE       176.3710  141.6900  179.1060 N.pl3 202  ARG202     -0.0865
     81  CZ       176.0840  140.4010  178.9990 C.cat 202  ARG202      0.5346
     82  NH1      176.0900  139.8110  177.8180 N.pl3 202  ARG202      0.1354
     83  NH2      175.8190  139.6970  180.0800 N.pl3 202  ARG202      0.1354
     84  N        172.8540  144.9690  184.1930 N.am  203  GLN203     -0.1979
     85  CA       172.7200  145.3540  185.5890 C.3   203  GLN203      0.1601
     86  C        172.9410  144.1060  186.4270 C.2   203  GLN203      0.2287
     87  O        172.2520  143.0980  186.2420 O.2   203  GLN203     -0.2864
     88  CB       171.3580  145.9840  185.8610 C.3   203  GLN203      0.0394
     89  CG       171.1400  147.2880  185.1170 C.3   203  GLN203      0.0908
     90  CD       172.1260  148.3660  185.5250 C.2   203  GLN203      0.2608
     91  OE1      172.4720  148.5000  186.6990 O.2   203  GLN203     -0.2717
     92  NE2      172.5880  149.1420  184.5510 N.am  203  GLN203     -0.0878
     93  N        171.4740  153.4770  179.5630 N.3   234  THR234     -0.1218
     94  CA       172.7640  154.1300  179.4110 C.3   234  THR234      0.1862
     95  C        172.7450  155.0850  178.2250 C.2   234  THR234      0.2287
     96  O        171.6980  155.4080  177.6720 O.2   234  THR234     -0.2866
     97  CB       173.8650  153.1000  179.2290 C.3   234  THR234      0.1770
     98  OG1      173.5760  152.3120  178.0710 O.3   234  THR234     -0.2211
     99  CG2      173.9460  152.2020  180.4380 C.3   234  THR234      0.0375
    100  N        174.9910  154.4380  175.5770 N.3   236  TRP236     -0.1241
    101  CA       175.2180  153.4950  174.4970 C.3   236  TRP236      0.1605
    102  C        173.9950  152.6590  174.1830 C.2   236  TRP236      0.2264
    103  O        173.9270  152.0780  173.1000 O.2   236  TRP236     -0.2867
    104  CB       176.3830  152.5770  174.8400 C.3   236  TRP236      0.0550
    105  CG       177.6530  153.3080  174.9470 C.ar  236  TRP236      0.0003
    106  CD1      178.3140  153.6380  176.0850 C.ar  236  TRP236      0.0946
    107  CD2      178.4050  153.8560  173.8680 C.ar  236  TRP236      0.0152
    108  NE1      179.4500  154.3400  175.7820 N.ar  236  TRP236     -0.2442
    109  CE2      179.5250  154.4900  174.4230 C.ar  236  TRP236      0.0810
    110  CE3      178.2410  153.8670  172.4810 C.ar  236  TRP236      0.0012
    111  CZ2      180.4790  155.1250  173.6410 C.ar  236  TRP236      0.0191
    112  CZ3      179.1870  154.4970  171.7090 C.ar  236  TRP236      0.0001
    113  CH2      180.2920  155.1180  172.2880 C.ar  236  TRP236      0.0015
    114  N        172.0520  155.1760  171.8500 N.3   239  ILE239     -0.1231
    115  CA       172.5350  155.2470  170.4690 C.3   239  ILE239      0.1692
    116  C        172.0000  154.0760  169.6430 C.2   239  ILE239      0.2591
    117  O        171.5600  154.2480  168.4940 O.2   239  ILE239     -0.2718
    118  CB       174.0730  155.2930  170.4430 C.3   239  ILE239      0.0266
    119  CG1      174.6020  156.4920  171.2200 C.3   239  ILE239      0.0019
    120  CG2      174.5820  155.3560  169.0300 C.3   239  ILE239      0.0020
    121  CD1      174.1650  157.8010  170.6750 C.3   239  ILE239      0.0001
    122  N        172.0240  152.8720  170.2180 N.am  240  VAL240     -0.1980
    123  CA       171.6300  151.6600  169.5060 C.3   240  VAL240      0.1595
    124  C        170.1280  151.6350  169.2500 C.2   240  VAL240      0.2287
    125  O        169.6770  151.2070  168.1780 O.2   240  VAL240     -0.2864
    126  CB       172.1140  150.4340  170.3020 C.3   240  VAL240      0.0276
    127  CG1      171.5890  149.1640  169.7350 C.3   240  VAL240      0.0022
    128  CG2      173.6080  150.3780  170.2810 C.3   240  VAL240      0.0022
    129  N        169.6810  153.7980  166.1540 N.3   243  CYS243     -0.1235
    130  CA       170.0880  153.1060  164.9330 C.3   243  CYS243      0.1677
    131  C        169.0690  152.0540  164.5160 C.2   243  CYS243      0.2270
    132  O        168.7900  151.9090  163.3170 O.2   243  CYS243     -0.2867
    133  CB       171.4550  152.4600  165.1170 C.3   243  CYS243      0.0956
    134  SG       172.7900  153.6320  165.3890 S.3   243  CYS243     -0.0801
@<TRIPOS>BOND
     1   132   131    2
     2   131   130    1
     3   130   133    1
     4   130   129    1
     5   133   134    1
     6    49    48    2
     7   125   124    2
     8   117   116    2
     9    48    47    1
    10   120   118    1
    11    60    58    1
    12   124   123    1
    13   123   122    1
    14   123   126    1
    15   116   122   am
    16   116   115    1
    17   127   126    1
    18    47    50    1
    19    47    46    1
    20    58    59    1
    21    58    55    1
    22   128   126    1
    23   118   115    1
    24   118   119    1
    25   115   114    1
    26    50    51    1
    27    41    40    2
    28   121   119    1
    29    53    51    1
    30    54    55    1
    31    55    56    1
    32    51    52    1
    33   112   113   ar
    34   112   110   ar
    35    40    39    1
    36   113   111   ar
    37    56    57    2
    38   110   107   ar
    39    45    43    1
    40    39    42    1
    41    39    38    1
    42    42    43    1
    43   103   102    2
    44    43    44    1
    45   111   109   ar
    46    36    35    2
    47   107   109   ar
    48   107   105   ar
    49    38    35   am
    50   102   101    1
    51   109   108   ar
    52    35    34    1
    53   101   104    1
    54   101   100    1
    55   104   105    1
    56    67    65    1
    57   105   106   ar
    58    65    66    1
    59    65    62    1
    60    72    69    1
    61    61    62    1
    62    34    33    1
    63    34    37    1
    64   108   106   ar
    65    68    69    1
    66    68    63   am
    67    62    63    1
    68    69    70    1
    69    63    64    2
    70    27    26    2
    71    96    95    2
    72    18    17    1
    73    70    71    2
    74    82    81    1
    75    98    97    1
    76    95    94    1
    77    26    25    1
    78    19    17    1
    79    17    16    1
    80    81    80    2
    81    81    83    1
    82    80    79    1
    83    97    94    1
    84    97    99    1
    85    94    93    1
    86    29    28    1
    87    29    30    1
    88    25    28    1
    89    25    24    1
    90    23    22    2
    91    16    13    1
    92    32    30   am
    93    30    31    2
    94    79    78    1
    95    22    24   am
    96    22    21    1
    97    78    77    1
    98    20    21    1
    99    20    14   am
   100    73    74    1
   101    13    14    1
   102    13    12    1
   103    14    15    2
   104    77    74    1
   105    12     3   am
   106    74    75    1
   107     3     4    2
   108     3     2    1
   109    75    76    2
   110    75    84   am
   111     2     5    1
   112     2     1    1
   113     7     9   ar
   114     7     6   ar
   115    84    85    1
   116    92    90   am
   117     5     6    1
   118     9    11   ar
   119     6     8   ar
   120    89    90    1
   121    89    88    1
   122    90    91    2
   123    85    88    1
   124    85    86    1
   125    11    10   ar
   126    87    86    2
   127     8    10   ar
