@<TRIPOS>MOLECULE
tmp/6cnvA00.pdb
 71 68 0 0 0
SMALL
GASTEIGER

@<TRIPOS>ATOM
      1  N         20.9390   -0.3050   54.1860 N.3    38  SER38      -0.1202
      2  CA        19.9930    0.4850   53.4080 C.3    38  SER38       0.2020
      3  C         18.6520    0.5600   54.1270 C.2    38  SER38       0.2618
      4  O         18.5320    0.1280   55.2740 O.2    38  SER38      -0.2717
      5  CB        19.8120   -0.1150   52.0110 C.3    38  SER38       0.2103
      6  OG        19.3680   -1.4600   52.0880 O.3    38  SER38      -0.2182
      7  N         17.6450    1.1050   53.4530 N.am   39  HIS39      -0.1975
      8  CA        16.3370    1.2850   54.0710 C.3    39  HIS39       0.1656
      9  C         15.6600   -0.0520   54.3370 C.2    39  HIS39       0.2291
     10  O         16.0030   -1.0610   53.7210 O.2    39  HIS39      -0.2864
     11  CB        15.4560    2.1630   53.1860 C.3    39  HIS39       0.0771
     12  CG        15.6850    1.9570   51.7220 C.ar   39  HIS39       0.0820
     13  ND1       15.2470    0.8370   51.0490 N.ar   39  HIS39      -0.2267
     14  CD2       16.3200    2.7240   50.8040 C.ar   39  HIS39       0.1154
     15  CE1       15.5940    0.9260   49.7780 C.ar   39  HIS39       0.1986
     16  NE2       16.2470    2.0610   49.6030 N.ar   39  HIS39      -0.2212
     17  N          9.3270   -9.8790   51.2240 N.3    44  LYS44      -0.1245
     18  CA         8.7320  -10.6150   50.1140 C.3    44  LYS44       0.1561
     19  C          8.0010  -11.8720   50.5760 C.2    44  LYS44       0.2260
     20  O          8.5310  -12.6730   51.3450 O.2    44  LYS44      -0.2867
     21  CB         9.8070  -10.9860   49.0890 C.3    44  LYS44       0.0271
     22  CG        10.4000   -9.7960   48.3510 C.3    44  LYS44       0.0035
     23  CD        11.5730  -10.2060   47.4710 C.3    44  LYS44       0.0206
     24  CE        11.1770  -11.2780   46.4680 C.3    44  LYS44       0.1093
     25  NZ        10.1310  -10.8000   45.5230 N.3    44  LYS44      -0.1314
     26  N          9.8420   -0.4300   48.7540 N.3   290  GLY290     -0.1210
     27  CA         9.8620   -1.6350   47.9430 C.3   290  GLY290      0.1956
     28  C          9.8250   -2.8850   48.8000 C.2   290  GLY290      0.2612
     29  O          9.1810   -2.9100   49.8490 O.2   290  GLY290     -0.2717
     30  N         10.5190   -3.9270   48.3520 N.am  291  GLU291     -0.1965
     31  CA        10.4710   -5.2190   49.0280 C.3   291  GLU291      0.1733
     32  C         11.8660   -5.8360   49.1010 C.2   291  GLU291      0.2616
     33  O         12.7920   -5.3810   48.4300 O.2   291  GLU291     -0.2715
     34  CB         9.4810   -6.1690   48.3520 C.3   291  GLU291      0.0429
     35  CG         9.7600   -6.5000   46.9040 C.3   291  GLU291      0.1163
     36  CD         8.7300   -7.4640   46.3460 C.2   291  GLU291      0.3649
     37  OE1        8.8560   -7.8690   45.1720 O.co2 291  GLU291     -0.2457
     38  OE2        7.7900   -7.8210   47.0890 O.co2 291  GLU291     -0.2457
     39  N         12.0060   -6.8770   49.9160 N.am  292  ALA292     -0.1963
     40  CA        13.2820   -7.5680   50.0850 C.3   292  ALA292      0.1728
     41  C         13.0840   -8.9980   50.5700 C.2   292  ALA292      0.2616
     42  O         12.0600   -9.3210   51.1710 O.2   292  ALA292     -0.2715
     43  CB        14.1740   -6.8050   51.0500 C.3   292  ALA292      0.0334
     44  N         14.0710   -9.8500   50.3020 N.am  293  ASP293     -0.1971
     45  CA        14.0420  -11.2350   50.7630 C.3   293  ASP293      0.1709
     46  C         14.1000  -11.2880   52.2860 C.2   293  ASP293      0.2293
     47  O         13.5430  -12.1940   52.9070 O.2   293  ASP293     -0.2864
     48  CB        15.2090  -12.0270   50.1700 C.3   293  ASP293      0.1436
     49  CG        15.2370  -11.9820   48.6560 C.2   293  ASP293      0.3671
     50  OD1       14.1560  -12.0450   48.0340 O.co2 293  ASP293     -0.2456
     51  OD2       16.3460  -11.8850   48.0880 O.co2 293  ASP293     -0.2456
     52  N         16.7050   -3.8060   54.7610 N.3   301  GLY301     -0.1210
     53  CA        16.3300   -4.7790   53.7530 C.3   301  GLY301      0.1956
     54  C         17.5720   -5.2730   53.0350 C.2   301  GLY301      0.2612
     55  O         18.4160   -4.4730   52.6270 O.2   301  GLY301     -0.2717
     56  N         17.6940   -6.5860   52.8810 N.am  302  LEU302     -0.1965
     57  CA        18.7810   -7.1480   52.0880 C.3   302  LEU302      0.1728
     58  C         18.3510   -8.4040   51.3410 C.2   302  LEU302      0.2616
     59  O         17.3970   -9.0820   51.7200 O.2   302  LEU302     -0.2715
     60  CB        20.0160   -7.4350   52.9590 C.3   302  LEU302      0.0311
     61  CG        20.0090   -8.3440   54.1920 C.3   302  LEU302      0.0022
     62  CD1       19.9340   -9.8120   53.8240 C.3   302  LEU302      0.0001
     63  CD2       21.2570   -8.0840   55.0190 C.3   302  LEU302      0.0001
     64  N         19.0730   -8.6900   50.2660 N.am  303  ASN303     -0.1972
     65  CA        18.7970   -9.8180   49.3920 C.3   303  ASN303      0.1688
     66  C         19.8780  -10.8740   49.5220 C.2   303  ASN303      0.2292
     67  O         21.0630  -10.5470   49.5720 O.2   303  ASN303     -0.2864
     68  CB        18.6880   -9.3570   47.9440 C.3   303  ASN303      0.1181
     69  CG        17.4060   -8.6100   47.6720 C.2   303  ASN303      0.2629
     70  OD1       16.3260   -9.0430   48.0740 O.2   303  ASN303     -0.2716
     71  ND2       17.5120   -7.4780   46.9920 N.am  303  ASN303     -0.0877
@<TRIPOS>BOND
     1    37    36   ar
     2    25    24    1
     3    36    35    1
     4    36    38   ar
     5    24    23    1
     6    35    34    1
     7    71    69   am
     8    23    22    1
     9    69    68    1
    10    69    70    2
    11    27    26    1
    12    27    28    1
    13    68    65    1
    14    50    49   ar
    15    51    49   ar
    16    22    21    1
    17    34    31    1
    18    30    28   am
    19    30    31    1
    20    33    32    2
    21    49    48    1
    22    28    29    2
    23    31    32    1
    24    21    18    1
    25    32    39   am
    26    65    66    1
    27    65    64    1
    28    66    67    2
    29    16    15   ar
    30    16    14   ar
    31    15    13   ar
    32    39    40    1
    33    40    41    1
    34    40    43    1
    35    18    19    1
    36    18    17    1
    37    48    45    1
    38    64    58   am
    39    44    41   am
    40    44    45    1
    41    41    42    2
    42    19    20    2
    43    45    46    1
    44    14    12   ar
    45    13    12   ar
    46    58    59    2
    47    58    57    1
    48    12    11    1
    49     5     6    1
    50     5     2    1
    51    57    56    1
    52    57    60    1
    53    46    47    2
    54    55    54    2
    55    56    54   am
    56    60    61    1
    57    54    53    1
    58    11     8    1
    59     2     3    1
    60     2     1    1
    61     7     8    1
    62     7     3   am
    63    10     9    2
    64    53    52    1
    65    62    61    1
    66     8     9    1
    67     3     4    2
    68    61    63    1
