@<TRIPOS>MOLECULE
tmp/6cnyB00.pdb
 191 175 0 0 0
SMALL
GASTEIGER

@<TRIPOS>ATOM
      1  N        -24.6590   67.9920    3.7370 N.3    31  ILE31      -0.1245
      2  CA       -25.5770   67.8570    4.8550 C.3    31  ILE31       0.1561
      3  C        -26.3260   66.5700    4.6970 C.2    31  ILE31       0.2260
      4  O        -26.4420   66.0350    3.5870 O.2    31  ILE31      -0.2867
      5  CB       -26.5910   69.0010    4.9720 C.3    31  ILE31       0.0252
      6  CG1      -27.5140   69.0310    3.7500 C.3    31  ILE31       0.0019
      7  CG2      -25.8850   70.3240    5.1850 C.3    31  ILE31       0.0019
      8  CD1      -28.1160   70.3820    3.4730 C.3    31  ILE31       0.0001
      9  N        -30.0800   64.9700    5.7730 N.3    33  CYS33      -0.1235
     10  CA       -31.4200   65.2840    6.2200 C.3    33  CYS33       0.1677
     11  C        -32.2080   64.0180    6.4340 C.2    33  CYS33       0.2270
     12  O        -32.0070   63.0400    5.7430 O.2    33  CYS33      -0.2867
     13  CB       -32.1480   66.1450    5.1950 C.3    33  CYS33       0.0956
     14  SG       -31.4100   67.7850    4.9650 S.3    33  CYS33      -0.0801
     15  N        -38.2830   67.0180    6.7390 N.3    40  THR40      -0.1218
     16  CA       -36.9580   66.6390    6.2620 C.3    40  THR40       0.1862
     17  C        -35.8290   67.5070    6.8510 C.2    40  THR40       0.2287
     18  O        -35.1570   68.2390    6.1230 O.2    40  THR40      -0.2866
     19  CB       -36.9300   66.6600    4.7200 C.3    40  THR40       0.1770
     20  OG1      -38.1180   66.0310    4.2170 O.3    40  THR40      -0.2211
     21  CG2      -35.7410   65.8960    4.1910 C.3    40  THR40       0.0375
     22  N        -35.4410   72.4420    7.8380 N.3    64  ASN64      -0.1225
     23  CA       -35.4110   72.1800    6.4040 C.3    64  ASN64       0.1785
     24  C        -34.4460   73.1550    5.7420 C.2    64  ASN64       0.2597
     25  O        -34.4470   74.3520    6.0820 O.2    64  ASN64      -0.2718
     26  CB       -36.8000   72.3530    5.7950 C.3    64  ASN64       0.1169
     27  CG       -36.8700   71.8690    4.3540 C.2    64  ASN64       0.2627
     28  OD1      -36.4970   72.5720    3.4280 O.2    64  ASN64      -0.2716
     29  ND2      -37.3510   70.6590    4.1640 N.am   64  ASN64      -0.0877
     30  N        -33.6540   72.6660    4.7830 N.am   65  CYS65      -0.1956
     31  CA       -32.6390   73.5050    4.1350 C.3    65  CYS65       0.1843
     32  C        -33.1950   74.6410    3.2630 C.2    65  CYS65       0.2625
     33  O        -32.4040   75.4510    2.7850 O.2    65  CYS65      -0.2714
     34  CB       -31.6600   72.6590    3.3160 C.3    65  CYS65       0.0997
     35  SG       -29.9810   73.3600    3.1890 S.3    65  CYS65      -0.0797
     36  N        -34.5120   74.7050    3.0600 N.am   66  ARG66      -0.1977
     37  CA       -35.1150   75.7750    2.2670 C.3    66  ARG66       0.1597
     38  C        -34.8390   77.1930    2.7710 C.2    66  ARG66       0.2287
     39  O        -34.9930   78.1380    2.0040 O.2    66  ARG66      -0.2864
     40  CB       -36.6280   75.5690    2.0830 C.3    66  ARG66       0.0334
     41  CG       -37.4770   75.8750    3.2980 C.3    66  ARG66       0.0492
     42  CD       -38.9570   75.8760    2.9180 C.3    66  ARG66       0.2205
     43  NE       -39.4590   74.5370    2.6830 N.pl3  66  ARG66      -0.0865
     44  CZ       -39.7340   73.6560    3.6320 C.cat  66  ARG66       0.5346
     45  NH1      -40.1750   72.4560    3.2650 N.pl3  66  ARG66       0.1354
     46  NH2      -39.5630   73.9330    4.9340 N.pl3  66  ARG66       0.1354
     47  N        -32.1030   78.5910    3.1500 N.3    68  LEU68      -0.1231
     48  CA       -31.0830   79.1390    2.2390 C.3    68  LEU68       0.1693
     49  C        -31.6380   79.8990    1.0070 C.2    68  LEU68       0.2591
     50  O        -30.9090   80.6450    0.3590 O.2    68  LEU68      -0.2718
     51  CB       -30.1530   78.0190    1.7560 C.3    68  LEU68       0.0284
     52  CG       -29.2590   77.3630    2.8170 C.3    68  LEU68       0.0019
     53  CD1      -28.4290   76.2920    2.1050 C.3    68  LEU68       0.0001
     54  CD2      -28.3550   78.3510    3.5430 C.3    68  LEU68       0.0001
     55  N        -32.9240   79.7260    0.7010 N.am   69  GLN69      -0.1979
     56  CA       -33.5270   80.3330   -0.4820 C.3    69  GLN69       0.1601
     57  C        -33.9270   81.8080   -0.2980 C.2    69  GLN69       0.2287
     58  O        -34.3220   82.4690   -1.2930 O.2    69  GLN69      -0.2864
     59  CB       -34.7150   79.4980   -0.9380 C.3    69  GLN69       0.0394
     60  CG       -34.2510   78.1140   -1.3770 C.3    69  GLN69       0.0908
     61  CD       -35.3300   77.0700   -1.3800 C.2    69  GLN69       0.2608
     62  OE1      -36.5370   77.3740   -1.3040 O.2    69  GLN69      -0.2717
     63  NE2      -34.9180   75.8210   -1.4950 N.am   69  GLN69      -0.0878
     64  N        -42.9030   76.6260    3.8030 N.3    77  PRO77      -0.2102
     65  CA       -43.1960   75.6260    2.7670 C.3    77  PRO77       0.1504
     66  C        -44.4700   75.9840    2.0130 C.2    77  PRO77       0.2575
     67  O        -45.3320   76.6750    2.5660 O.2    77  PRO77      -0.2718
     68  CB       -43.3800   74.3220    3.5530 C.3    77  PRO77       0.0282
     69  CG       -43.6310   74.7340    4.9700 C.3    77  PRO77       0.0208
     70  CD       -42.9570   76.0630    5.1650 C.3    77  PRO77       0.0893
     71  N        -44.5620   75.5610    0.7530 N.am   78  LYS78      -0.1980
     72  CA       -45.7210   75.8890   -0.1130 C.3    78  LYS78       0.1596
     73  C        -45.7740   77.3640   -0.5770 C.2    78  LYS78       0.2287
     74  O        -46.5710   77.6750   -1.4760 O.2    78  LYS78      -0.2864
     75  CB       -47.0780   75.5190    0.5260 C.3    78  LYS78       0.0298
     76  CG       -47.2150   74.0880    1.0410 C.3    78  LYS78       0.0038
     77  CD       -48.6610   73.8230    1.5020 C.3    78  LYS78       0.0206
     78  CE       -49.1950   72.4050    1.1900 C.3    78  LYS78       0.1093
     79  NZ       -48.5560   71.3290    1.9940 N.3    78  LYS78      -0.1314
     80  N        -41.5400   81.2550   -3.9140 N.3    81  ARG81      -0.1245
     81  CA       -40.2440   81.8560   -3.6390 C.3    81  ARG81       0.1563
     82  C        -40.0370   83.1040   -4.4750 C.2    81  ARG81       0.2260
     83  O        -40.3410   83.1210   -5.6730 O.2    81  ARG81      -0.2867
     84  CB       -39.1020   80.8800   -3.9350 C.3    81  ARG81       0.0307
     85  CG       -38.6330   80.1050   -2.7290 C.3    81  ARG81       0.0489
     86  CD       -39.7550   79.3450   -2.0480 C.3    81  ARG81       0.2205
     87  NE       -39.1850   78.1500   -1.4830 N.pl3  81  ARG81      -0.0865
     88  CZ       -39.8440   77.0650   -1.1140 C.cat  81  ARG81       0.5346
     89  NH1      -39.1250   76.0540   -0.6580 N.pl3  81  ARG81       0.1354
     90  NH2      -41.1900   76.9930   -1.1190 N.pl3  81  ARG81       0.1354
     91  N        -37.7030   74.4760   -7.5910 N.3    89  ILE89      -0.1245
     92  CA       -38.2440   74.0570   -6.3120 C.3    89  ILE89       0.1561
     93  C        -39.0270   72.7400   -6.4750 C.2    89  ILE89       0.2260
     94  O        -38.8800   71.8330   -5.6690 O.2    89  ILE89      -0.2867
     95  CB       -39.1940   75.1180   -5.7050 C.3    89  ILE89       0.0252
     96  CG1      -38.4860   76.4700   -5.4530 C.3    89  ILE89       0.0019
     97  CG2      -39.7790   74.6310   -4.3700 C.3    89  ILE89       0.0019
     98  CD1      -37.4180   76.4540   -4.3650 C.3    89  ILE89       0.0001
     99  N        -36.7700   69.7050   -7.1500 N.3    92  MET92      -0.1230
    100  CA       -36.2000   69.2390   -5.8980 C.3    92  MET92       0.1702
    101  C        -37.1980   68.4430   -5.0570 C.2    92  MET92       0.2592
    102  O        -36.9010   67.3330   -4.5980 O.2    92  MET92      -0.2718
    103  CB       -35.6560   70.4220   -5.0760 C.3    92  MET92       0.0401
    104  CG       -34.4090   71.0600   -5.6930 C.3    92  MET92       0.0596
    105  SD       -33.5990   72.2190   -4.5910 S.3    92  MET92      -0.1393
    106  CE       -34.7530   73.6000   -4.5980 C.3    92  MET92       0.0692
    107  N        -38.3880   68.9930   -4.8630 N.am   93  ARG93      -0.1980
    108  CA       -39.3770   68.3250   -4.0050 C.3    93  ARG93       0.1597
    109  C        -39.7720   66.9630   -4.5500 C.2    93  ARG93       0.2287
    110  O        -39.8820   65.9960   -3.7830 O.2    93  ARG93      -0.2864
    111  CB       -40.6330   69.1590   -3.8160 C.3    93  ARG93       0.0334
    112  CG       -41.4880   68.6750   -2.6400 C.3    93  ARG93       0.0492
    113  CD       -42.8090   69.4160   -2.4870 C.3    93  ARG93       0.2205
    114  NE       -42.6370   70.8140   -2.8690 N.pl3  93  ARG93      -0.0865
    115  CZ       -42.9250   71.3500   -4.0560 C.cat  93  ARG93       0.5346
    116  NH1      -42.6380   72.6320   -4.2440 N.pl3  93  ARG93       0.1354
    117  NH2      -43.5380   70.6710   -5.0370 N.pl3  93  ARG93       0.1354
    118  N        -36.9290   64.3880   -4.1160 N.3    96  ILE96      -0.1245
    119  CA       -36.8340   63.9780   -2.7360 C.3    96  ILE96       0.1561
    120  C        -37.9750   63.0260   -2.3530 C.2    96  ILE96       0.2260
    121  O        -37.7150   62.0010   -1.6970 O.2    96  ILE96      -0.2867
    122  CB       -36.7820   65.1790   -1.7670 C.3    96  ILE96       0.0252
    123  CG1      -35.5050   66.0110   -1.9880 C.3    96  ILE96       0.0019
    124  CG2      -36.8060   64.6890   -0.3010 C.3    96  ILE96       0.0019
    125  CD1      -35.6390   67.4410   -1.5250 C.3    96  ILE96       0.0001
    126  N        -29.3020   76.3930   -7.8890 N.3   106  VAL106     -0.1245
    127  CA       -30.2950   77.1550   -7.1500 C.3   106  VAL106      0.1561
    128  C        -29.6340   78.3630   -6.5360 C.2   106  VAL106      0.2260
    129  O        -28.5080   78.2770   -6.0430 O.2   106  VAL106     -0.2867
    130  CB       -30.9950   76.2770   -6.0750 C.3   106  VAL106      0.0252
    131  CG1      -30.0620   75.8850   -4.9190 C.3   106  VAL106      0.0019
    132  CG2      -32.2360   76.9780   -5.5370 C.3   106  VAL106      0.0019
    133  N        -29.0900   80.7660   -3.6590 N.3   108  ASN108     -0.1240
    134  CA       -29.1630   80.6510   -2.2160 C.3   108  ASN108      0.1653
    135  C        -28.5150   81.9060   -1.6310 C.2   108  ASN108      0.2266
    136  O        -27.8390   82.6690   -2.3620 O.2   108  ASN108     -0.2867
    137  CB       -28.3900   79.3940   -1.7360 C.3   108  ASN108      0.1155
    138  CG       -29.2160   78.0900   -1.7620 C.2   108  ASN108      0.2627
    139  OD1      -28.6670   77.0220   -1.4550 O.2   108  ASN108     -0.2716
    140  ND2      -30.4960   78.1550   -2.1130 N.am  108  ASN108     -0.0877
    141  N        -25.7350   77.8970   -6.0270 N.3   118  ASN118     -0.1240
    142  CA       -25.4420   76.6370   -5.3600 C.3   118  ASN118      0.1653
    143  C        -25.6850   75.5400   -6.3720 C.2   118  ASN118      0.2266
    144  O        -26.8190   75.3390   -6.8160 O.2   118  ASN118     -0.2867
    145  CB       -26.3610   76.5070   -4.1410 C.3   118  ASN118      0.1155
    146  CG       -26.1090   75.2620   -3.3110 C.2   118  ASN118      0.2627
    147  OD1      -25.3300   74.3610   -3.6930 O.2   118  ASN118     -0.2716
    148  ND2      -26.7780   75.2000   -2.1490 N.am  118  ASN118     -0.0877
    149  N        -26.1800   71.9880   -6.5920 N.3   120  LEU120     -0.1245
    150  CA       -26.6960   71.1600   -5.5130 C.3   120  LEU120      0.1561
    151  C        -27.0050   69.7610   -6.0450 C.2   120  LEU120      0.2260
    152  O        -27.7360   69.6160   -7.0380 O.2   120  LEU120     -0.2867
    153  CB       -27.9520   71.7960   -4.9420 C.3   120  LEU120      0.0270
    154  CG       -28.7430   71.0190   -3.8840 C.3   120  LEU120      0.0019
    155  CD1      -27.8850   70.7060   -2.6730 C.3   120  LEU120      0.0001
    156  CD2      -29.9960   71.7490   -3.4480 C.3   120  LEU120      0.0001
    157  N        -28.4910   65.9990   -4.6320 N.3   122  MET122     -0.1245
    158  CA       -29.1390   65.3170   -3.5230 C.3   122  MET122      0.1570
    159  C        -29.2750   63.8620   -3.8910 C.2   122  MET122      0.2261
    160  O        -29.7670   63.5460   -4.9630 O.2   122  MET122     -0.2867
    161  CB       -30.4950   65.9310   -3.1960 C.3   122  MET122      0.0387
    162  CG       -30.3480   67.3980   -2.8110 C.3   122  MET122      0.0595
    163  SD       -31.9030   68.2350   -2.4970 S.3   122  MET122     -0.1393
    164  CE       -32.5980   68.2680   -4.1400 C.3   122  MET122      0.0692
    165  N        -31.3390   61.7900    3.1190 N.3   135  SER135     -0.1202
    166  CA       -30.9140   62.3610    1.8500 C.3   135  SER135      0.2020
    167  C        -29.6430   63.0980    2.1730 C.2   135  SER135      0.2619
    168  O        -29.5700   63.8380    3.1570 O.2   135  SER135     -0.2717
    169  CB       -31.9360   63.3490    1.3000 C.3   135  SER135      0.2103
    170  OG       -31.4960   63.8080    0.0060 O.3   135  SER135     -0.2182
    171  N        -28.6470   62.8970    1.3420 N.am  136  MET136     -0.1965
    172  CA       -27.3960   63.5900    1.5120 C.3   136  MET136      0.1736
    173  C        -27.3130   64.5950    0.3820 C.2   136  MET136      0.2617
    174  O        -27.5200   64.2350   -0.7800 O.2   136  MET136     -0.2715
    175  CB       -26.1990   62.6540    1.5250 C.3   136  MET136      0.0427
    176  CG       -24.9350   63.4010    1.9720 C.3   136  MET136      0.0599
    177  SD       -23.4930   62.3600    2.2090 S.3   136  MET136     -0.1393
    178  CE       -23.7630   61.6610    3.8030 C.3   136  MET136      0.0692
    179  N        -27.0650   65.8490    0.7640 N.am  137  GLY137     -0.1955
    180  CA       -26.9490   66.9720   -0.1490 C.3   137  GLY137      0.1869
    181  C        -25.5140   67.4620   -0.2320 C.2   137  GLY137      0.2309
    182  O        -24.8540   67.5520    0.7880 O.2   137  GLY137     -0.2863
    183  N        -23.2340   70.5940   -1.7460 N.3   139  GLN139     -0.1245
    184  CA       -23.3530   71.9720   -2.1970 C.3   139  GLN139      0.1566
    185  C        -22.0080   72.4570   -2.7380 C.2   139  GLN139      0.2260
    186  O        -20.9800   72.1640   -2.1460 O.2   139  GLN139     -0.2867
    187  CB       -23.7470   72.8740   -1.0350 C.3   139  GLN139      0.0367
    188  CG       -25.1710   72.6670   -0.5160 C.3   139  GLN139      0.0905
    189  CD       -25.3260   71.5560    0.5160 C.2   139  GLN139      0.2608
    190  OE1      -24.3380   71.0260    1.0590 O.2   139  GLN139     -0.2717
    191  NE2      -26.6060   71.1820    0.7950 N.am  139  GLN139     -0.0878
@<TRIPOS>BOND
     1   126   127    1
     2    91    92    1
     3   127   128    1
     4   127   130    1
     5    99   100    1
     6   152   151    2
     7   144   143    2
     8   149   150    1
     9   128   129    2
    10    93    92    1
    11    93    94    2
    12   143   142    1
    13    92    95    1
    14   130   132    1
    15   130   131    1
    16   151   150    1
    17   141   142    1
    18   100   103    1
    19   100   101    1
    20    95    96    1
    21    95    97    1
    22   104   103    1
    23   104   105    1
    24    83    82    2
    25   150   153    1
    26    96    98    1
    27   142   145    1
    28   101   107   am
    29   101   102    2
    30   117   115    1
    31   160   159    2
    32   153   154    1
    33   107   108    1
    34   157   158    1
    35   106   105    1
    36   109   108    1
    37   109   110    2
    38    82    81    1
    39   116   115    1
    40   145   146    1
    41   164   163    1
    42   118   119    1
    43   115   114    2
    44   108   111    1
    45    84    81    1
    46    84    85    1
    47    80    81    1
    48   159   158    1
    49   154   156    1
    50   154   155    1
    51   111   112    1
    52   147   146    2
    53   133   134    1
    54   158   161    1
    55   146   148   am
    56   161   162    1
    57   114   113    1
    58   162   163    1
    59   185   184    1
    60   185   186    2
    61   119   120    1
    62   119   122    1
    63    85    86    1
    64   112   113    1
    65   136   135    2
    66   120   121    2
    67   134   137    1
    68   134   135    1
    69   184   183    1
    70   184   187    1
    71   140   138   am
    72    86    87    1
    73   123   122    1
    74   123   125    1
    75   122   124    1
    76   138   137    1
    77   138   139    2
    78    63    61   am
    79    87    88    2
    80    74    73    2
    81    61    60    1
    82    61    62    2
    83    60    59    1
    84    58    57    2
    85    90    88    1
    86    88    89    1
    87   187   188    1
    88    59    56    1
    89   174   173    2
    90    73    72    1
    91   188   189    1
    92    56    57    1
    93    56    55    1
    94   181   180    1
    95   181   182    2
    96   180   179    1
    97    72    75    1
    98    72    71    1
    99   170   169    1
   100    50    49    2
   101   173   179   am
   102   173   172    1
   103   189   191   am
   104   189   190    2
   105    75    76    1
   106    55    49   am
   107    71    66   am
   108    49    48    1
   109    76    77    1
   110    78    77    1
   111    78    79    1
   112   169   166    1
   113   171   172    1
   114   171   167   am
   115   172   175    1
   116   175   176    1
   117    51    48    1
   118    51    52    1
   119   166   167    1
   120   166   165    1
   121   176   177    1
   122    39    38    2
   123    66    67    2
   124    66    65    1
   125    40    37    1
   126    40    41    1
   127    53    52    1
   128   167   168    2
   129   177   178    1
   130    48    47    1
   131    37    38    1
   132    37    36    1
   133    43    42    1
   134    43    44    2
   135    65    68    1
   136    65    64    1
   137    33    32    2
   138    52    54    1
   139    42    41    1
   140    36    32   am
   141    35    34    1
   142    32    31    1
   143    45    44    1
   144    34    31    1
   145    28    27    2
   146     8     6    1
   147    68    69    1
   148     4     3    2
   149    44    46    1
   150     1     2    1
   151     6     5    1
   152    64    70    1
   153    31    30    1
   154    29    27   am
   155    21    19    1
   156    20    19    1
   157    27    26    1
   158     3     2    1
   159    19    16    1
   160    30    24   am
   161     2     5    1
   162    14    13    1
   163    69    70    1
   164     5     7    1
   165    13    10    1
   166    24    25    2
   167    24    23    1
   168    12    11    2
   169     9    10    1
   170    26    23    1
   171    18    17    2
   172    10    11    1
   173    16    15    1
   174    16    17    1
   175    23    22    1
