@<TRIPOS>MOLECULE
tmp/6co0A00.pdb
 226 215 0 0 0
SMALL
GASTEIGER

@<TRIPOS>ATOM
      1  N        -51.1300  -51.5320    2.5160 N.3    47  LYS47      -0.1245
      2  CA       -51.3080  -50.1750    2.0140 C.3    47  LYS47       0.1561
      3  C        -51.1080  -49.1510    3.1250 C.2    47  LYS47       0.2260
      4  O        -50.2650  -48.2520    3.0240 O.2    47  LYS47      -0.2867
      5  CB       -52.7050  -50.0430    1.4050 C.3    47  LYS47       0.0271
      6  CG       -52.9130  -48.8400    0.5190 C.3    47  LYS47       0.0035
      7  CD       -53.4640  -49.2510   -0.8340 C.3    47  LYS47       0.0206
      8  CE       -52.5650  -50.2780   -1.5040 C.3    47  LYS47       0.1093
      9  NZ       -53.1660  -50.8100   -2.7570 N.3    47  LYS47      -0.1314
     10  N        -47.3660  -49.0730    4.6580 N.3    50  ARG50      -0.1231
     11  CA       -46.4030  -48.3160    3.8670 C.3    50  ARG50       0.1694
     12  C        -46.6470  -46.8200    4.0070 C.2    50  ARG50       0.2591
     13  O        -45.6990  -46.0300    4.0650 O.2    50  ARG50      -0.2718
     14  CB       -46.4750  -48.7390    2.4010 C.3    50  ARG50       0.0321
     15  CG       -46.0820  -50.1840    2.1490 C.3    50  ARG50       0.0489
     16  CD       -46.8190  -50.7480    0.9460 C.3    50  ARG50       0.2205
     17  NE       -46.7040  -49.8810   -0.2210 N.pl3  50  ARG50      -0.0865
     18  CZ       -45.7770  -50.0190   -1.1620 C.cat  50  ARG50       0.5346
     19  NH1      -44.8810  -50.9930   -1.0750 N.pl3  50  ARG50       0.1354
     20  NH2      -45.7460  -49.1830   -2.1910 N.pl3  50  ARG50       0.1354
     21  N        -47.9160  -46.4150    4.0810 N.am   51  MET51      -0.1979
     22  CA       -48.2400  -45.0030    4.2500 C.3    51  MET51       0.1605
     23  C        -47.6750  -44.4590    5.5540 C.2    51  MET51       0.2287
     24  O        -47.0450  -43.3960    5.5770 O.2    51  MET51      -0.2864
     25  CB       -49.7500  -44.8120    4.2130 C.3    51  MET51       0.0413
     26  CG       -50.2820  -44.3550    2.8870 C.3    51  MET51       0.0598
     27  SD       -52.0360  -44.7020    2.7770 S.3    51  MET51      -0.1393
     28  CE       -52.4460  -44.5890    4.5080 C.3    51  MET51       0.0692
     29  N        -43.9570  -44.0770    5.3890 N.3    54  ARG54      -0.1245
     30  CA       -43.5090  -42.9760    4.5460 C.3    54  ARG54       0.1563
     31  C        -43.9700  -41.6140    5.0480 C.2    54  ARG54       0.2260
     32  O        -43.6310  -40.5970    4.4340 O.2    54  ARG54      -0.2867
     33  CB       -44.0110  -43.1730    3.1110 C.3    54  ARG54       0.0307
     34  CG       -43.6230  -44.4960    2.4850 C.3    54  ARG54       0.0489
     35  CD       -42.3340  -44.4080    1.7140 C.3    54  ARG54       0.2205
     36  NE       -41.8840  -45.7390    1.3260 N.pl3  54  ARG54      -0.0865
     37  CZ       -41.1380  -45.9940    0.2590 C.cat  54  ARG54       0.5346
     38  NH1      -40.7450  -45.0020   -0.5270 N.pl3  54  ARG54       0.1354
     39  NH2      -40.7760  -47.2410   -0.0160 N.pl3  54  ARG54       0.1354
     40  N        -57.7500  -26.5710    6.3030 N.3   156  CYS156     -0.1235
     41  CA       -56.3610  -26.5190    6.7390 C.3   156  CYS156      0.1677
     42  C        -55.6910  -25.1770    6.4630 C.2   156  CYS156      0.2270
     43  O        -54.4900  -25.0430    6.7190 O.2   156  CYS156     -0.2867
     44  CB       -55.5620  -27.6410    6.0670 C.3   156  CYS156      0.0956
     45  SG       -55.9730  -29.3230    6.5940 S.3   156  CYS156     -0.0801
     46  N        -62.5120  -37.7830   11.0930 N.3   189  VAL189     -0.1245
     47  CA       -62.1500  -38.6360    9.9710 C.3   189  VAL189      0.1561
     48  C        -62.0360  -40.1110   10.3460 C.2   189  VAL189      0.2260
     49  O        -62.1580  -40.9620    9.4520 O.2   189  VAL189     -0.2867
     50  CB       -60.8500  -38.1380    9.3020 C.3   189  VAL189      0.0252
     51  CG1      -60.2410  -39.1550    8.3630 C.3   189  VAL189      0.0019
     52  CG2      -61.1250  -36.8070    8.5820 C.3   189  VAL189      0.0019
     53  N        -62.7370  -43.3040   10.3480 N.3   191  PHE191     -0.1241
     54  CA       -63.7170  -44.2050    9.7700 C.3   191  PHE191      0.1605
     55  C        -63.2070  -45.6350    9.8560 C.2   191  PHE191      0.2264
     56  O        -62.0060  -45.8880    9.9860 O.2   191  PHE191     -0.2867
     57  CB       -64.0120  -43.8460    8.3070 C.3   191  PHE191      0.0534
     58  CG       -65.0320  -42.7580    8.1400 C.ar  191  PHE191     -0.0203
     59  CD1      -64.6390  -41.4440    7.9780 C.ar  191  PHE191     -0.0042
     60  CD2      -66.3820  -43.0490    8.1380 C.ar  191  PHE191     -0.0042
     61  CE1      -65.5720  -40.4370    7.8290 C.ar  191  PHE191     -0.0003
     62  CE2      -67.3230  -42.0440    7.9860 C.ar  191  PHE191     -0.0003
     63  CZ       -66.9160  -40.7390    7.8310 C.ar  191  PHE191     -0.0000
     64  N        -62.7630  -46.1280   -0.7690 N.3   198  HIS198     -0.1226
     65  CA       -62.3320  -44.8830   -0.1470 C.3   198  HIS198      0.1752
     66  C        -60.9090  -45.0000    0.3830 C.2   198  HIS198      0.2596
     67  O        -60.6980  -45.1110    1.5950 O.2   198  HIS198     -0.2718
     68  CB       -63.2850  -44.4950    0.9860 C.3   198  HIS198      0.0759
     69  CG       -63.3280  -43.0240    1.2680 C.ar  198  HIS198      0.0818
     70  ND1      -64.4790  -42.3770    1.6670 N.ar  198  HIS198     -0.2268
     71  CD2      -62.3620  -42.0760    1.2160 C.ar  198  HIS198      0.1154
     72  CE1      -64.2210  -41.0940    1.8450 C.ar  198  HIS198      0.1986
     73  NE2      -62.9440  -40.8850    1.5780 N.ar  198  HIS198     -0.2212
     74  N        -59.9270  -44.9740   -0.5170 N.am  199  LEU199     -0.1966
     75  CA       -58.5320  -45.0600   -0.1120 C.3   199  LEU199      0.1728
     76  C        -58.0110  -43.7630    0.4900 C.2   199  LEU199      0.2616
     77  O        -57.0350  -43.7980    1.2480 O.2   199  LEU199     -0.2715
     78  CB       -57.6620  -45.4420   -1.3110 C.3   199  LEU199      0.0311
     79  CG       -57.5480  -46.9300   -1.6340 C.3   199  LEU199      0.0022
     80  CD1      -56.4860  -47.1590   -2.6950 C.3   199  LEU199      0.0001
     81  CD2      -57.2290  -47.7140   -0.3790 C.3   199  LEU199      0.0001
     82  N        -58.6360  -42.6270    0.1740 N.am  200  ASP200     -0.1957
     83  CA       -58.1050  -41.3390    0.6100 C.3   200  ASP200      0.1840
     84  C        -58.2060  -41.1600    2.1170 C.2   200  ASP200      0.2621
     85  O        -57.3750  -40.4620    2.7090 O.2   200  ASP200     -0.2715
     86  CB       -58.8330  -40.2040   -0.1090 C.3   200  ASP200      0.1450
     87  CG       -58.9270  -40.4310   -1.6040 C.2   200  ASP200      0.3671
     88  OD1      -57.9430  -40.9300   -2.1850 O.co2 200  ASP200     -0.2456
     89  OD2      -59.9810  -40.1120   -2.1960 O.co2 200  ASP200     -0.2456
     90  N        -59.2080  -41.7690    2.7560 N.am  201  LEU201     -0.1977
     91  CA       -59.3090  -41.6660    4.2080 C.3   201  LEU201      0.1596
     92  C        -58.1160  -42.3130    4.8940 C.2   201  LEU201      0.2287
     93  O        -57.7090  -41.8710    5.9750 O.2   201  LEU201     -0.2864
     94  CB       -60.6210  -42.2850    4.7030 C.3   201  LEU201      0.0297
     95  CG       -60.8970  -43.7860    4.5710 C.3   201  LEU201      0.0022
     96  CD1      -60.3490  -44.5760    5.7520 C.3   201  LEU201      0.0001
     97  CD2      -62.3920  -44.0130    4.4440 C.3   201  LEU201      0.0001
     98  N        -54.9090  -42.2420    3.9100 N.3   203  VAL203     -0.1231
     99  CA       -53.8310  -41.2560    3.9120 C.3   203  VAL203      0.1692
    100  C        -54.3700  -39.9700    4.5280 C.2   203  VAL203      0.2592
    101  O        -53.6770  -38.9490    4.5930 O.2   203  VAL203     -0.2718
    102  CB       -53.2650  -41.0410    2.4910 C.3   203  VAL203      0.0266
    103  CG1      -54.2720  -40.3420    1.5940 C.3   203  VAL203      0.0020
    104  CG2      -51.9490  -40.2700    2.5350 C.3   203  VAL203      0.0020
    105  N        -55.6060  -40.0270    5.0100 N.am  204  GLY204     -0.1957
    106  CA       -56.1650  -38.9620    5.8120 C.3   204  GLY204      0.1869
    107  C        -56.0630  -39.2940    7.2850 C.2   204  GLY204      0.2309
    108  O        -56.0420  -38.4000    8.1370 O.2   204  GLY204     -0.2863
    109  N        -51.9240  -39.3120    8.9280 N.3   207  LEU207     -0.1231
    110  CA       -51.2480  -38.0330    9.1180 C.3   207  LEU207      0.1693
    111  C        -51.8440  -37.1920   10.2320 C.2   207  LEU207      0.2592
    112  O        -51.1000  -36.6340   11.0430 O.2   207  LEU207     -0.2718
    113  CB       -51.2840  -37.2060    7.8180 C.3   207  LEU207      0.0284
    114  CG       -50.7160  -37.7810    6.5210 C.3   207  LEU207      0.0019
    115  CD1      -51.0760  -36.8840    5.3440 C.3   207  LEU207      0.0001
    116  CD2      -49.2130  -37.9610    6.6220 C.3   207  LEU207      0.0001
    117  N        -53.1680  -37.0910   10.2980 N.am  208  PHE208     -0.1976
    118  CA       -53.8130  -36.0600   11.0960 C.3   208  PHE208      0.1639
    119  C        -53.8180  -36.4020   12.5810 C.2   208  PHE208      0.2290
    120  O        -54.0640  -37.5460   12.9740 O.2   208  PHE208     -0.2864
    121  CB       -55.2390  -35.8290   10.6000 C.3   208  PHE208      0.0560
    122  CG       -55.3160  -34.9350    9.3980 C.ar  208  PHE208     -0.0200
    123  CD1      -54.8970  -35.3870    8.1590 C.ar  208  PHE208     -0.0042
    124  CD2      -55.7850  -33.6370    9.5100 C.ar  208  PHE208     -0.0042
    125  CE1      -54.9550  -34.5650    7.0520 C.ar  208  PHE208     -0.0003
    126  CE2      -55.8450  -32.8100    8.4040 C.ar  208  PHE208     -0.0003
    127  CZ       -55.4290  -33.2750    7.1750 C.ar  208  PHE208     -0.0000
    128  N        -60.2720  -30.5460   -2.7940 N.3   247  ILE247     -0.1245
    129  CA       -60.5790  -31.0880   -1.4760 C.3   247  ILE247      0.1561
    130  C        -62.0540  -30.8180   -1.2150 C.2   247  ILE247      0.2260
    131  O        -62.4670  -29.6560   -1.1110 O.2   247  ILE247     -0.2867
    132  CB       -59.7110  -30.4750   -0.3660 C.3   247  ILE247      0.0252
    133  CG1      -58.2360  -30.4700   -0.7700 C.3   247  ILE247      0.0019
    134  CG2      -59.8980  -31.2380    0.9350 C.3   247  ILE247      0.0019
    135  CD1      -57.4190  -29.4370   -0.0430 C.3   247  ILE247      0.0001
    136  N        -68.1370  -36.2560    8.3720 N.3   256  LEU256     -0.1245
    137  CA       -67.5890  -35.4260    7.3050 C.3   256  LEU256      0.1561
    138  C        -66.8360  -36.3250    6.3300 C.2   256  LEU256      0.2260
    139  O        -65.7420  -36.8100    6.6390 O.2   256  LEU256     -0.2867
    140  CB       -66.6800  -34.3400    7.8750 C.3   256  LEU256      0.0270
    141  CG       -66.2010  -33.2710    6.8910 C.3   256  LEU256      0.0019
    142  CD1      -67.2410  -32.1700    6.7340 C.3   256  LEU256      0.0001
    143  CD2      -64.8680  -32.6950    7.3390 C.3   256  LEU256      0.0001
    144  N        -64.6620  -36.7580    3.1930 N.3   258  ILE258     -0.1245
    145  CA       -63.7190  -35.9880    2.3900 C.3   258  ILE258      0.1561
    146  C        -63.1690  -36.8850    1.2910 C.2   258  ILE258      0.2260
    147  O        -62.7180  -38.0050    1.5600 O.2   258  ILE258     -0.2867
    148  CB       -62.5780  -35.4130    3.2470 C.3   258  ILE258      0.0252
    149  CG1      -63.1320  -34.4620    4.3080 C.3   258  ILE258      0.0019
    150  CG2      -61.5670  -34.6910    2.3710 C.3   258  ILE258      0.0019
    151  CD1      -62.0600  -33.7640    5.1130 C.3   258  ILE258      0.0001
    152  N        -60.7660  -36.6200   -2.5450 N.3   260  LEU260     -0.1245
    153  CA       -59.8330  -35.8000   -3.3030 C.3   260  LEU260      0.1561
    154  C        -59.9370  -36.1190   -4.7880 C.2   260  LEU260      0.2260
    155  O        -60.0150  -37.2880   -5.1820 O.2   260  LEU260     -0.2867
    156  CB       -58.3930  -36.0160   -2.8270 C.3   260  LEU260      0.0270
    157  CG       -58.1050  -35.9230   -1.3260 C.3   260  LEU260      0.0019
    158  CD1      -56.6120  -35.7410   -1.0870 C.3   260  LEU260      0.0001
    159  CD2      -58.8920  -34.7980   -0.6660 C.3   260  LEU260      0.0001
    160  N        -54.3940  -33.7130   -7.5330 N.3   263  ASP263     -0.1225
    161  CA       -53.1490  -33.9030   -6.7940 C.3   263  ASP263      0.1805
    162  C        -52.7230  -32.5790   -6.1680 C.2   263  ASP263      0.2598
    163  O        -52.2240  -31.6850   -6.8600 O.2   263  ASP263     -0.2718
    164  CB       -52.0720  -34.4480   -7.7240 C.3   263  ASP263      0.1424
    165  CG       -50.6890  -34.3800   -7.1190 C.2   263  ASP263      0.3668
    166  OD1      -49.9780  -33.3860   -7.3680 O.co2 263  ASP263     -0.2456
    167  OD2      -50.3090  -35.3240   -6.3960 O.co2 263  ASP263     -0.2456
    168  N        -52.9090  -32.4530   -4.8570 N.am  264  VAL264     -0.1966
    169  CA       -52.6370  -31.2030   -4.1500 C.3   264  VAL264      0.1712
    170  C        -51.1450  -30.9150   -3.9700 C.2   264  VAL264      0.2458
    171  O        -50.7940  -29.7420   -3.7800 O.2   264  VAL264     -0.2730
    172  CB       -53.3680  -31.1690   -2.7950 C.3   264  VAL264      0.0289
    173  CG1      -54.7990  -31.6710   -2.9530 C.3   264  VAL264      0.0023
    174  CG2      -52.6270  -31.9640   -1.7310 C.3   264  VAL264      0.0023
    175  N        -50.2100  -31.9060   -4.0100 N.am  265  PRO265     -0.2727
    176  CA       -48.7900  -31.5200   -4.0150 C.3   265  PRO265      0.1402
    177  C        -48.4010  -30.7770   -5.2850 C.2   265  PRO265      0.2269
    178  O        -47.7800  -29.7100   -5.2250 O.2   265  PRO265     -0.2865
    179  CB       -48.0580  -32.8630   -3.8950 C.3   265  PRO265      0.0296
    180  CG       -49.0290  -33.7500   -3.2260 C.3   265  PRO265      0.0237
    181  CD       -50.3440  -33.3630   -3.8210 C.3   265  PRO265      0.0939
    182  N        -49.2660  -30.3290    5.1990 N.3   298  GLY298     -0.1210
    183  CA       -50.2800  -31.2480    4.7110 C.3   298  GLY298      0.1956
    184  C        -49.7750  -32.6760    4.6720 C.2   298  GLY298      0.2612
    185  O        -50.5040  -33.6150    5.0000 O.2   298  GLY298     -0.2717
    186  N        -48.5130  -32.8530    4.2940 N.am  299  GLY299     -0.1942
    187  CA       -47.8620  -34.1400    4.3000 C.3   299  GLY299      0.1998
    188  C        -46.3820  -33.9870    4.0170 C.2   299  GLY299      0.2481
    189  O        -45.8480  -32.8740    3.9800 O.2   299  GLY299     -0.2729
    190  N        -45.6860  -35.1030    3.8200 N.am  300  PRO300     -0.2715
    191  CA       -44.2580  -35.0250    3.4850 C.3   300  PRO300      0.1536
    192  C        -44.0190  -34.6320    2.0350 C.2   300  PRO300      0.2599
    193  O        -43.0660  -33.9080    1.7330 O.2   300  PRO300     -0.2715
    194  CB       -43.7540  -36.4440    3.7720 C.3   300  PRO300      0.0310
    195  CG       -44.9560  -37.3080    3.5970 C.3   300  PRO300      0.0237
    196  CD       -46.1330  -36.4890    4.0430 C.3   300  PRO300      0.0939
    197  N        -44.8820  -35.0960    1.1300 N.am  301  THR301     -0.1937
    198  CA       -44.6420  -34.8810   -0.2930 C.3   301  THR301      0.2028
    199  C        -44.9540  -33.4490   -0.7100 C.2   301  THR301      0.2642
    200  O        -44.2420  -32.8770   -1.5450 O.2   301  THR301     -0.2714
    201  CB       -45.4590  -35.8780   -1.1160 C.3   301  THR301      0.1808
    202  OG1      -44.8360  -37.1660   -1.0480 O.3   301  THR301     -0.2208
    203  CG2      -45.5520  -35.4490   -2.5760 C.3   301  THR301      0.0379
    204  N        -46.0000  -32.8480   -0.1350 N.am  302  ILE302     -0.1977
    205  CA       -46.3270  -31.4640   -0.4690 C.3   302  ILE302      0.1596
    206  C        -45.1520  -30.5500   -0.1440 C.2   302  ILE302      0.2287
    207  O        -44.8350  -29.6280   -0.9050 O.2   302  ILE302     -0.2864
    208  CB       -47.6180  -31.0220    0.2470 C.3   302  ILE302      0.0276
    209  CG1      -48.0090  -29.6040   -0.1770 C.3   302  ILE302      0.0022
    210  CG2      -47.4710  -31.1080    1.7590 C.3   302  ILE302      0.0022
    211  CD1      -49.2120  -29.0540    0.5590 C.3   302  ILE302      0.0001
    212  N        -50.1350  -33.8450   11.1560 N.3   329  ASN329     -0.1240
    213  CA       -50.9600  -32.7550   10.6540 C.3   329  ASN329      0.1653
    214  C        -52.0510  -32.4450   11.6710 C.2   329  ASN329      0.2266
    215  O        -52.8240  -33.3300   12.0490 O.2   329  ASN329     -0.2867
    216  CB       -51.5630  -33.1280    9.3010 C.3   329  ASN329      0.1155
    217  CG       -52.2070  -31.9500    8.5960 C.2   329  ASN329      0.2627
    218  OD1      -52.5480  -30.9430    9.2180 O.2   329  ASN329     -0.2716
    219  ND2      -52.3790  -32.0730    7.2870 N.am  329  ASN329     -0.0877
    220  N        -59.0580  -26.5170    1.3530 N.3   368  PRO368     -0.2116
    221  CA       -60.1370  -26.6930    0.3740 C.3   368  PRO368      0.1372
    222  C        -60.3810  -25.4360   -0.4480 C.2   368  PRO368      0.2244
    223  O        -60.4400  -24.3230    0.0780 O.2   368  PRO368     -0.2868
    224  CB       -61.3480  -27.0380    1.2460 C.3   368  PRO368      0.0268
    225  CG       -60.7520  -27.6380    2.4830 C.3   368  PRO368      0.0207
    226  CD       -59.4710  -26.8970    2.7140 C.3   368  PRO368      0.0892
@<TRIPOS>BOND
     1   164   165    1
     2   164   161    1
     3   160   161    1
     4   166   165   ar
     5   165   167   ar
     6   163   162    2
     7   161   162    1
     8   162   168   am
     9   177   178    2
    10   177   176    1
    11   155   154    2
    12   168   169    1
    13   154   153    1
    14   169   170    1
    15   169   172    1
    16   176   175    1
    17   176   179    1
    18   175   170   am
    19   175   181    1
    20   170   171    2
    21   179   180    1
    22   181   180    1
    23   153   156    1
    24   153   152    1
    25   173   172    1
    26   156   157    1
    27   172   174    1
    28   128   129    1
    29     9     8    1
    30    80    79    1
    31   203   201    1
    32    89    87   ar
    33    20    18    1
    34    88    87   ar
    35    79    78    1
    36    79    81    1
    37    87    86    1
    38   200   199    2
    39     8     7    1
    40   129   130    1
    41   129   132    1
    42   157   158    1
    43   157   159    1
    44    78    75    1
    45   130   131    2
    46    18    19    1
    47    18    17    2
    48   201   202    1
    49   201   198    1
    50   207   206    2
    51     7     6    1
    52   133   132    1
    53   133   135    1
    54    64    65    1
    55   199   198    1
    56   199   204   am
    57    38    37    1
    58    74    75    1
    59    74    66   am
    60   205   206    1
    61   205   204    1
    62   205   208    1
    63   222   223    2
    64   222   221    1
    65   132   134    1
    66   198   197    1
    67    17    16    1
    68   209   208    1
    69   209   211    1
    70    65    66    1
    71    65    68    1
    72    75    76    1
    73    86    83    1
    74    39    37    1
    75    82    76   am
    76    82    83    1
    77   208   210    1
    78    37    36    2
    79   221   224    1
    80   221   220    1
    81    66    67    2
    82    76    77    2
    83     6     5    1
    84    83    84    1
    85    16    15    1
    86    68    69    1
    87   197   192   am
    88    71    69   ar
    89    71    73   ar
    90   224   225    1
    91    69    70   ar
    92   146   147    2
    93   146   145    1
    94    36    35    1
    95   220   226    1
    96     5     2    1
    97    73    72   ar
    98   103   102    1
    99    70    72   ar
   100    35    34    1
   101   193   192    2
   102     2     1    1
   103     2     3    1
   104   192   191    1
   105    84    85    2
   106    84    90   am
   107    15    14    1
   108   150   148    1
   109   145   144    1
   110   145   148    1
   111    14    11    1
   112   225   226    1
   113    34    33    1
   114   102   104    1
   115   102    99    1
   116    90    91    1
   117    27    26    1
   118    27    28    1
   119    26    25    1
   120     4     3    2
   121    33    30    1
   122   148   149    1
   123   191   194    1
   124   191   190    1
   125   195   194    1
   126   195   196    1
   127   190   188   am
   128   190   196    1
   129    11    12    1
   130    11    10    1
   131    98    99    1
   132    99   100    1
   133   189   188    2
   134    12    13    2
   135    12    21   am
   136   188   187    1
   137    21    22    1
   138    91    94    1
   139    91    92    1
   140    25    22    1
   141    22    23    1
   142   186   187    1
   143   186   184   am
   144   149   151    1
   145    32    31    2
   146    97    95    1
   147   100   101    2
   148   100   105   am
   149    30    31    1
   150    30    29    1
   151    95    94    1
   152    95    96    1
   153   184   183    1
   154   184   185    2
   155   183   182    1
   156    92    93    2
   157   105   106    1
   158   115   114    1
   159    23    24    2
   160   106   107    1
   161    44    45    1
   162    44    41    1
   163    40    41    1
   164   138   139    2
   165   138   137    1
   166    42    43    2
   167    42    41    1
   168   114   116    1
   169   114   113    1
   170   142   141    1
   171   141   143    1
   172   141   140    1
   173   125   127   ar
   174   125   123   ar
   175   127   126   ar
   176   107   108    2
   177   219   217   am
   178   137   140    1
   179   137   136    1
   180   113   110    1
   181    61    63   ar
   182    61    59   ar
   183    63    62   ar
   184    59    58   ar
   185    62    60   ar
   186    60    58   ar
   187    58    57    1
   188   123   122   ar
   189    57    54    1
   190    51    50    1
   191   126   124   ar
   192    52    50    1
   193   217   218    2
   194   217   216    1
   195   109   110    1
   196   110   111    1
   197   216   213    1
   198    50    47    1
   199   122   124   ar
   200   122   121    1
   201    49    48    2
   202    54    55    1
   203    54    53    1
   204    55    56    2
   205    47    48    1
   206    47    46    1
   207   111   117   am
   208   111   112    2
   209   117   118    1
   210   121   118    1
   211   213   212    1
   212   213   214    1
   213   118   119    1
   214   214   215    2
   215   119   120    2
