@<TRIPOS>MOLECULE
tmp/6cojB00.pdb
 219 208 0 0 0
SMALL
GASTEIGER

@<TRIPOS>ATOM
      1  N        -24.3340    8.0530  -10.8450 N.3    28  MET28      -0.1245
      2  CA       -23.6950    7.5850  -12.0720 C.3    28  MET28       0.1570
      3  C        -24.0240    8.4670  -13.2730 C.2    28  MET28       0.2261
      4  O        -23.9470    8.0040  -14.4150 O.2    28  MET28      -0.2867
      5  CB       -24.0630    6.1260  -12.3620 C.3    28  MET28       0.0387
      6  CG       -23.6500    5.1430  -11.2770 C.3    28  MET28       0.0595
      7  SD       -21.9060    4.7010  -11.3600 S.3    28  MET28      -0.1393
      8  CE       -21.7690    3.5950   -9.9500 C.3    28  MET28       0.0692
      9  N        -12.0130   -0.6770   -7.2490 N.3    75  PHE75      -0.1241
     10  CA       -13.2000   -1.4490   -7.6320 C.3    75  PHE75       0.1605
     11  C        -13.4240   -2.6630   -6.7290 C.2    75  PHE75       0.2264
     12  O        -14.5720   -2.9790   -6.3820 O.2    75  PHE75      -0.2867
     13  CB       -13.1240   -1.8770   -9.0980 C.3    75  PHE75       0.0534
     14  CG       -13.3370   -0.7570  -10.0710 C.ar   75  PHE75      -0.0203
     15  CD1      -14.4750    0.0320  -10.0120 C.ar   75  PHE75      -0.0042
     16  CD2      -12.3840   -0.4770  -11.0280 C.ar   75  PHE75      -0.0042
     17  CE1      -14.6560    1.0670  -10.9210 C.ar   75  PHE75      -0.0003
     18  CE2      -12.5610    0.5500  -11.9380 C.ar   75  PHE75      -0.0003
     19  CZ       -13.6820    1.3250  -11.8850 C.ar   75  PHE75      -0.0000
     20  N        -15.2690   -1.5200   -3.8230 N.3    78  VAL78      -0.1231
     21  CA       -16.6550   -1.1680   -4.1200 C.3    78  VAL78       0.1692
     22  C        -17.5660   -2.3810   -3.9530 C.2    78  VAL78       0.2592
     23  O        -18.6600   -2.2730   -3.3890 O.2    78  VAL78      -0.2718
     24  CB       -16.7780   -0.5490   -5.5210 C.3    78  VAL78       0.0266
     25  CG1      -18.2520   -0.2800   -5.8500 C.3    78  VAL78       0.0020
     26  CG2      -15.9640    0.7330   -5.6070 C.3    78  VAL78       0.0020
     27  N        -17.1270   -3.5570   -4.4170 N.am   79  PHE79      -0.1976
     28  CA       -17.9350   -4.7590   -4.2350 C.3    79  PHE79       0.1639
     29  C        -18.1540   -5.0850   -2.7640 C.2    79  PHE79       0.2290
     30  O        -19.2290   -5.5680   -2.3950 O.2    79  PHE79      -0.2864
     31  CB       -17.3280   -5.9290   -5.0100 C.3    79  PHE79       0.0560
     32  CG       -17.3660   -5.7270   -6.4920 C.ar   79  PHE79      -0.0200
     33  CD1      -18.5630   -5.4010   -7.1260 C.ar   79  PHE79      -0.0042
     34  CD2      -16.2130   -5.8310   -7.2450 C.ar   79  PHE79      -0.0042
     35  CE1      -18.5990   -5.1860   -8.5000 C.ar   79  PHE79      -0.0003
     36  CE2      -16.2440   -5.6260   -8.6250 C.ar   79  PHE79      -0.0003
     37  CZ       -17.4340   -5.2990   -9.2420 C.ar   79  PHE79      -0.0000
     38  N        -20.9250   -2.6250   -1.7360 N.3    82  VAL82      -0.1245
     39  CA       -22.2120   -3.1170   -2.2240 C.3    82  VAL82       0.1561
     40  C        -22.7470   -4.1960   -1.2970 C.2    82  VAL82       0.2260
     41  O        -23.8910   -4.1350   -0.8270 O.2    82  VAL82      -0.2867
     42  CB       -22.0800   -3.6440   -3.6640 C.3    82  VAL82       0.0252
     43  CG1      -23.3690   -4.3710   -4.0600 C.3    82  VAL82       0.0019
     44  CG2      -21.7760   -2.5180   -4.6450 C.3    82  VAL82       0.0019
     45  N        -24.8390    1.9310    1.0680 N.3    87  ARG87      -0.1245
     46  CA       -24.6810    2.6090   -0.2120 C.3    87  ARG87       0.1563
     47  C        -26.0530    2.9360   -0.7770 C.2    87  ARG87       0.2260
     48  O        -27.0320    2.2310   -0.5050 O.2    87  ARG87      -0.2867
     49  CB       -23.9200    1.7010   -1.1860 C.3    87  ARG87       0.0307
     50  CG       -23.5710    2.3140   -2.5440 C.3    87  ARG87       0.0489
     51  CD       -22.5100    1.4730   -3.2200 C.3    87  ARG87       0.2205
     52  NE       -22.1560    1.9690   -4.5530 N.pl3  87  ARG87      -0.0865
     53  CZ       -22.6130    1.4570   -5.6930 C.cat  87  ARG87       0.5346
     54  NH1      -23.4710    0.4390   -5.6970 N.pl3  87  ARG87       0.1354
     55  NH2      -22.1940    1.9770   -6.8400 N.pl3  87  ARG87       0.1354
     56  N        -27.0850    3.9980   -4.7440 N.3    89  VAL89      -0.1245
     57  CA       -26.6240    4.2670   -6.1030 C.3    89  VAL89       0.1561
     58  C        -27.7340    4.9860   -6.8540 C.2    89  VAL89       0.2260
     59  O        -28.9240    4.7670   -6.6080 O.2    89  VAL89      -0.2867
     60  CB       -26.2000    2.9580   -6.8150 C.3    89  VAL89       0.0252
     61  CG1      -27.3970    2.0480   -7.0620 C.3    89  VAL89       0.0019
     62  CG2      -25.4700    3.2520   -8.1410 C.3    89  VAL89       0.0019
     63  N        -28.5380    5.0990  -10.7500 N.3    91  MET91      -0.1230
     64  CA       -28.1920    4.6240  -12.0850 C.3    91  MET91       0.1702
     65  C        -29.0330    5.3140  -13.1480 C.2    91  MET91       0.2593
     66  O        -30.1110    5.8460  -12.8770 O.2    91  MET91      -0.2718
     67  CB       -28.4170    3.1130  -12.1900 C.3    91  MET91       0.0401
     68  CG       -27.4360    2.2970  -11.3540 C.3    91  MET91       0.0596
     69  SD       -27.6240    0.5140  -11.5570 S.3    91  MET91      -0.1393
     70  CE       -29.0690    0.1630  -10.5590 C.3    91  MET91       0.0692
     71  N        -28.5110    5.3130  -14.3750 N.am   92  GLY92      -0.1942
     72  CA       -29.3260    5.5900  -15.5340 C.3    92  GLY92       0.2014
     73  C        -30.0820    4.3430  -15.9600 C.2    92  GLY92       0.2639
     74  O        -30.0310    3.2960  -15.3120 O.2    92  GLY92      -0.2714
     75  N        -30.7890    4.4540  -17.0850 N.am   93  ALA93      -0.1963
     76  CA       -31.6280    3.3420  -17.5140 C.3    93  ALA93       0.1728
     77  C        -32.0320    3.5110  -18.9650 C.2    93  ALA93       0.2616
     78  O        -32.5070    4.5780  -19.3560 O.2    93  ALA93      -0.2715
     79  CB       -32.9020    3.2530  -16.6680 C.3    93  ALA93       0.0334
     80  N        -31.8900    2.4380  -19.7410 N.am   94  ASN94      -0.1972
     81  CA       -32.4810    2.4040  -21.0740 C.3    94  ASN94       0.1688
     82  C        -33.9780    2.1030  -21.0180 C.2    94  ASN94       0.2292
     83  O        -34.7440    2.6190  -21.8420 O.2    94  ASN94      -0.2864
     84  CB       -31.7610    1.3550  -21.9220 C.3    94  ASN94       0.1181
     85  CG       -30.3120    1.7200  -22.1970 C.2    94  ASN94       0.2629
     86  OD1      -29.4110    1.2780  -21.4910 O.2    94  ASN94      -0.2716
     87  ND2      -30.0860    2.5070  -23.2350 N.am   94  ASN94      -0.0877
     88  N        -30.1210   -1.8000  -18.5530 N.3   104  LEU104     -0.1245
     89  CA       -29.0350   -1.0800  -19.2130 C.3   104  LEU104      0.1561
     90  C        -28.1050   -2.0400  -19.9490 C.2   104  LEU104      0.2260
     91  O        -26.9920   -1.6560  -20.3350 O.2   104  LEU104     -0.2867
     92  CB       -28.2600   -0.1870  -18.2360 C.3   104  LEU104      0.0270
     93  CG       -27.8810   -0.7770  -16.8760 C.3   104  LEU104      0.0019
     94  CD1      -26.9930   -2.0160  -16.9990 C.3   104  LEU104      0.0001
     95  CD2      -27.2000    0.2900  -16.0060 C.3   104  LEU104      0.0001
     96  N        -30.8690   -4.4670  -25.9240 N.3   107  PHE107     -0.1227
     97  CA       -32.2270   -4.6460  -26.4180 C.3   107  PHE107      0.1736
     98  C        -32.2970   -5.9480  -27.2030 C.2   107  PHE107      0.2596
     99  O        -31.3270   -6.3390  -27.8490 O.2   107  PHE107     -0.2718
    100  CB       -32.6390   -3.4970  -27.3440 C.3   107  PHE107      0.0547
    101  CG       -32.8410   -2.1840  -26.6390 C.ar  107  PHE107     -0.0202
    102  CD1      -33.9320   -1.9900  -25.8050 C.ar  107  PHE107     -0.0042
    103  CD2      -31.9550   -1.1360  -26.8280 C.ar  107  PHE107     -0.0042
    104  CE1      -34.1210   -0.7790  -25.1540 C.ar  107  PHE107     -0.0003
    105  CE2      -32.1400    0.0740  -26.1830 C.ar  107  PHE107     -0.0003
    106  CZ       -33.2200    0.2520  -25.3420 C.ar  107  PHE107     -0.0000
    107  N        -33.4530   -6.6210  -27.1470 N.am  108  GLY108     -0.1957
    108  CA       -33.6770   -7.8220  -27.9240 C.3   108  GLY108      0.1869
    109  C        -33.3230   -9.0970  -27.1950 C.2   108  GLY108      0.2309
    110  O        -33.0910   -9.1030  -25.9830 O.2   108  GLY108     -0.2863
    111  N        -30.7100   -7.0100  -30.4940 N.3   114  THR114     -0.1203
    112  CA       -30.7980   -6.0970  -31.6260 C.3   114  THR114      0.1994
    113  C        -29.9490   -4.8510  -31.4200 C.2   114  THR114      0.2617
    114  O        -29.6200   -4.1700  -32.3970 O.2   114  THR114     -0.2717
    115  CB       -32.2560   -5.7210  -31.8940 C.3   114  THR114      0.1784
    116  OG1      -32.8430   -5.2270  -30.6850 O.3   114  THR114     -0.2211
    117  CG2      -33.0340   -6.9440  -32.3730 C.3   114  THR114      0.0376
    118  N        -29.5820   -4.5450  -30.1780 N.am  115  ARG115     -0.1979
    119  CA       -28.6690   -3.4490  -29.8950 C.3   115  ARG115      0.1597
    120  C        -27.9570   -3.7600  -28.5910 C.2   115  ARG115      0.2287
    121  O        -28.5950   -4.1780  -27.6230 O.2   115  ARG115     -0.2864
    122  CB       -29.4090   -2.1170  -29.7750 C.3   115  ARG115      0.0334
    123  CG       -28.4740   -0.9520  -29.5610 C.3   115  ARG115      0.0492
    124  CD       -29.2320    0.3160  -29.2740 C.3   115  ARG115      0.2205
    125  NE       -28.3720    1.4860  -29.3860 N.pl3 115  ARG115     -0.0865
    126  CZ       -28.0140    2.2450  -28.3550 C.cat 115  ARG115      0.5346
    127  NH1      -28.4520    1.9480  -27.1340 N.pl3 115  ARG115      0.1354
    128  NH2      -27.2240    3.3020  -28.5410 N.pl3 115  ARG115      0.1354
    129  N        -25.6700   -2.6750  -25.3190 N.3   117  MET117     -0.1230
    130  CA       -25.1770   -1.6150  -24.4510 C.3   117  MET117      0.1702
    131  C        -24.0610   -2.1650  -23.5650 C.2   117  MET117      0.2592
    132  O        -23.1470   -2.8270  -24.0660 O.2   117  MET117     -0.2718
    133  CB       -26.3240   -0.9300  -23.6950 C.3   117  MET117      0.0401
    134  CG       -27.2660   -0.1400  -24.6440 C.3   117  MET117      0.0596
    135  SD       -28.5830   -1.1160  -25.4010 S.3   117  MET117     -0.1393
    136  CE       -29.7600   -1.1700  -24.0440 C.3   117  MET117      0.0692
    137  N        -24.1170   -1.9180  -22.2570 N.am  118  PHE118     -0.1976
    138  CA       -22.9860   -2.2420  -21.3950 C.3   118  PHE118      0.1639
    139  C        -22.9690   -3.6790  -20.9130 C.2   118  PHE118      0.2290
    140  O        -21.9390   -4.1170  -20.3820 O.2   118  PHE118     -0.2864
    141  CB       -23.0270   -1.3820  -20.1330 C.3   118  PHE118      0.0560
    142  CG       -22.6460    0.0410  -20.3520 C.ar  118  PHE118     -0.0200
    143  CD1      -21.3700    0.3770  -20.7560 C.ar  118  PHE118     -0.0042
    144  CD2      -23.5680    1.0550  -20.1160 C.ar  118  PHE118     -0.0042
    145  CE1      -21.0060    1.7040  -20.9430 C.ar  118  PHE118     -0.0003
    146  CE2      -23.2140    2.3780  -20.2950 C.ar  118  PHE118     -0.0003
    147  CZ       -21.9300    2.7020  -20.6960 C.ar  118  PHE118     -0.0000
    148  N        -23.5890   -4.7760  -15.8780 N.3   121  ARG121     -0.1231
    149  CA       -22.7320   -4.0270  -14.9570 C.3   121  ARG121      0.1694
    150  C        -22.9840   -4.4420  -13.5080 C.2   121  ARG121      0.2593
    151  O        -23.1280   -5.6340  -13.2290 O.2   121  ARG121     -0.2718
    152  CB       -22.8960   -2.5120  -15.1600 C.3   121  ARG121      0.0321
    153  CG       -22.6820   -2.0550  -16.6220 C.3   121  ARG121      0.0489
    154  CD       -21.8690   -0.7710  -16.6860 C.3   121  ARG121      0.2205
    155  NE       -20.4520   -1.0430  -16.4340 N.pl3 121  ARG121     -0.0865
    156  CZ       -19.4520   -0.2300  -16.7630 C.cat 121  ARG121      0.5346
    157  NH1      -19.6970    0.9310  -17.3690 N.pl3 121  ARG121      0.1354
    158  NH2      -18.2020   -0.5900  -16.5060 N.pl3 121  ARG121      0.1354
    159  N        -23.0620   -3.4750  -12.5960 N.am  122  GLY122     -0.1942
    160  CA       -23.3900   -3.7520  -11.2110 C.3   122  GLY122      0.2014
    161  C        -24.8590   -3.6480  -10.8700 C.2   122  GLY122      0.2638
    162  O        -25.2000   -3.7270   -9.6850 O.2   122  GLY122     -0.2714
    163  N        -25.7430   -3.4780  -11.8540 N.am  123  ALA123     -0.1977
    164  CA       -27.1590   -3.2870  -11.5390 C.3   123  ALA123      0.1597
    165  C        -27.7840   -4.4370  -10.7510 C.2   123  ALA123      0.2287
    166  O        -28.5530   -4.1520   -9.8120 O.2   123  ALA123     -0.2864
    167  CB       -27.9520   -2.9330  -12.8070 C.3   123  ALA123      0.0319
    168  N        -26.4900   -4.1230   -7.1660 N.3   126  ASN126     -0.1240
    169  CA       -26.9950   -2.9140   -6.5200 C.3   126  ASN126      0.1653
    170  C        -28.4200   -3.1210   -6.0410 C.2   126  ASN126      0.2266
    171  O        -28.7470   -2.8700   -4.8730 O.2   126  ASN126     -0.2867
    172  CB       -26.9790   -1.7570   -7.5190 C.3   126  ASN126      0.1155
    173  CG       -25.5810   -1.3040   -7.8660 C.2   126  ASN126      0.2627
    174  OD1      -24.6200   -1.6390   -7.1600 O.2   126  ASN126     -0.2716
    175  ND2      -25.4480   -0.5340   -8.9480 N.am  126  ASN126     -0.0877
    176  N        -32.1220    7.9330  -12.5570 N.3   135  TRP135     -0.1241
    177  CA       -32.2020    9.2360  -13.2040 C.3   135  TRP135      0.1605
    178  C        -32.4870    9.0390  -14.6870 C.2   135  TRP135      0.2264
    179  O        -31.8390    8.2150  -15.3390 O.2   135  TRP135     -0.2867
    180  CB       -30.8760    9.9900  -13.0410 C.3   135  TRP135      0.0550
    181  CG       -30.7000   11.0800  -14.0480 C.ar  135  TRP135      0.0003
    182  CD1      -29.8690   11.0680  -15.1400 C.ar  135  TRP135      0.0946
    183  CD2      -31.3990   12.3300  -14.0950 C.ar  135  TRP135      0.0152
    184  NE1      -30.0090   12.2350  -15.8550 N.ar  135  TRP135     -0.2442
    185  CE2      -30.9370   13.0290  -15.2320 C.ar  135  TRP135      0.0810
    186  CE3      -32.3680   12.9300  -13.2840 C.ar  135  TRP135      0.0012
    187  CZ2      -31.4140   14.2900  -15.5860 C.ar  135  TRP135      0.0191
    188  CZ3      -32.8380   14.1810  -13.6290 C.ar  135  TRP135      0.0001
    189  CH2      -32.3630   14.8530  -14.7740 C.ar  135  TRP135      0.0015
    190  N        -32.9460   11.5460  -18.0220 N.3   137  GLY137     -0.1225
    191  CA       -32.8960   12.9200  -18.4910 C.3   137  GLY137      0.1811
    192  C        -33.9050   13.2640  -19.5620 C.2   137  GLY137      0.2280
    193  O        -34.1660   14.4510  -19.7890 O.2   137  GLY137     -0.2866
    194  N        -40.5190    5.1240  -24.5270 N.3   142  ARG142     -0.1231
    195  CA       -39.5420    4.0810  -24.8180 C.3   142  ARG142      0.1694
    196  C        -38.7270    3.7210  -23.5830 C.2   142  ARG142      0.2591
    197  O        -38.3560    2.5550  -23.4040 O.2   142  ARG142     -0.2718
    198  CB       -38.6460    4.4870  -25.9890 C.3   142  ARG142      0.0321
    199  CG       -39.3850    4.5560  -27.3190 C.3   142  ARG142      0.0489
    200  CD       -38.4510    4.3220  -28.4990 C.3   142  ARG142      0.2205
    201  NE       -37.1610    4.9800  -28.3160 N.pl3 142  ARG142     -0.0865
    202  CZ       -36.3080    5.2480  -29.2990 C.cat 142  ARG142      0.5346
    203  NH1      -36.6000    4.9160  -30.5500 N.pl3 142  ARG142      0.1354
    204  NH2      -35.1600    5.8530  -29.0290 N.pl3 142  ARG142      0.1354
    205  N        -38.4480    4.6920  -22.7130 N.am  143  VAL143     -0.1980
    206  CA       -37.7980    4.3700  -21.4470 C.3   143  VAL143      0.1595
    207  C        -38.7840    3.7150  -20.4900 C.2   143  VAL143      0.2287
    208  O        -38.5250    2.6350  -19.9470 O.2   143  VAL143     -0.2864
    209  CB       -37.1420    5.6180  -20.8270 C.3   143  VAL143      0.0276
    210  CG1      -36.5780    5.2790  -19.4490 C.3   143  VAL143      0.0022
    211  CG2      -36.0540    6.1690  -21.7410 C.3   143  VAL143      0.0022
    212  N        -36.5420   -5.3370  -21.8230 N.3   149  ASP149     -0.1239
    213  CA       -36.0440   -6.4580  -22.6210 C.3   149  ASP149      0.1674
    214  C        -35.1800   -7.3930  -21.7830 C.2   149  ASP149      0.2266
    215  O        -35.2450   -8.6200  -21.9420 O.2   149  ASP149     -0.2867
    216  CB       -35.2090   -5.9580  -23.8030 C.3   149  ASP149      0.1410
    217  CG       -36.0200   -5.2350  -24.8490 C.2   149  ASP149      0.3668
    218  OD1      -37.1440   -4.7750  -24.5640 O.co2 149  ASP149     -0.2456
    219  OD2      -35.5030   -5.1280  -25.9730 O.co2 149  ASP149     -0.2456
@<TRIPOS>BOND
     1   114   113    2
     2   117   115    1
     3   115   112    1
     4   115   116    1
     5   112   113    1
     6   112   111    1
     7   113   118   am
     8   203   202    1
     9   118   119    1
    10   119   122    1
    11   119   120    1
    12   122   123    1
    13   123   124    1
    14   125   124    1
    15   125   126    2
    16   202   204    1
    17   202   201    2
    18   120   121    2
    19   128   126    1
    20   200   201    1
    21   200   199    1
    22   126   127    1
    23   108   109    1
    24   108   107    1
    25    99    98    2
    26   100   101    1
    27   100    97    1
    28   199   198    1
    29    98   107   am
    30    98    97    1
    31   109   110    2
    32   103   101   ar
    33   103   105   ar
    34   101   102   ar
    35    97    96    1
    36   105   106   ar
    37   198   195    1
    38   219   217   ar
    39   102   104   ar
    40   135   134    1
    41   135   136    1
    42   106   104   ar
    43   129   130    1
    44   217   218   ar
    45   217   216    1
    46   195   194    1
    47   195   196    1
    48   134   133    1
    49   130   133    1
    50   130   131    1
    51   132   131    2
    52   216   213    1
    53   196   197    2
    54   196   205   am
    55   131   137   am
    56    87    85   am
    57   205   206    1
    58   213   212    1
    59   213   214    1
    60   137   138    1
    61    85    84    1
    62    85    86    2
    63   215   214    2
    64    84    81    1
    65    83    82    2
    66   211   209    1
    67   206   209    1
    68   206   207    1
    69   138   139    1
    70   138   141    1
    71    81    82    1
    72    81    80    1
    73   145   143   ar
    74   145   147   ar
    75   139   140    2
    76   209   210    1
    77   143   142   ar
    78   147   146   ar
    79   207   208    2
    80   142   141    1
    81   142   144   ar
    82    91    90    2
    83   146   144   ar
    84    90    89    1
    85   193   192    2
    86    80    77   am
    87   192   191    1
    88    78    77    2
    89    89    88    1
    90    89    92    1
    91    77    76    1
    92   191   190    1
    93    92    93    1
    94    76    75    1
    95    76    79    1
    96   157   156    1
    97    75    73   am
    98    94    93    1
    99    93    95    1
   100   156   158    1
   101   156   155    2
   102   154   153    1
   103   154   155    1
   104   153   152    1
   105    73    72    1
   106    73    74    2
   107   148   149    1
   108   184   185   ar
   109   184   182   ar
   110   187   185   ar
   111   187   189   ar
   112    72    71    1
   113   179   178    2
   114   185   183   ar
   115   152   149    1
   116   182   181   ar
   117   149   150    1
   118   189   188   ar
   119   178   177    1
   120     4     3    2
   121    71    65   am
   122   183   181   ar
   123   183   186   ar
   124   181   180    1
   125   188   186   ar
   126   150   151    2
   127   150   159   am
   128     3     2    1
   129   177   180    1
   130   177   176    1
   131    65    66    2
   132    65    64    1
   133   167   164    1
   134   159   160    1
   135     5     2    1
   136     5     6    1
   137    67    64    1
   138    67    68    1
   139    64    63    1
   140     2     1    1
   141    18    19   ar
   142    18    16   ar
   143    19    17   ar
   144   163   164    1
   145   163   161   am
   146    69    68    1
   147    69    70    1
   148   164   165    1
   149     7     6    1
   150     7     8    1
   151   160   161    1
   152    16    14   ar
   153    17    15   ar
   154   161   162    2
   155   165   166    2
   156    14    15   ar
   157    14    13    1
   158    37    36   ar
   159    37    35   ar
   160    13    10    1
   161   175   173   am
   162    36    34   ar
   163    35    33   ar
   164    62    60    1
   165   173   172    1
   166   173   174    2
   167    10     9    1
   168    10    11    1
   169   172   169    1
   170    34    32   ar
   171   168   169    1
   172    33    32   ar
   173    61    60    1
   174    58    59    2
   175    58    57    1
   176    55    53    1
   177    60    57    1
   178    11    12    2
   179   169   170    1
   180    32    31    1
   181    57    56    1
   182   170   171    2
   183    25    24    1
   184    54    53    1
   185    53    52    2
   186    26    24    1
   187    24    21    1
   188    31    28    1
   189    44    42    1
   190    52    51    1
   191    27    28    1
   192    27    22   am
   193    28    29    1
   194    21    22    1
   195    21    20    1
   196    43    42    1
   197    22    23    2
   198    42    39    1
   199    51    50    1
   200    29    30    2
   201    50    49    1
   202    39    38    1
   203    39    40    1
   204    40    41    2
   205    49    46    1
   206    47    48    2
   207    47    46    1
   208    46    45    1
