@<TRIPOS>MOLECULE
tmp/6cp3L00.pdb
 134 127 0 0 0
SMALL
GASTEIGER

@<TRIPOS>ATOM
      1  N          4.7210  -20.8590   48.5620 N.3   170  ARG170     -0.1231
      2  CA         4.8140  -22.1810   49.1490 C.3   170  ARG170      0.1694
      3  C          5.0390  -23.2400   48.0790 C.2   170  ARG170      0.2591
      4  O          4.5760  -23.1100   46.9420 O.2   170  ARG170     -0.2718
      5  CB         3.5580  -22.4960   49.9460 C.3   170  ARG170      0.0321
      6  CG         2.3330  -22.5330   49.1010 C.3   170  ARG170      0.0489
      7  CD         1.1300  -22.8950   49.8770 C.3   170  ARG170      0.2205
      8  NE         0.0350  -23.1260   48.9570 N.pl3 170  ARG170     -0.0865
      9  CZ        -0.7940  -22.1840   48.5290 C.cat 170  ARG170      0.5346
     10  NH1       -0.6490  -20.9350   48.9430 N.pl3 170  ARG170      0.1354
     11  NH2       -1.7700  -22.4920   47.6870 N.pl3 170  ARG170      0.1354
     12  N          5.7620  -24.2870   48.4740 N.am  171  GLN171     -0.1979
     13  CA         6.2500  -25.3600   47.6080 C.3   171  GLN171      0.1601
     14  C          6.8700  -24.8200   46.3250 C.2   171  GLN171      0.2287
     15  O          6.4170  -25.0930   45.2170 O.2   171  GLN171     -0.2864
     16  CB         5.1590  -26.3790   47.3030 C.3   171  GLN171      0.0394
     17  CG         4.8800  -27.2980   48.4710 C.3   171  GLN171      0.0908
     18  CD         4.0010  -28.4650   48.0960 C.2   171  GLN171      0.2608
     19  OE1        3.5190  -28.5530   46.9690 O.2   171  GLN171     -0.2717
     20  NE2        3.8150  -29.3920   49.0310 N.am  171  GLN171     -0.0878
     21  N         10.5190  -24.5410   46.6010 N.3   173  GLY173     -0.1210
     22  CA        11.9010  -24.9020   46.7810 C.3   173  GLY173      0.1956
     23  C         12.7210  -23.9140   47.5670 C.2   173  GLY173      0.2612
     24  O         13.9200  -23.7760   47.3040 O.2   173  GLY173     -0.2717
     25  N         12.1120  -23.2100   48.5160 N.am  174  LYS174     -0.1965
     26  CA        12.8800  -22.3560   49.4090 C.3   174  LYS174      0.1728
     27  C         13.7920  -23.1980   50.2880 C.2   174  LYS174      0.2617
     28  O         14.9940  -22.9090   50.4330 O.2   174  LYS174     -0.2715
     29  CB        11.9240  -21.5380   50.2600 C.3   174  LYS174      0.0311
     30  CG        10.9700  -20.7230   49.4380 C.3   174  LYS174      0.0038
     31  CD        10.0880  -19.8820   50.3250 C.3   174  LYS174      0.0206
     32  CE         9.0830  -20.7300   51.0680 C.3   174  LYS174      0.1093
     33  NZ         8.0590  -21.2780   50.1630 N.3   174  LYS174     -0.1314
     34  N         13.2320  -24.2780   50.8380 N.am  175  THR175     -0.1937
     35  CA        13.9970  -25.2080   51.6490 C.3   175  THR175      0.2028
     36  C         15.0970  -25.8580   50.8300 C.2   175  THR175      0.2642
     37  O         16.1870  -26.1100   51.3490 O.2   175  THR175     -0.2714
     38  CB        13.0630  -26.2650   52.2260 C.3   175  THR175      0.1808
     39  OG1       11.9280  -25.6260   52.8180 O.3   175  THR175     -0.2208
     40  CG2       13.7410  -27.0490   53.3050 C.3   175  THR175      0.0379
     41  N         14.8600  -26.0530   49.5340 N.am  176  ALA176     -0.1977
     42  CA        15.8870  -26.6160   48.6660 C.3   176  ALA176      0.1597
     43  C         17.0510  -25.6580   48.4790 C.2   176  ALA176      0.2287
     44  O         18.2080  -26.0880   48.4570 O.2   176  ALA176     -0.2864
     45  CB        15.2890  -26.9780   47.3170 C.3   176  ALA176      0.0319
     46  N         20.7400  -26.5990   49.8350 N.3   180  ASP180     -0.1239
     47  CA        21.8910  -26.6580   48.9460 C.3   180  ASP180      0.1674
     48  C         22.9970  -25.7370   49.4160 C.2   180  ASP180      0.2266
     49  O         24.1840  -26.0720   49.2930 O.2   180  ASP180     -0.2867
     50  CB        21.4770  -26.2950   47.5300 C.3   180  ASP180      0.1410
     51  CG        20.6180  -27.3520   46.9030 C.2   180  ASP180      0.3668
     52  OD1       20.7570  -28.5190   47.3110 O.co2 180  ASP180     -0.2456
     53  OD2       19.8090  -27.0320   46.0090 O.co2 180  ASP180     -0.2456
     54  N          7.2630  -27.0140   61.3370 N.3   207  GLN207     -0.1245
     55  CA         7.1460  -28.0080   60.2920 C.3   207  GLN207      0.1566
     56  C          6.5570  -29.2750   60.8860 C.2   207  GLN207      0.2260
     57  O          6.1590  -29.3140   62.0500 O.2   207  GLN207     -0.2867
     58  CB         8.5020  -28.2590   59.6530 C.3   207  GLN207      0.0367
     59  CG         9.0120  -27.0640   58.9120 C.3   207  GLN207      0.0905
     60  CD        10.3880  -27.2990   58.3620 C.2   207  GLN207      0.2608
     61  OE1       11.0000  -28.3260   58.6360 O.2   207  GLN207     -0.2717
     62  NE2       10.8800  -26.3640   57.5650 N.am  207  GLN207     -0.0878
     63  N         13.9100  -21.3220   58.9670 N.3   268  ASP268     -0.1239
     64  CA        12.9660  -21.8500   57.9880 C.3   268  ASP268      0.1674
     65  C         11.7750  -22.3620   58.7880 C.2   268  ASP268      0.2266
     66  O         11.8450  -23.4500   59.3610 O.2   268  ASP268     -0.2867
     67  CB        13.5780  -22.9530   57.1490 C.3   268  ASP268      0.1410
     68  CG        12.5930  -23.5450   56.1790 C.2   268  ASP268      0.3668
     69  OD1       12.2350  -22.8470   55.2150 O.co2 268  ASP268     -0.2456
     70  OD2       12.1820  -24.7080   56.3680 O.co2 268  ASP268     -0.2456
     71  N          7.3010  -17.6920   53.8740 N.3   327  GLU327     -0.1245
     72  CA         6.2610  -18.3430   53.0920 C.3   327  GLU327      0.1567
     73  C          5.1630  -17.3280   52.8500 C.2   327  GLU327      0.2260
     74  O          4.3460  -17.0680   53.7280 O.2   327  GLU327     -0.2867
     75  CB         5.7260  -19.5550   53.8430 C.3   327  GLU327      0.0388
     76  CG         4.6240  -20.3120   53.1230 C.3   327  GLU327      0.1160
     77  CD         4.0700  -21.4750   53.9380 C.2   327  GLU327      0.3649
     78  OE1        4.5350  -21.6900   55.0750 O.co2 327  GLU327     -0.2457
     79  OE2        3.1630  -22.1740   53.4440 O.co2 327  GLU327     -0.2457
     80  N          8.7750  -21.7550   38.0770 N.3   356  PHE356     -0.1241
     81  CA         9.0720  -23.1450   38.3800 C.3   356  PHE356      0.1605
     82  C          8.4570  -24.0850   37.3650 C.2   356  PHE356      0.2264
     83  O          9.0430  -25.1250   37.0570 O.2   356  PHE356     -0.2867
     84  CB         8.5750  -23.5140   39.7700 C.3   356  PHE356      0.0534
     85  CG         8.9860  -24.8780   40.2080 C.ar  356  PHE356     -0.0203
     86  CD1       10.2640  -25.1010   40.6650 C.ar  356  PHE356     -0.0042
     87  CD2        8.1100  -25.9380   40.1510 C.ar  356  PHE356     -0.0042
     88  CE1       10.6570  -26.3500   41.0690 C.ar  356  PHE356     -0.0003
     89  CE2        8.5020  -27.1900   40.5480 C.ar  356  PHE356     -0.0003
     90  CZ         9.7780  -27.3950   41.0070 C.ar  356  PHE356     -0.0000
     91  N         14.8870  -24.4060   37.4680 N.3   361  ARG361     -0.1231
     92  CA        15.0110  -24.8850   38.8360 C.3   361  ARG361      0.1679
     93  C         16.4490  -24.6480   39.2750 C.2   361  ARG361      0.2434
     94  O         17.3800  -25.1920   38.6490 O.2   361  ARG361     -0.2733
     95  CB        14.6310  -26.3630   38.9150 C.3   361  ARG361      0.0321
     96  CG        13.1820  -26.6010   38.5250 C.3   361  ARG361      0.0489
     97  CD        12.7710  -28.0410   38.5440 C.3   361  ARG361      0.2205
     98  NE        11.3750  -28.1970   38.1550 N.pl3 361  ARG361     -0.0865
     99  CZ        10.7510  -29.3660   38.0870 C.cat 361  ARG361      0.5346
    100  NH1       11.3960  -30.4800   38.3930 N.pl3 361  ARG361      0.1354
    101  NH2        9.4810  -29.4200   37.7230 N.pl3 361  ARG361      0.1354
    102  N         16.6990  -23.8560   40.3250 N.am  362  PRO362     -0.2729
    103  CA        15.7710  -23.1610   41.2130 C.3   362  PRO362      0.1401
    104  C         15.1850  -21.8950   40.5970 C.2   362  PRO362      0.2269
    105  O         15.9140  -21.0970   40.0260 O.2   362  PRO362     -0.2865
    106  CB        16.6470  -22.8260   42.4160 C.3   362  PRO362      0.0296
    107  CG        18.0040  -22.7150   41.8730 C.3   362  PRO362      0.0237
    108  CD        18.0950  -23.6900   40.7580 C.3   362  PRO362      0.0939
    109  N         19.5200  -26.5860   37.3160 N.3   429  GLN429     -0.1231
    110  CA        20.3510  -27.6380   37.8740 C.3   429  GLN429      0.1698
    111  C         19.4810  -28.5070   38.7560 C.2   429  GLN429      0.2592
    112  O         18.4770  -28.0560   39.3090 O.2   429  GLN429     -0.2718
    113  CB        21.5360  -27.0870   38.6600 C.3   429  GLN429      0.0381
    114  CG        21.1570  -26.1780   39.7570 C.3   429  GLN429      0.0905
    115  CD        22.3660  -25.5910   40.3940 C.2   429  GLN429      0.2608
    116  OE1       23.4920  -25.9750   40.0900 O.2   429  GLN429     -0.2717
    117  NE2       22.1560  -24.6180   41.2520 N.am  429  GLN429     -0.0878
    118  N         19.8680  -29.7670   38.8620 N.am  430  ASN430     -0.1960
    119  CA        19.1210  -30.6630   39.7100 C.3   430  ASN430      0.1819
    120  C         19.3810  -30.3430   41.1710 C.2   430  ASN430      0.2621
    121  O         20.3580  -29.6840   41.5330 O.2   430  ASN430     -0.2715
    122  CB        19.4730  -32.1130   39.4130 C.3   430  ASN430      0.1195
    123  CG        18.9090  -32.5730   38.0960 C.2   430  ASN430      0.2630
    124  OD1       17.8020  -32.1910   37.7230 O.2   430  ASN430     -0.2716
    125  ND2       19.6540  -33.4130   37.3880 N.am  430  ASN430     -0.0877
    126  N         18.4610  -30.8010   42.0070 N.am  431  GLN431     -0.1977
    127  CA        18.5280  -30.5430   43.4310 C.3   431  GLN431      0.1601
    128  C         19.6770  -31.3380   44.0340 C.2   431  GLN431      0.2287
    129  O         20.0680  -32.3830   43.5080 O.2   431  GLN431     -0.2864
    130  CB        17.1890  -30.9150   44.0660 C.3   431  GLN431      0.0394
    131  CG        16.9410  -30.4050   45.4590 C.3   431  GLN431      0.0908
    132  CD        15.5060  -30.6360   45.8870 C.2   431  GLN431      0.2608
    133  OE1       14.6860  -31.0980   45.0990 O.2   431  GLN431     -0.2717
    134  NE2       15.2040  -30.3460   47.1440 N.am  431  GLN431     -0.0878
@<TRIPOS>BOND
     1    83    82    2
     2   109   110    1
     3    82    81    1
     4   125   123   am
     5    91    92    1
     6   124   123    2
     7   101    99    1
     8   110   113    1
     9   110   111    1
    10    80    81    1
    11    99    98    2
    12    99   100    1
    13   123   122    1
    14    98    97    1
    15    81    84    1
    16    96    97    1
    17    96    95    1
    18    94    93    2
    19   113   114    1
    20   111   118   am
    21   111   112    2
    22    92    95    1
    23    92    93    1
    24   118   119    1
    25    93   102   am
    26   122   119    1
    27   119   120    1
    28   114   115    1
    29    84    85    1
    30   105   104    2
    31   116   115    2
    32    87    85   ar
    33    87    89   ar
    34    85    86   ar
    35   102   108    1
    36   102   103    1
    37   115   117   am
    38    89    90   ar
    39   104   103    1
    40    86    88   ar
    41   108   107    1
    42    90    88   ar
    43   120   121    2
    44   120   126   am
    45   103   106    1
    46   107   106    1
    47   126   127    1
    48   127   128    1
    49   127   130    1
    50   129   128    2
    51   130   131    1
    52   133   132    2
    53    15    14    2
    54   131   132    1
    55   132   134   am
    56    53    51   ar
    57    14    13    1
    58    21    22    1
    59    22    23    1
    60    51    52   ar
    61    51    50    1
    62     4     3    2
    63    19    18    2
    64    16    13    1
    65    16    17    1
    66    24    23    2
    67    45    42    1
    68    50    47    1
    69    23    25   am
    70    13    12    1
    71    11     9    1
    72     3    12   am
    73     3     2    1
    74    18    17    1
    75    18    20   am
    76    44    43    2
    77    43    42    1
    78    25    26    1
    79     9    10    1
    80     9     8    2
    81     1     2    1
    82    42    41    1
    83    47    48    1
    84    47    46    1
    85     8     7    1
    86     6     7    1
    87     6     5    1
    88     2     5    1
    89    49    48    2
    90    26    29    1
    91    26    27    1
    92    30    29    1
    93    30    31    1
    94    41    36   am
    95    33    32    1
    96    27    28    2
    97    27    34   am
    98    31    32    1
    99    36    37    2
   100    36    35    1
   101    34    35    1
   102    35    38    1
   103    38    39    1
   104    38    40    1
   105    73    72    1
   106    73    74    2
   107    72    75    1
   108    72    71    1
   109    76    75    1
   110    76    77    1
   111    79    77   ar
   112    77    78   ar
   113    69    68   ar
   114    68    70   ar
   115    68    67    1
   116    67    64    1
   117    62    60   am
   118    64    65    1
   119    64    63    1
   120    60    61    2
   121    60    59    1
   122    65    66    2
   123    59    58    1
   124    58    55    1
   125    55    56    1
   126    55    54    1
   127    56    57    2
