@<TRIPOS>MOLECULE
tmp/6cp6Q01.pdb
 169 165 0 0 0
SMALL
GASTEIGER

@<TRIPOS>ATOM
      1  N        -25.1260    9.0480   44.1860 N.3   153  ALA153     -0.1231
      2  CA       -25.0540   10.4280   44.6490 C.3   153  ALA153      0.1694
      3  C        -25.4720   11.3660   43.5270 C.2   153  ALA153      0.2593
      4  O        -24.7830   11.4840   42.5120 O.2   153  ALA153     -0.2718
      5  CB       -23.6510   10.7520   45.1430 C.3   153  ALA153      0.0304
      6  N        -26.6130   12.0320   43.7220 N.am  154  GLY154     -0.1942
      7  CA       -27.0590   13.1520   42.9160 C.3   154  GLY154      0.2014
      8  C        -27.2370   12.8680   41.4440 C.2   154  GLY154      0.2639
      9  O        -26.8500   13.6800   40.6020 O.2   154  GLY154     -0.2714
     10  N        -27.8280   11.7300   41.1120 N.am  155  VAL155     -0.1963
     11  CA       -27.8890   11.3140   39.7200 C.3   155  VAL155      0.1727
     12  C        -29.3140   11.4650   39.2200 C.2   155  VAL155      0.2617
     13  O        -29.7690   10.7150   38.3510 O.2   155  VAL155     -0.2715
     14  CB       -27.3680    9.8820   39.5420 C.3   155  VAL155      0.0290
     15  CG1      -25.8810    9.8560   39.7740 C.3   155  VAL155      0.0023
     16  CG2      -28.0460    8.9710   40.5330 C.3   155  VAL155      0.0023
     17  N        -30.0230   12.4430   39.7630 N.am  156  GLY156     -0.1940
     18  CA       -31.2930   12.8270   39.1930 C.3   156  GLY156      0.2014
     19  C        -32.4990   12.3280   39.9400 C.2   156  GLY156      0.2639
     20  O        -33.6160   12.4350   39.4340 O.2   156  GLY156     -0.2714
     21  N        -32.2760   11.8070   41.1450 N.am  157  LYS157     -0.1963
     22  CA       -33.3280   11.1750   41.9270 C.3   157  LYS157      0.1728
     23  C        -34.4280   12.1570   42.2860 C.2   157  LYS157      0.2617
     24  O        -35.5920   11.9400   41.9340 O.2   157  LYS157     -0.2715
     25  CB       -32.7330   10.5840   43.1950 C.3   157  LYS157      0.0311
     26  CG       -31.6150    9.6240   42.9310 C.3   157  LYS157      0.0038
     27  CD       -31.0580    9.0870   44.2220 C.3   157  LYS157      0.0206
     28  CE       -30.4810   10.2240   45.0290 C.3   157  LYS157      0.1093
     29  NZ       -29.4140   10.9400   44.2790 N.3   157  LYS157     -0.1314
     30  N        -34.0640   13.2510   42.9580 N.am  158  THR158     -0.1937
     31  CA       -35.0430   14.2460   43.3780 C.3   158  THR158      0.2028
     32  C        -35.7170   14.8890   42.1760 C.2   158  THR158      0.2642
     33  O        -36.9310   15.1320   42.1890 O.2   158  THR158     -0.2714
     34  CB       -34.3540   15.2960   44.2450 C.3   158  THR158      0.1808
     35  OG1      -33.7150   14.6460   45.3470 O.3   158  THR158     -0.2208
     36  CG2      -35.3500   16.2920   44.7890 C.3   158  THR158      0.0379
     37  N        -34.9470   15.1050   41.1100 N.am  159  VAL159     -0.1977
     38  CA       -35.4940   15.6080   39.8590 C.3   159  VAL159      0.1596
     39  C        -36.4940   14.6220   39.2810 C.2   159  VAL159      0.2287
     40  O        -37.5640   15.0100   38.7970 O.2   159  VAL159     -0.2864
     41  CB       -34.3470   15.8900   38.8780 C.3   159  VAL159      0.0276
     42  CG1      -34.8830   16.3620   37.5450 C.3   159  VAL159      0.0022
     43  CG2      -33.4050   16.9090   39.4710 C.3   159  VAL159      0.0022
     44  N        -33.1980   15.3680   53.5920 N.3   183  GLU183     -0.1231
     45  CA       -32.8320   15.9610   52.3190 C.3   183  GLU183      0.1699
     46  C        -32.2960   17.3660   52.5310 C.2   183  GLU183      0.2592
     47  O        -31.9310   17.7640   53.6380 O.2   183  GLU183     -0.2718
     48  CB       -34.0150   15.9200   51.3650 C.3   183  GLU183      0.0402
     49  CG       -34.2490   14.5280   50.8490 C.3   183  GLU183      0.1161
     50  CD       -33.0970   14.0600   49.9790 C.2   183  GLU183      0.3649
     51  OE1      -32.5560   14.8820   49.2080 O.co2 183  GLU183     -0.2457
     52  OE2      -32.7030   12.8830   50.0930 O.co2 183  GLU183     -0.2457
     53  N        -32.1870   18.1160   51.4450 N.am  184  ARG184     -0.1980
     54  CA       -31.7510   19.4930   51.5360 C.3   184  ARG184      0.1597
     55  C        -32.9200   20.3830   51.9150 C.2   184  ARG184      0.2287
     56  O        -34.0380   20.2130   51.4200 O.2   184  ARG184     -0.2864
     57  CB       -31.1560   19.9550   50.2140 C.3   184  ARG184      0.0334
     58  CG       -29.8850   19.2450   49.8200 C.3   184  ARG184      0.0492
     59  CD       -29.4210   19.7580   48.4750 C.3   184  ARG184      0.2205
     60  NE       -28.1880   19.1290   48.0230 N.pl3 184  ARG184     -0.0865
     61  CZ       -28.1430   17.9960   47.3360 C.cat 184  ARG184      0.5346
     62  NH1      -29.2630   17.3540   47.0360 N.pl3 184  ARG184      0.1354
     63  NH2      -26.9740   17.5030   46.9540 N.pl3 184  ARG184      0.1354
     64  N        -34.1320   22.2180   48.9600 N.3   187  GLU187     -0.1245
     65  CA       -34.9950   21.3980   48.1200 C.3   187  GLU187      0.1567
     66  C        -36.4210   21.3750   48.6390 C.2   187  GLU187      0.2260
     67  O        -37.3670   21.4650   47.8470 O.2   187  GLU187     -0.2867
     68  CB       -34.4310   19.9850   48.0350 C.3   187  GLU187      0.0388
     69  CG       -33.1880   19.8850   47.1700 C.3   187  GLU187      0.1160
     70  CD       -32.5010   18.5390   47.2940 C.2   187  GLU187      0.3649
     71  OE1      -32.8770   17.7650   48.1980 O.co2 187  GLU187     -0.2457
     72  OE2      -31.5780   18.2580   46.4990 O.co2 187  GLU187     -0.2457
     73  N        -38.3030   10.5790   50.5780 N.3   250  ASP250     -0.1239
     74  CA       -36.9590   10.9690   50.1820 C.3   250  ASP250      0.1674
     75  C        -36.2760   11.4740   51.4430 C.2   250  ASP250      0.2266
     76  O        -36.6620   12.5270   51.9550 O.2   250  ASP250     -0.2867
     77  CB       -37.0090   12.0510   49.1130 C.3   250  ASP250      0.1410
     78  CG       -35.6930   12.2360   48.4060 C.2   250  ASP250      0.3668
     79  OD1      -34.7660   11.4500   48.6640 O.co2 250  ASP250     -0.2456
     80  OD2      -35.5830   13.1820   47.5960 O.co2 250  ASP250     -0.2456
     81  N        -31.0820    6.0990   48.2600 N.3   305  TYR305     -0.1241
     82  CA       -29.6770    6.4040   48.0870 C.3   305  TYR305      0.1605
     83  C        -28.8710    5.1210   48.1180 C.2   305  TYR305      0.2264
     84  O        -29.1370    4.2230   48.9180 O.2   305  TYR305     -0.2867
     85  CB       -29.1810    7.3430   49.1780 C.3   305  TYR305      0.0534
     86  CG       -27.7260    7.6940   49.0310 C.ar  305  TYR305     -0.0201
     87  CD1      -27.3090    8.5880   48.0600 C.ar  305  TYR305     -0.0009
     88  CD2      -26.7670    7.1250   49.8550 C.ar  305  TYR305     -0.0009
     89  CE1      -25.9800    8.9130   47.9190 C.ar  305  TYR305      0.0417
     90  CE2      -25.4400    7.4440   49.7230 C.ar  305  TYR305      0.0417
     91  CZ       -25.0510    8.3370   48.7540 C.ar  305  TYR305      0.1957
     92  OH       -23.7220    8.6560   48.6180 O.3   305  TYR305     -0.2866
     93  N        -30.5860   11.3020   30.0890 N.3   339  TYR339     -0.1228
     94  CA       -31.4390   11.6540   31.1940 C.3   339  TYR339      0.1721
     95  C        -32.8740   11.2550   30.9150 C.2   339  TYR339      0.2437
     96  O        -33.4370   11.6650   29.8920 O.2   339  TYR339     -0.2733
     97  CB       -31.3430   13.1330   31.4910 C.3   339  TYR339      0.0547
     98  CG       -30.0270   13.4630   32.1290 C.ar  339  TYR339     -0.0200
     99  CD1      -29.8110   13.1960   33.4690 C.ar  339  TYR339     -0.0009
    100  CD2      -28.9900   14.0040   31.3910 C.ar  339  TYR339     -0.0009
    101  CE1      -28.6080   13.4810   34.0650 C.ar  339  TYR339      0.0417
    102  CE2      -27.7820   14.2990   31.9790 C.ar  339  TYR339      0.0417
    103  CZ       -27.6000   14.0350   33.3190 C.ar  339  TYR339      0.1957
    104  OH       -26.4000   14.3190   33.9190 O.3   339  TYR339     -0.2866
    105  N        -33.4980   10.4550   31.7890 N.am  340  PRO340     -0.2729
    106  CA       -32.9820    9.9290   33.0540 C.3   340  PRO340      0.1401
    107  C        -32.0190    8.7690   32.8530 C.2   340  PRO340      0.2269
    108  O        -32.0530    8.1290   31.8100 O.2   340  PRO340     -0.2865
    109  CB       -34.2420    9.4650   33.7680 C.3   340  PRO340      0.0296
    110  CG       -35.1390    9.0720   32.6770 C.3   340  PRO340      0.0237
    111  CD       -34.8730   10.0040   31.5400 C.3   340  PRO340      0.0939
    112  N        -35.0710   11.3860   27.7670 N.3   410  GLN410     -0.1231
    113  CA       -36.3320   12.0810   27.5950 C.3   410  GLN410      0.1683
    114  C        -36.2740   13.4580   28.2360 C.2   410  GLN410      0.2434
    115  O        -35.8430   13.5910   29.3870 O.2   410  GLN410     -0.2733
    116  CB       -37.4660   11.2580   28.1900 C.3   410  GLN410      0.0380
    117  CG       -38.8220   11.8730   28.0120 C.3   410  GLN410      0.0905
    118  CD       -39.9120   10.9670   28.5160 C.2   410  GLN410      0.2608
    119  OE1      -39.6380    9.8840   29.0300 O.2   410  GLN410     -0.2717
    120  NE2      -41.1580   11.4000   28.3750 N.am  410  GLN410     -0.0878
    121  N        -36.6630   14.5030   27.5080 N.am  411  PRO411     -0.2718
    122  CA       -36.6070   15.8670   28.0510 C.3   411  PRO411      0.1535
    123  C        -37.6260   16.0610   29.1630 C.2   411  PRO411      0.2598
    124  O        -38.7910   15.6830   29.0310 O.2   411  PRO411     -0.2715
    125  CB       -36.9270   16.7420   26.8360 C.3   411  PRO411      0.0310
    126  CG       -36.5680   15.8930   25.6620 C.3   411  PRO411      0.0237
    127  CD       -36.9200   14.5010   26.0620 C.3   411  PRO411      0.0939
    128  N        -37.1720   16.6490   30.2620 N.am  412  PHE412     -0.1974
    129  CA       -38.0150   16.8520   31.4250 C.3   412  PHE412      0.1639
    130  C        -38.4450   18.3020   31.5560 C.2   412  PHE412      0.2290
    131  O        -37.6490   19.2290   31.3810 O.2   412  PHE412     -0.2864
    132  CB       -37.2810   16.4280   32.6890 C.3   412  PHE412      0.0560
    133  CG       -37.2130   14.9530   32.8730 C.ar  412  PHE412     -0.0200
    134  CD1      -38.0810   14.1200   32.1910 C.ar  412  PHE412     -0.0042
    135  CD2      -36.2800   14.3950   33.7220 C.ar  412  PHE412     -0.0042
    136  CE1      -38.0220   12.7610   32.3590 C.ar  412  PHE412     -0.0003
    137  CE2      -36.2150   13.0330   33.8920 C.ar  412  PHE412     -0.0003
    138  CZ       -37.0940   12.2160   33.2170 C.ar  412  PHE412     -0.0000
    139  N        -36.4510   19.5500   34.6490 N.3   415  ALA415     -0.1245
    140  CA       -35.0570   19.8690   34.3750 C.3   415  ALA415      0.1562
    141  C        -34.8930   20.7530   33.1530 C.2   415  ALA415      0.2260
    142  O        -33.8400   20.7190   32.5020 O.2   415  ALA415     -0.2867
    143  CB       -34.2460   18.5870   34.2160 C.3   415  ALA415      0.0290
    144  N        -32.0220   22.9280   33.0910 N.3   418  PHE418     -0.1227
    145  CA       -30.7640   22.3100   32.7120 C.3   418  PHE418      0.1736
    146  C        -30.6740   22.1460   31.2050 C.2   418  PHE418      0.2596
    147  O        -29.5810   21.9580   30.6620 O.2   418  PHE418     -0.2718
    148  CB       -30.6320   20.9590   33.4040 C.3   418  PHE418      0.0547
    149  CG       -30.6170   21.0530   34.8920 C.ar  418  PHE418     -0.0202
    150  CD1      -29.4510   21.3590   35.5670 C.ar  418  PHE418     -0.0042
    151  CD2      -31.7790   20.8580   35.6170 C.ar  418  PHE418     -0.0042
    152  CE1      -29.4410   21.4520   36.9430 C.ar  418  PHE418     -0.0003
    153  CE2      -31.7770   20.9510   36.9890 C.ar  418  PHE418     -0.0003
    154  CZ       -30.6060   21.2490   37.6550 C.ar  418  PHE418     -0.0000
    155  N        -31.8110   22.2110   30.5140 N.am  419  THR419     -0.1953
    156  CA       -31.8470   21.9190   29.0910 C.3   419  THR419      0.1897
    157  C        -32.2780   23.0940   28.2340 C.2   419  THR419      0.2313
    158  O        -31.7920   23.2260   27.1070 O.2   419  THR419     -0.2863
    159  CB       -32.8120   20.7680   28.8050 C.3   419  THR419      0.1794
    160  OG1      -34.1460   21.1860   29.1160 O.3   419  THR419     -0.2208
    161  CG2      -32.4600   19.5550   29.6420 C.3   419  THR419      0.0378
    162  N        -32.3800   12.6540   23.2770 N.3   453  MET453     -0.1245
    163  CA       -33.1490   13.6050   24.0820 C.3   453  MET453      0.1570
    164  C        -34.3810   14.0890   23.3130 C.2   453  MET453      0.2261
    165  O        -34.5100   15.2430   22.9070 O.2   453  MET453     -0.2867
    166  CB       -32.2570   14.7620   24.5430 C.3   453  MET453      0.0387
    167  CG       -32.8580   15.5870   25.6550 C.3   453  MET453      0.0595
    168  SD       -33.2270   14.5310   27.0590 S.3   453  MET453     -0.1393
    169  CE       -31.5740   14.1100   27.5950 C.3   453  MET453      0.0692
@<TRIPOS>BOND
     1   165   164    2
     2   162   163    1
     3   164   163    1
     4   163   166    1
     5   166   167    1
     6   167   168    1
     7   126   127    1
     8   126   125    1
     9   127   121    1
    10   125   122    1
    11   168   169    1
    12   158   157    2
    13   121   122    1
    14   121   114   am
    15   113   112    1
    16   113   116    1
    17   113   114    1
    18   117   116    1
    19   117   118    1
    20   122   123    1
    21   157   156    1
    22   114   115    2
    23   120   118   am
    24   118   119    2
    25   159   156    1
    26   159   160    1
    27   159   161    1
    28   124   123    2
    29   156   155    1
    30   123   128   am
    31    96    95    2
    32    93    94    1
    33   128   129    1
    34   155   146   am
    35   147   146    2
    36    95    94    1
    37    95   105   am
    38    94    97    1
    39   146   145    1
    40   131   130    2
    41   100   102   ar
    42   100    98   ar
    43   129   130    1
    44   129   132    1
    45    97    98    1
    46   111   105    1
    47   111   110    1
    48   105   106    1
    49   108   107    2
    50   102   103   ar
    51    98    99   ar
    52   134   136   ar
    53   134   133   ar
    54   136   138   ar
    55   142   141    2
    56   110   109    1
    57   132   133    1
    58   145   144    1
    59   145   148    1
    60   107   106    1
    61   133   135   ar
    62   106   109    1
    63   141   140    1
    64   138   137   ar
    65   103   104    1
    66   103   101   ar
    67   148   149    1
    68    99   101   ar
    69   135   137   ar
    70   143   140    1
    71   140   139    1
    72   149   150   ar
    73   149   151   ar
    74   150   152   ar
    75   151   153   ar
    76   152   154   ar
    77   153   154   ar
    78    42    41    1
    79    13    12    2
    80    40    39    2
    81    41    43    1
    82    41    38    1
    83    18    17    1
    84    18    19    1
    85    12    11    1
    86    12    17   am
    87    39    38    1
    88    20    19    2
    89    14    11    1
    90    14    15    1
    91    14    16    1
    92    11    10    1
    93    38    37    1
    94    19    21   am
    95     9     8    2
    96    37    32   am
    97    10     8   am
    98    21    22    1
    99     8     7    1
   100    22    23    1
   101    22    25    1
   102    24    23    2
   103    32    33    2
   104    32    31    1
   105    23    30   am
   106     4     3    2
   107     7     6    1
   108    26    25    1
   109    26    27    1
   110    30    31    1
   111    31    34    1
   112     3     6   am
   113     3     2    1
   114     1     2    1
   115    27    28    1
   116    34    36    1
   117    34    35    1
   118    29    28    1
   119     2     5    1
   120    72    70   ar
   121    63    61    1
   122    62    61    1
   123    69    70    1
   124    69    68    1
   125    70    71   ar
   126    61    60    2
   127    80    78   ar
   128    67    66    2
   129    89    87   ar
   130    89    91   ar
   131    60    59    1
   132    68    65    1
   133    87    86   ar
   134    82    83    1
   135    82    81    1
   136    82    85    1
   137    83    84    2
   138    65    66    1
   139    65    64    1
   140    78    79   ar
   141    78    77    1
   142    59    58    1
   143    92    91    1
   144    91    90   ar
   145    86    85    1
   146    86    88   ar
   147    77    74    1
   148    51    50   ar
   149    90    88   ar
   150    58    57    1
   151    50    52   ar
   152    50    49    1
   153    74    73    1
   154    74    75    1
   155    57    54    1
   156    49    48    1
   157    48    45    1
   158    56    55    2
   159    75    76    2
   160    53    54    1
   161    53    46   am
   162    54    55    1
   163    45    46    1
   164    45    44    1
   165    46    47    2
