@<TRIPOS>MOLECULE
tmp/6cp8A00.pdb
 93 86 0 0 0
SMALL
GASTEIGER

@<TRIPOS>ATOM
      1  N         -1.1150    6.7500   82.2100 N.3     3  PHE3       -0.1241
      2  CA        -1.3110    7.1040   80.8100 C.3     3  PHE3        0.1605
      3  C         -0.9320    8.5690   80.5980 C.2     3  PHE3        0.2264
      4  O         -0.7850    9.3390   81.5510 O.2     3  PHE3       -0.2867
      5  CB        -2.7520    6.8100   80.3430 C.3     3  PHE3        0.0534
      6  CG        -3.8340    7.5500   81.1010 C.ar    3  PHE3       -0.0203
      7  CD1       -4.2240    8.8330   80.7170 C.ar    3  PHE3       -0.0042
      8  CD2       -4.5040    6.9440   82.1620 C.ar    3  PHE3       -0.0042
      9  CE1       -5.2440    9.5170   81.4000 C.ar    3  PHE3       -0.0003
     10  CE2       -5.5320    7.6200   82.8450 C.ar    3  PHE3       -0.0003
     11  CZ        -5.9040    8.9000   82.4520 C.ar    3  PHE3       -0.0000
     12  N         -1.6100   12.3190   78.5450 N.3     5  VAL5       -0.1245
     13  CA        -2.6450   13.1270   77.9030 C.3     5  VAL5        0.1561
     14  C         -1.9510   14.1370   76.9970 C.2     5  VAL5        0.2260
     15  O         -1.2000   14.9940   77.4780 O.2     5  VAL5       -0.2867
     16  CB        -3.5530   13.8400   78.9270 C.3     5  VAL5        0.0252
     17  CG1       -4.6340   14.6190   78.2130 C.3     5  VAL5        0.0019
     18  CG2       -4.1980   12.8360   79.9040 C.3     5  VAL5        0.0019
     19  N         -7.8030   16.3840   72.3940 N.3    17  ILE17      -0.1245
     20  CA        -7.1280   15.8660   73.5720 C.3    17  ILE17       0.1561
     21  C         -7.3370   14.3610   73.6210 C.2    17  ILE17       0.2260
     22  O         -8.4580   13.8750   73.4350 O.2    17  ILE17      -0.2867
     23  CB        -7.6560   16.5430   74.8440 C.3    17  ILE17       0.0252
     24  CG1       -7.6080   18.0790   74.7370 C.3    17  ILE17       0.0019
     25  CG2       -6.8730   16.0520   76.0560 C.3    17  ILE17       0.0019
     26  CD1       -6.2460   18.6760   74.9340 C.3    17  ILE17       0.0001
     27  N        -10.4520   12.0020   74.6230 N.3    28  VAL28      -0.1245
     28  CA       -11.1090   12.1000   75.9300 C.3    28  VAL28       0.1561
     29  C        -12.5830   12.4350   75.7730 C.2    28  VAL28       0.2260
     30  O        -13.3960   12.0650   76.6220 O.2    28  VAL28      -0.2867
     31  CB       -10.3940   13.1100   76.8580 C.3    28  VAL28       0.0252
     32  CG1       -8.9770   12.6430   77.1720 C.3    28  VAL28       0.0019
     33  CG2      -10.4010   14.5050   76.2740 C.3    28  VAL28       0.0019
     34  N        -15.5880    9.9750   76.4730 N.3    31  ILE31      -0.1231
     35  CA       -16.2240    9.7480   77.7730 C.3    31  ILE31       0.1692
     36  C        -17.6110   10.3880   77.8070 C.2    31  ILE31       0.2591
     37  O        -18.6010    9.7380   78.1580 O.2    31  ILE31      -0.2718
     38  CB       -15.3170   10.2310   78.9290 C.3    31  ILE31       0.0266
     39  CG1      -15.2560   11.7520   79.0530 C.3    31  ILE31       0.0019
     40  CG2      -13.8910    9.6960   78.7750 C.3    31  ILE31       0.0020
     41  CD1      -14.8280   12.1890   80.4280 C.3    31  ILE31       0.0001
     42  N        -17.7130   11.6490   77.3770 N.am   32  GLU32      -0.1979
     43  CA       -19.0150   12.3020   77.2960 C.3    32  GLU32       0.1602
     44  C        -19.8920   11.6400   76.2450 C.2    32  GLU32       0.2287
     45  O        -21.0630   11.3350   76.4960 O.2    32  GLU32      -0.2864
     46  CB       -18.8510   13.7900   76.9670 C.3    32  GLU32       0.0415
     47  CG       -18.6280   14.7010   78.1670 C.3    32  GLU32       0.1163
     48  CD       -17.2040   15.2430   78.2530 C.2    32  GLU32       0.3649
     49  OE1      -16.4130   15.0710   77.2890 O.co2  32  GLU32      -0.2457
     50  OE2      -16.8830   15.8490   79.2990 O.co2  32  GLU32      -0.2457
     51  N        -23.9910   12.3910   77.0970 N.3    37  LYS37      -0.1245
     52  CA       -23.8930   13.6710   76.4060 C.3    37  LYS37       0.1561
     53  C        -23.5800   13.4700   74.9270 C.2    37  LYS37       0.2260
     54  O        -22.8790   14.2750   74.3130 O.2    37  LYS37      -0.2867
     55  CB       -22.8570   14.5700   77.0780 C.3    37  LYS37       0.0271
     56  CG       -22.9840   14.5930   78.6290 C.3    37  LYS37       0.0035
     57  CD       -22.1700   15.7270   79.2750 C.3    37  LYS37       0.0206
     58  CE       -21.8460   15.4540   80.7660 C.3    37  LYS37       0.1093
     59  NZ       -20.4710   14.8440   80.9960 N.3    37  LYS37      -0.1314
     60  N        -19.8270   10.8240   87.9720 N.3    98  ASN98      -0.1225
     61  CA       -19.1020   11.4240   86.8440 C.3    98  ASN98       0.1785
     62  C        -18.0480   12.3950   87.3810 C.2    98  ASN98       0.2598
     63  O        -18.2380   13.6110   87.4160 O.2    98  ASN98      -0.2718
     64  CB       -20.0870   12.1170   85.9080 C.3    98  ASN98       0.1169
     65  CG       -19.4550   12.5420   84.5850 C.2    98  ASN98       0.2627
     66  OD1      -18.2810   12.2940   84.3290 O.2    98  ASN98      -0.2716
     67  ND2      -20.2500   13.1720   83.7330 N.am   98  ASN98      -0.0877
     68  N        -16.9110   11.8430   87.8030 N.am   99  THR99      -0.1939
     69  CA       -15.7970   12.6420   88.2930 C.3    99  THR99       0.2028
     70  C        -14.5460   12.3650   87.4680 C.2    99  THR99       0.2642
     71  O        -14.4600   11.3690   86.7340 O.2    99  THR99      -0.2714
     72  CB       -15.5010   12.3490   89.7660 C.3    99  THR99       0.1808
     73  OG1      -15.1250   10.9760   89.9100 O.3    99  THR99      -0.2208
     74  CG2      -16.7250   12.6250   90.6350 C.3    99  THR99       0.0379
     75  N        -13.5680   13.2680   87.5950 N.am  100  ALA100     -0.1977
     76  CA       -12.3210   13.1110   86.8500 C.3   100  ALA100      0.1597
     77  C        -11.6200   11.8070   87.2160 C.2   100  ALA100      0.2287
     78  O        -11.0660   11.1230   86.3480 O.2   100  ALA100     -0.2864
     79  CB       -11.3980   14.2990   87.1070 C.3   100  ALA100      0.0319
     80  N        -13.5180    8.7850   85.7080 N.3   103  ASN103     -0.1225
     81  CA       -13.3240    8.7490   84.2620 C.3   103  ASN103      0.1785
     82  C        -11.8820    8.3960   83.9020 C.2   103  ASN103      0.2597
     83  O        -11.6500    7.6920   82.9150 O.2   103  ASN103     -0.2718
     84  CB       -13.7340   10.0820   83.6430 C.3   103  ASN103      0.1169
     85  CG       -15.2590   10.3300   83.6900 C.2   103  ASN103      0.2627
     86  OD1      -16.0590    9.4050   83.7800 O.2   103  ASN103     -0.2716
     87  ND2      -15.6490   11.5890   83.6210 N.am  103  ASN103     -0.0877
     88  N        -10.9060    8.8410   84.7020 N.am  104  SER104     -0.1952
     89  CA        -9.5330    8.3800   84.5090 C.3   104  SER104      0.1924
     90  C         -9.4140    6.8820   84.7510 C.2   104  SER104      0.2314
     91  O         -8.7710    6.1700   83.9710 O.2   104  SER104     -0.2863
     92  CB        -8.5740    9.1340   85.4230 C.3   104  SER104      0.2116
     93  OG        -8.5100   10.5030   85.0870 O.3   104  SER104     -0.2180
@<TRIPOS>BOND
     1    19    20    1
     2    22    21    2
     3    20    21    1
     4    20    23    1
     5    54    53    2
     6    27    28    1
     7    24    23    1
     8    24    26    1
     9    23    25    1
    10    53    52    1
    11    29    28    1
    12    29    30    2
    13    28    31    1
    14    44    45    2
    15    44    43    1
    16    33    31    1
    17    52    55    1
    18    52    51    1
    19    34    35    1
    20    31    32    1
    21    46    43    1
    22    46    47    1
    23    14    15    2
    24    14    13    1
    25    55    56    1
    26    49    48   ar
    27    43    42    1
    28    42    36   am
    29    35    36    1
    30    35    38    1
    31    36    37    2
    32    13    12    1
    33    13    16    1
    34    47    48    1
    35    17    16    1
    36    48    50   ar
    37    56    57    1
    38    40    38    1
    39    16    18    1
    40    38    39    1
    41    39    41    1
    42    57    58    1
    43     5     2    1
    44     5     6    1
    45     3     2    1
    46     3     4    2
    47     7     6   ar
    48     7     9   ar
    49    58    59    1
    50     2     1    1
    51     6     8   ar
    52     9    11   ar
    53     8    10   ar
    54    11    10   ar
    55    83    82    2
    56    87    85   am
    57    84    85    1
    58    84    81    1
    59    85    86    2
    60    67    65   am
    61    82    81    1
    62    82    88   am
    63    91    90    2
    64    81    80    1
    65    66    65    2
    66    89    88    1
    67    89    90    1
    68    89    92    1
    69    65    64    1
    70    93    92    1
    71    64    61    1
    72    78    77    2
    73    71    70    2
    74    61    62    1
    75    61    60    1
    76    76    79    1
    77    76    77    1
    78    76    75    1
    79    62    63    2
    80    62    68   am
    81    70    75   am
    82    70    69    1
    83    68    69    1
    84    69    72    1
    85    72    73    1
    86    72    74    1
