@<TRIPOS>MOLECULE
tmp/6cpaA00.pdb
 204 195 0 0 0
SMALL
GASTEIGER

@<TRIPOS>ATOM
      1  N         36.4200   21.1290   36.0240 N.3    69  HIS69      -0.1241
      2  CA        37.0250   19.9000   36.5370 C.3    69  HIS69       0.1621
      3  C         36.3140   19.5700   37.8660 C.2    69  HIS69       0.2264
      4  O         36.4500   20.3080   38.8480 O.2    69  HIS69      -0.2867
      5  CB        38.5760   20.1320   36.7440 C.3    69  HIS69       0.0745
      6  CG        39.3610   20.0750   35.4120 C.ar   69  HIS69       0.0817
      7  ND1       40.4490   20.7740   35.0110 N.ar   69  HIS69      -0.2268
      8  CD2       38.9070   19.2250   34.4690 C.ar   69  HIS69       0.1154
      9  CE1       40.6580   20.3410   33.7970 C.ar   69  HIS69       0.1986
     10  NE2       39.7460   19.4460   33.4810 N.ar   69  HIS69      -0.2212
     11  N         36.3570   17.5390   40.6330 N.3    71  ARG71      -0.1231
     12  CA        36.9480   17.3410   41.9650 C.3    71  ARG71       0.1694
     13  C         37.5010   18.6250   42.5660 C.2    71  ARG71       0.2591
     14  O         37.8740   18.6170   43.7370 O.2    71  ARG71      -0.2718
     15  CB        38.0800   16.3340   41.9060 C.3    71  ARG71       0.0321
     16  CG        39.1660   16.7750   40.9180 C.3    71  ARG71       0.0489
     17  CD        40.2040   15.6630   40.8270 C.3    71  ARG71       0.2205
     18  NE        41.2460   15.9610   39.8770 N.pl3  71  ARG71      -0.0865
     19  CZ        42.0490   14.9990   39.4130 C.cat  71  ARG71       0.5346
     20  NH1       43.1510   15.3420   38.7590 N.pl3  71  ARG71       0.1354
     21  NH2       41.7960   13.6840   39.5760 N.pl3  71  ARG71       0.1354
     22  N         37.5890   19.7340   41.8150 N.am   72  GLU72      -0.1979
     23  CA        38.1890   20.9460   42.3440 C.3    72  GLU72       0.1602
     24  C         37.1780   21.7400   43.1640 C.2    72  GLU72       0.2287
     25  O         36.8130   22.8420   42.8000 O.2    72  GLU72      -0.2864
     26  CB        38.7160   21.7850   41.1830 C.3    72  GLU72       0.0415
     27  CG        39.7870   20.9830   40.4340 C.3    72  GLU72       0.1163
     28  CD        40.3510   21.4520   39.0770 C.2    72  GLU72       0.3649
     29  OE1       41.1870   20.7330   38.5800 O.co2  72  GLU72      -0.2457
     30  OE2       40.0580   22.4540   38.4510 O.co2  72  GLU72      -0.2457
     31  N         37.4540   13.8910   37.6460 N.3   127  ARG127     -0.1245
     32  CA        37.8560   15.1100   36.9440 C.3   127  ARG127      0.1563
     33  C         37.0370   15.3790   35.6730 C.2   127  ARG127      0.2260
     34  O         36.7640   16.5360   35.3590 O.2   127  ARG127     -0.2867
     35  CB        39.3260   14.9910   36.5820 C.3   127  ARG127      0.0307
     36  CG        39.8470   16.0680   35.6510 C.3   127  ARG127      0.0489
     37  CD        41.2480   15.6470   35.1880 C.3   127  ARG127      0.2205
     38  NE        41.8380   16.5040   34.1620 N.pl3 127  ARG127     -0.0865
     39  CZ        42.4730   17.6490   34.4330 C.cat 127  ARG127      0.5346
     40  NH1       43.1250   18.3180   33.4620 N.pl3 127  ARG127      0.1354
     41  NH2       42.4590   18.1370   35.6830 N.pl3 127  ARG127      0.1354
     42  N         38.8310   20.2530   29.8640 N.3   144  ASN144     -0.1225
     43  CA        39.7810   21.3150   29.5550 C.3   144  ASN144      0.1785
     44  C         40.8390   20.8020   28.5810 C.2   144  ASN144      0.2597
     45  O         41.9730   21.2780   28.5670 O.2   144  ASN144     -0.2718
     46  CB        40.5120   21.8170   30.8120 C.3   144  ASN144      0.1169
     47  CG        40.9470   23.2620   30.6040 C.2   144  ASN144      0.2627
     48  OD1       40.3720   23.9910   29.7850 O.2   144  ASN144     -0.2716
     49  ND2       41.9740   23.7190   31.3200 N.am  144  ASN144     -0.0877
     50  N         40.5150   19.8110   27.7480 N.am  145  ARG145     -0.1979
     51  CA        41.4060   19.3920   26.6690 C.3   145  ARG145      0.1597
     52  C         40.5970   19.2450   25.3780 C.2   145  ARG145      0.2287
     53  O         41.0820   18.8010   24.3360 O.2   145  ARG145     -0.2864
     54  CB        42.0480   18.0670   27.0440 C.3   145  ARG145      0.0334
     55  CG        43.5380   18.1540   27.2630 C.3   145  ARG145      0.0492
     56  CD        44.0340   18.1270   28.6720 C.3   145  ARG145      0.2205
     57  NE        43.8140   19.3920   29.3420 N.pl3 145  ARG145     -0.0865
     58  CZ        44.5230   19.7980   30.4000 C.cat 145  ARG145      0.5346
     59  NH1       44.1010   20.8900   30.9860 N.pl3 145  ARG145      0.1354
     60  NH2       45.5780   19.1580   30.9120 N.pl3 145  ARG145      0.1354
     61  N         42.9540   10.6090   32.4360 N.3   163  GLU163     -0.1231
     62  CA        42.3120   11.7240   33.1050 C.3   163  GLU163      0.1699
     63  C         42.3320   13.0120   32.2800 C.2   163  GLU163      0.2592
     64  O         41.6560   14.0010   32.5600 O.2   163  GLU163     -0.2718
     65  CB        43.0680   11.8020   34.3950 C.3   163  GLU163      0.0402
     66  CG        42.7810   12.8640   35.4030 C.3   163  GLU163      0.1161
     67  CD        43.9860   12.9430   36.3390 C.2   163  GLU163      0.3649
     68  OE1       44.9550   13.6260   36.0010 O.co2 163  GLU163     -0.2457
     69  OE2       43.9690   12.2890   37.3830 O.co2 163  GLU163     -0.2457
     70  N         43.1850   12.9670   31.2530 N.am  164  THR164     -0.1953
     71  CA        43.5660   14.0760   30.3990 C.3   164  THR164      0.1897
     72  C         43.0490   13.7840   28.9800 C.2   164  THR164      0.2313
     73  O         43.4560   14.3820   27.9790 O.2   164  THR164     -0.2863
     74  CB        45.0970   14.0840   30.6640 C.3   164  THR164      0.1794
     75  OG1       45.3370   15.3690   31.1950 O.3   164  THR164     -0.2208
     76  CG2       45.9720   13.7310   29.5290 C.3   164  THR164      0.0378
     77  N         40.3170   27.1270   38.2320 N.3   196  HIS196     -0.1226
     78  CA        40.6570   25.7880   38.6680 C.3   196  HIS196      0.1752
     79  C         41.2740   25.7740   40.0760 C.2   196  HIS196      0.2597
     80  O         41.5290   26.8230   40.6620 O.2   196  HIS196     -0.2718
     81  CB        41.6530   25.1770   37.7010 C.3   196  HIS196      0.0759
     82  CG        41.1710   24.8790   36.2850 C.ar  196  HIS196      0.0818
     83  ND1       41.3670   23.6920   35.6800 N.ar  196  HIS196     -0.2268
     84  CD2       40.4710   25.7700   35.5450 C.ar  196  HIS196      0.1154
     85  CE1       40.7420   23.8560   34.5230 C.ar  196  HIS196      0.1986
     86  NE2       40.2540   25.0880   34.4370 N.ar  196  HIS196     -0.2212
     87  N         41.5820   24.6030   40.6380 N.am  197  SER197     -0.1938
     88  CA        42.4320   24.5560   41.8350 C.3   197  SER197      0.2055
     89  C         43.4540   23.4170   41.6550 C.2   197  SER197      0.2643
     90  O         43.1250   22.5070   40.9040 O.2   197  SER197     -0.2714
     91  CB        41.5950   24.2720   43.1090 C.3   197  SER197      0.2130
     92  OG        41.4450   22.8610   43.2790 O.3   197  SER197     -0.2179
     93  N         44.6600   23.2070   42.1730 N.am  198  TYR198     -0.1959
     94  CA        45.3630   23.9750   43.1780 C.3   198  TYR198      0.1771
     95  C         46.7150   24.1980   42.5160 C.2   198  TYR198      0.2620
     96  O         47.0710   23.5270   41.5250 O.2   198  TYR198     -0.2715
     97  CB        45.5080   23.1270   44.4850 C.3   198  TYR198      0.0574
     98  CG        46.1310   21.7320   44.3570 C.ar  198  TYR198     -0.0198
     99  CD1       45.3440   20.6350   44.0760 C.ar  198  TYR198     -0.0009
    100  CD2       47.4830   21.5550   44.5590 C.ar  198  TYR198     -0.0009
    101  CE1       45.8820   19.3530   44.0530 C.ar  198  TYR198      0.0417
    102  CE2       48.0340   20.2720   44.5070 C.ar  198  TYR198      0.0417
    103  CZ        47.2150   19.1790   44.3070 C.ar  198  TYR198      0.1957
    104  OH        47.6900   17.8780   44.4430 O.3   198  TYR198     -0.2866
    105  N         47.5010   25.1040   43.0560 N.am  199  SER199     -0.1950
    106  CA        48.8860   25.2730   42.7700 C.3   199  SER199      0.1924
    107  C         49.0910   26.7320   43.0480 C.2   199  SER199      0.2314
    108  O         50.2220   27.1690   43.1630 O.2   199  SER199     -0.2863
    109  CB        49.2640   25.0010   41.3040 C.3   199  SER199      0.2116
    110  OG        49.6810   23.6280   41.2240 O.3   199  SER199     -0.2180
    111  N         47.6680   31.9660   35.4170 N.3   203  LEU203     -0.1245
    112  CA        48.2090   31.5420   34.1300 C.3   203  LEU203      0.1561
    113  C         47.6020   32.2990   32.9360 C.2   203  LEU203      0.2260
    114  O         46.4110   32.6170   32.8980 O.2   203  LEU203     -0.2867
    115  CB        47.9560   30.0570   34.0000 C.3   203  LEU203      0.0270
    116  CG        48.9120   28.9050   34.3200 C.3   203  LEU203      0.0019
    117  CD1       50.0660   29.2740   35.1950 C.3   203  LEU203      0.0001
    118  CD2       48.0370   27.8300   34.9050 C.3   203  LEU203      0.0001
    119  N         50.7160   29.1540   30.6890 N.3   243  ILE243     -0.1245
    120  CA        50.4970   27.7670   31.0630 C.3   243  ILE243      0.1561
    121  C         51.7320   26.8840   30.8250 C.2   243  ILE243      0.2260
    122  O         52.2070   26.1430   31.7080 O.2   243  ILE243     -0.2867
    123  CB        49.2700   27.2290   30.2640 C.3   243  ILE243      0.0252
    124  CG1       48.0240   28.0180   30.5080 C.3   243  ILE243      0.0019
    125  CG2       49.0260   25.8070   30.6960 C.3   243  ILE243      0.0019
    126  CD1       46.9560   27.8360   29.4060 C.3   243  ILE243      0.0001
    127  N         53.0720   25.5940   34.5250 N.3   247  ILE247     -0.1231
    128  CA        52.8540   24.2750   35.0700 C.3   247  ILE247      0.1692
    129  C         53.1100   23.1380   34.1330 C.2   247  ILE247      0.2592
    130  O         53.8690   22.2530   34.4800 O.2   247  ILE247     -0.2718
    131  CB        51.4270   24.0640   35.6030 C.3   247  ILE247      0.0266
    132  CG1       50.4900   25.1320   35.1070 C.3   247  ILE247      0.0019
    133  CG2       51.5050   23.9810   37.1150 C.3   247  ILE247      0.0020
    134  CD1       50.0580   24.7820   33.6970 C.3   247  ILE247      0.0001
    135  N         52.5280   23.0530   32.9570 N.am  248  TYR248     -0.1976
    136  CA        52.9820   22.0810   32.0080 C.3   248  TYR248      0.1639
    137  C         52.2680   22.3000   30.6920 C.2   248  TYR248      0.2290
    138  O         51.3390   23.0910   30.5610 O.2   248  TYR248     -0.2864
    139  CB        52.6960   20.6410   32.4790 C.3   248  TYR248      0.0560
    140  CG        51.2900   20.4170   33.0260 C.ar  248  TYR248     -0.0198
    141  CD1       50.1480   20.7310   32.3160 C.ar  248  TYR248     -0.0009
    142  CD2       51.1610   19.8960   34.2890 C.ar  248  TYR248     -0.0009
    143  CE1       48.9050   20.5500   32.9120 C.ar  248  TYR248      0.0417
    144  CE2       49.9350   19.7120   34.8850 C.ar  248  TYR248      0.0417
    145  CZ        48.8010   20.0520   34.1980 C.ar  248  TYR248      0.1957
    146  OH        47.5670   19.9100   34.8380 O.3   248  TYR248     -0.2866
    147  N         49.7910   21.6560   27.8080 N.3   250  ALA250     -0.1245
    148  CA        48.4020   21.2230   27.8050 C.3   250  ALA250      0.1562
    149  C         47.7590   21.6510   26.4970 C.2   250  ALA250      0.2260
    150  O         47.7480   22.8370   26.1830 O.2   250  ALA250     -0.2867
    151  CB        47.5690   21.8830   28.9430 C.3   250  ALA250      0.0290
    152  N         43.1270   23.6170   25.8000 N.3   253  GLY253     -0.1210
    153  CA        42.5660   24.3010   26.9630 C.3   253  GLY253      0.1956
    154  C         41.7270   25.5200   26.5940 C.2   253  GLY253      0.2613
    155  O         41.9260   26.1430   25.5520 O.2   253  GLY253     -0.2717
    156  N         40.7740   25.9110   27.4410 N.am  254  SER254     -0.1938
    157  CA        39.7790   26.9050   27.0710 C.3   254  SER254      0.2055
    158  C         40.3430   28.2910   26.8350 C.2   254  SER254      0.2643
    159  O         39.9000   29.0510   25.9540 O.2   254  SER254     -0.2714
    160  CB        38.7070   26.9800   28.1560 C.3   254  SER254      0.2130
    161  OG        39.1570   27.3380   29.4650 O.3   254  SER254     -0.2179
    162  N         41.3700   28.6250   27.6260 N.am  255  ILE255     -0.1963
    163  CA        41.8980   29.9830   27.6030 C.3   255  ILE255      0.1727
    164  C         42.7350   30.2480   26.3490 C.2   255  ILE255      0.2616
    165  O         42.8580   31.3580   25.8480 O.2   255  ILE255     -0.2715
    166  CB        42.6570   30.0790   28.9570 C.3   255  ILE255      0.0290
    167  CG1       42.0490   31.2310   29.6200 C.3   255  ILE255      0.0022
    168  CG2       44.1420   30.2440   28.8880 C.3   255  ILE255      0.0023
    169  CD1       40.7210   30.8250   30.2210 C.3   255  ILE255      0.0001
    170  N         43.3310   29.1990   25.8100 N.am  256  ASP256     -0.1971
    171  CA        44.0100   29.2470   24.5200 C.3   256  ASP256      0.1709
    172  C         43.0060   29.4740   23.4080 C.2   256  ASP256      0.2293
    173  O         43.1990   30.3230   22.5460 O.2   256  ASP256     -0.2864
    174  CB        44.7360   27.9320   24.3450 C.3   256  ASP256      0.1436
    175  CG        46.0080   27.8890   25.2010 C.2   256  ASP256      0.3671
    176  OD1       46.2780   28.8730   25.8990 O.co2 256  ASP256     -0.2456
    177  OD2       46.7350   26.8930   25.1330 O.co2 256  ASP256     -0.2456
    178  N         43.5250   31.8380   33.5330 N.3   268  THR268     -0.1218
    179  CA        43.0500   30.8220   34.4410 C.3   268  THR268      0.1862
    180  C         43.7100   31.0030   35.8010 C.2   268  THR268      0.2287
    181  O         44.9030   31.2760   35.9380 O.2   268  THR268     -0.2866
    182  CB        43.3620   29.4140   33.8930 C.3   268  THR268      0.1770
    183  OG1       42.4940   29.1650   32.7940 O.3   268  THR268     -0.2211
    184  CG2       43.1270   28.3400   34.9430 C.3   268  THR268      0.0375
    185  N         44.6950   29.1080   39.3760 N.3   270  GLU270     -0.1245
    186  CA        44.8200   27.8430   40.0970 C.3   270  GLU270      0.1567
    187  C         44.7930   28.2090   41.5750 C.2   270  GLU270      0.2260
    188  O         45.7620   28.7320   42.1120 O.2   270  GLU270     -0.2867
    189  CB        46.1550   27.1180   39.8190 C.3   270  GLU270      0.0388
    190  CG        46.3860   26.5840   38.3920 C.3   270  GLU270      0.1160
    191  CD        45.3060   25.6350   37.8480 C.2   270  GLU270      0.3649
    192  OE1       44.8520   25.8130   36.7250 O.co2 270  GLU270     -0.2457
    193  OE2       44.8950   24.7190   38.5310 O.co2 270  GLU270     -0.2457
    194  N         43.1780   18.7880   46.2720 N.3   279  PHE279     -0.1241
    195  CA        41.7740   18.9440   45.9060 C.3   279  PHE279      0.1605
    196  C         40.8880   18.8520   47.1200 C.2   279  PHE279      0.2264
    197  O         39.7160   19.2030   47.0810 O.2   279  PHE279     -0.2867
    198  CB        41.2720   17.8570   45.0000 C.3   279  PHE279      0.0534
    199  CG        42.1400   17.7350   43.7740 C.ar  279  PHE279     -0.0203
    200  CD1       42.1750   18.7680   42.8540 C.ar  279  PHE279     -0.0042
    201  CD2       42.9160   16.6090   43.6250 C.ar  279  PHE279     -0.0042
    202  CE1       43.0110   18.6890   41.7660 C.ar  279  PHE279     -0.0003
    203  CE2       43.7600   16.5390   42.5420 C.ar  279  PHE279     -0.0003
    204  CZ        43.7990   17.5710   41.6200 C.ar  279  PHE279     -0.0000
@<TRIPOS>BOND
     1   173   172    2
     2   172   171    1
     3    53    52    2
     4   174   171    1
     5   174   175    1
     6   171   170    1
     7   177   175   ar
     8   175   176   ar
     9    52    51    1
    10   155   154    2
    11   152   153    1
    12   170   164   am
    13   165   164    2
    14   159   158    2
    15   150   149    2
    16   164   163    1
    17   149   148    1
    18   154   153    1
    19   154   156   am
    20    51    54    1
    21    51    50    1
    22   158   157    1
    23   158   162   am
    24    54    55    1
    25   157   156    1
    26   157   160    1
    27    55    56    1
    28   163   162    1
    29   163   166    1
    30    50    44   am
    31   148   147    1
    32   148   151    1
    33    73    72    2
    34   160   161    1
    35    45    44    2
    36    44    43    1
    37    56    57    1
    38   168   166    1
    39   166   167    1
    40    72    71    1
    41    57    58    2
    42   126   124    1
    43    76    74    1
    44    43    42    1
    45    43    46    1
    46   167   169    1
    47    48    47    2
    48   123   124    1
    49   123   125    1
    50   123   120    1
    51    71    74    1
    52    71    70    1
    53    58    60    1
    54    58    59    1
    55   138   137    2
    56    47    46    1
    57    47    49   am
    58    74    75    1
    59   119   120    1
    60   137   136    1
    61   121   120    1
    62   121   122    2
    63    70    63   am
    64   136   139    1
    65   136   135    1
    66    63    64    2
    67    63    62    1
    68   141   143   ar
    69   141   140   ar
    70    61    62    1
    71   139   140    1
    72   183   182    1
    73   114   113    2
    74   143   145   ar
    75   113   112    1
    76   135   129   am
    77   140   142   ar
    78    62    65    1
    79    40    39    1
    80    10     9   ar
    81    10     8   ar
    82   178   179    1
    83   134   132    1
    84     9     7   ar
    85   182   179    1
    86   182   184    1
    87   115   112    1
    88   115   116    1
    89   112   111    1
    90   129   130    2
    91   129   128    1
    92    38    39    2
    93    38    37    1
    94   145   146    1
    95   145   144   ar
    96   142   144   ar
    97   116   118    1
    98   116   117    1
    99    65    66    1
   100    39    41    1
   101    86    85   ar
   102    86    84   ar
   103   179   180    1
   104     8     6   ar
   105    85    83   ar
   106   127   128    1
   107     7     6   ar
   108   128   131    1
   109   132   131    1
   110    37    36    1
   111    34    33    2
   112    66    67    1
   113     6     5    1
   114    84    82   ar
   115   131   133    1
   116    36    35    1
   117    33    32    1
   118    83    82   ar
   119   180   181    2
   120    68    67   ar
   121     1     2    1
   122    82    81    1
   123    67    69   ar
   124     2     5    1
   125     2     3    1
   126    35    32    1
   127   192   191   ar
   128    32    31    1
   129    81    78    1
   130   191   190    1
   131   191   193   ar
   132     3     4    2
   133    77    78    1
   134   190   189    1
   135    30    28   ar
   136    29    28   ar
   137    78    79    1
   138    20    19    1
   139    28    27    1
   140   185   186    1
   141    19    21    1
   142    19    18    2
   143   189   186    1
   144    18    17    1
   145    79    87   am
   146    79    80    2
   147   186   187    1
   148    27    26    1
   149    11    12    1
   150    87    88    1
   151    17    16    1
   152    90    89    2
   153    16    15    1
   154    26    23    1
   155   110   109    1
   156   109   106    1
   157    96    95    2
   158   187   188    2
   159   204   202   ar
   160   204   203   ar
   161    89    88    1
   162    89    93   am
   163   202   200   ar
   164    22    23    1
   165    22    13   am
   166    88    91    1
   167    15    12    1
   168    12    13    1
   169    93    94    1
   170    23    24    1
   171    95   105   am
   172    95    94    1
   173   203   201   ar
   174    13    14    2
   175   106   107    1
   176   106   105    1
   177    25    24    2
   178   200   199   ar
   179   107   108    2
   180    91    92    1
   181    94    97    1
   182   201   199   ar
   183   199   198    1
   184   101    99   ar
   185   101   103   ar
   186    99    98   ar
   187   103   104    1
   188   103   102   ar
   189    98    97    1
   190    98   100   ar
   191   102   100   ar
   192   198   195    1
   193   195   194    1
   194   195   196    1
   195   197   196    2
