@<TRIPOS>MOLECULE
tmp/6cpsA00.pdb
 126 121 0 0 0
SMALL
GASTEIGER

@<TRIPOS>ATOM
      1  N        -25.3760   45.5320    2.8770 N.3    31  VAL31      -0.1231
      2  CA       -25.2460   46.0300    4.2410 C.3    31  VAL31       0.1692
      3  C        -23.8030   45.9640    4.7310 C.2    31  VAL31       0.2592
      4  O        -23.4600   46.6070    5.7300 O.2    31  VAL31      -0.2718
      5  CB       -26.1930   45.2640    5.1810 C.3    31  VAL31       0.0266
      6  CG1      -25.6200   43.9010    5.5370 C.3    31  VAL31       0.0020
      7  CG2      -26.4880   46.0850    6.4150 C.3    31  VAL31       0.0020
      8  N        -22.9380   45.2240    4.0430 N.am   32  PHE32      -0.1976
      9  CA       -21.5390   45.1260    4.4280 C.3    32  PHE32       0.1639
     10  C        -20.6500   46.0630    3.6240 C.2    32  PHE32       0.2290
     11  O        -19.4230   45.9780    3.7330 O.2    32  PHE32      -0.2864
     12  CB       -21.0560   43.6790    4.2830 C.3    32  PHE32       0.0560
     13  CG       -21.9750   42.6780    4.9180 C.ar   32  PHE32      -0.0200
     14  CD1      -22.0940   42.6040    6.3000 C.ar   32  PHE32      -0.0042
     15  CD2      -22.7390   41.8260    4.1370 C.ar   32  PHE32      -0.0042
     16  CE1      -22.9610   41.6910    6.8950 C.ar   32  PHE32      -0.0003
     17  CE2      -23.6030   40.9130    4.7210 C.ar   32  PHE32      -0.0003
     18  CZ       -23.7150   40.8470    6.1020 C.ar   32  PHE32      -0.0000
     19  N        -20.6120   49.4050    3.8410 N.3    34  LYS34      -0.1231
     20  CA       -20.3890   50.6610    4.5350 C.3    34  LYS34       0.1678
     21  C        -20.2810   50.3970    6.0270 C.2    34  LYS34       0.2434
     22  O        -20.8200   49.3990    6.5230 O.2    34  LYS34      -0.2733
     23  CB       -21.5350   51.6530    4.2710 C.3    34  LYS34       0.0284
     24  CG       -21.7330   52.0740    2.7840 C.3    34  LYS34       0.0035
     25  CD       -23.1290   52.6850    2.5040 C.3    34  LYS34       0.0206
     26  CE       -24.2980   51.7070    2.2990 C.3    34  LYS34       0.1093
     27  NZ       -24.6710   50.8380    3.4210 N.3    34  LYS34      -0.1314
     28  N        -19.6010   51.2710    6.7690 N.am   35  PRO35      -0.2718
     29  CA       -19.5650   51.1270    8.2260 C.3    35  PRO35       0.1535
     30  C        -20.9420   51.3560    8.8190 C.2    35  PRO35       0.2598
     31  O        -21.8370   51.9300    8.1920 O.2    35  PRO35      -0.2715
     32  CB       -18.5780   52.2120    8.6820 C.3    35  PRO35       0.0310
     33  CG       -17.8670   52.6550    7.4440 C.3    35  PRO35       0.0237
     34  CD       -18.8360   52.4450    6.3190 C.3    35  PRO35       0.0939
     35  N        -21.1070   50.8830   10.0530 N.am   36  VAL36      -0.1978
     36  CA       -22.3950   50.9950   10.7220 C.3    36  VAL36       0.1596
     37  C        -22.6790   52.4600   11.0440 C.2    36  VAL36       0.2287
     38  O        -21.7630   53.2860   11.1800 O.2    36  VAL36      -0.2864
     39  CB       -22.4130   50.1210   11.9910 C.3    36  VAL36       0.0276
     40  CG1      -21.6330   50.7940   13.1140 C.3    36  VAL36       0.0022
     41  CG2      -23.8350   49.8230   12.4270 C.3    36  VAL36       0.0022
     42  N        -28.1680   54.6800   14.0660 N.3    40  GLU40      -0.1231
     43  CA       -29.0390   53.5240   13.8930 C.3    40  GLU40       0.1699
     44  C        -28.6920   52.4200   14.8860 C.2    40  GLU40       0.2592
     45  O        -29.5860   51.7700   15.4440 O.2    40  GLU40      -0.2718
     46  CB       -28.9410   53.0160   12.4540 C.3    40  GLU40       0.0402
     47  CG       -29.8570   51.8460   12.1230 C.3    40  GLU40       0.1161
     48  CD       -29.3790   51.0600   10.9110 C.2    40  GLU40       0.3649
     49  OE1      -29.1920   49.8300   11.0290 O.co2  40  GLU40      -0.2457
     50  OE2      -29.1760   51.6770    9.8440 O.co2  40  GLU40      -0.2457
     51  N        -27.4030   52.1930   15.1200 N.am   41  VAL41      -0.1980
     52  CA       -26.9590   51.1040   15.9850 C.3    41  VAL41       0.1595
     53  C        -25.9790   51.6600   17.0130 C.2    41  VAL41       0.2287
     54  O        -24.7580   51.5690   16.8160 O.2    41  VAL41      -0.2864
     55  CB       -26.3240   49.9700   15.1650 C.3    41  VAL41       0.0276
     56  CG1      -26.2040   48.7330   16.0100 C.3    41  VAL41       0.0022
     57  CG2      -27.1420   49.6800   13.9020 C.3    41  VAL41       0.0022
     58  N        -23.2350   49.1980   18.6440 N.3    44  TYR44      -0.1241
     59  CA       -22.3890   48.3590   17.7960 C.3    44  TYR44       0.1605
     60  C        -20.9160   48.5520   18.1390 C.2    44  TYR44       0.2264
     61  O        -20.1820   47.5790   18.3520 O.2    44  TYR44      -0.2867
     62  CB       -22.6280   48.6530   16.3120 C.3    44  TYR44       0.0534
     63  CG       -21.9850   47.6190   15.3940 C.ar   44  TYR44      -0.0201
     64  CD1      -22.6640   46.4560   15.0530 C.ar   44  TYR44      -0.0009
     65  CD2      -20.6970   47.7970   14.8900 C.ar   44  TYR44      -0.0009
     66  CE1      -22.0930   45.4990   14.2320 C.ar   44  TYR44       0.0417
     67  CE2      -20.1110   46.8400   14.0550 C.ar   44  TYR44       0.0417
     68  CZ       -20.8150   45.6950   13.7370 C.ar   44  TYR44       0.1957
     69  OH       -20.2540   44.7360   12.9220 O.3    44  TYR44      -0.2866
     70  N        -15.6170   45.9170   10.6780 N.3    52  MET52      -0.1230
     71  CA       -15.0080   45.7630    9.3640 C.3    52  MET52       0.1702
     72  C        -16.1070   45.7300    8.3130 C.2    52  MET52       0.2592
     73  O        -17.1730   45.1580    8.5370 O.2    52  MET52      -0.2718
     74  CB       -14.1470   44.4870    9.2990 C.3    52  MET52       0.0401
     75  CG       -13.3220   44.3140    8.0040 C.3    52  MET52       0.0596
     76  SD       -12.2550   45.7200    7.6520 S.3    52  MET52      -0.1393
     77  CE       -11.2430   45.7970    9.1350 C.3    52  MET52       0.0692
     78  N        -15.8440   46.3500    7.1670 N.am   53  ASP53      -0.1974
     79  CA       -16.7970   46.3670    6.0710 C.3    53  ASP53       0.1709
     80  C        -15.9980   46.5490    4.7910 C.2    53  ASP53       0.2293
     81  O        -14.7950   46.8100    4.8300 O.2    53  ASP53      -0.2864
     82  CB       -17.8190   47.4880    6.2370 C.3    53  ASP53       0.1436
     83  CG       -17.1760   48.8510    6.0940 C.2    53  ASP53       0.3671
     84  OD1      -16.5640   49.3420    7.0630 O.co2  53  ASP53      -0.2456
     85  OD2      -17.2350   49.4010    4.9850 O.co2  53  ASP53      -0.2456
     86  N        -20.7320   39.6280   12.2760 N.3    83  ALA83      -0.1245
     87  CA       -22.1730   39.4630   12.1200 C.3    83  ALA83       0.1562
     88  C        -22.6820   38.2870   12.9430 C.2    83  ALA83       0.2260
     89  O        -23.7720   38.3550   13.5210 O.2    83  ALA83      -0.2867
     90  CB       -22.5330   39.2970   10.6390 C.3    83  ALA83       0.0290
     91  N        -22.8040   39.8090   16.4630 N.3    86  TYR86      -0.1227
     92  CA       -23.7760   40.8590   16.7370 C.3    86  TYR86       0.1736
     93  C        -25.2170   40.4120   16.5160 C.2    86  TYR86       0.2595
     94  O        -26.1310   40.9840   17.1180 O.2    86  TYR86      -0.2718
     95  CB       -23.5040   42.1020   15.8880 C.3    86  TYR86       0.0548
     96  CG       -24.2560   43.2830   16.4410 C.ar   86  TYR86      -0.0200
     97  CD1      -23.8110   43.9260   17.5920 C.ar   86  TYR86      -0.0009
     98  CD2      -25.4310   43.7290   15.8480 C.ar   86  TYR86      -0.0009
     99  CE1      -24.5030   44.9980   18.1230 C.ar   86  TYR86       0.0417
    100  CE2      -26.1310   44.7960   16.3730 C.ar   86  TYR86       0.0417
    101  CZ       -25.6630   45.4270   17.5090 C.ar   86  TYR86       0.1957
    102  OH       -26.3600   46.4880   18.0390 O.3    86  TYR86      -0.2866
    103  N        -25.4520   39.4180   15.6650 N.am   87  ASN87      -0.1974
    104  CA       -26.8080   38.9810   15.3240 C.3    87  ASN87       0.1688
    105  C        -26.9100   37.4730   15.5150 C.2    87  ASN87       0.2292
    106  O        -27.0300   36.7220   14.5380 O.2    87  ASN87      -0.2864
    107  CB       -27.1630   39.3680   13.8850 C.3    87  ASN87       0.1181
    108  CG       -27.2770   40.8660   13.6880 C.2    87  ASN87       0.2629
    109  OD1      -26.3500   41.5090   13.2000 O.2    87  ASN87      -0.2716
    110  ND2      -28.4260   41.4310   14.0620 N.am   87  ASN87      -0.0877
    111  N        -31.9660   38.1760   12.0980 N.3    94  ASP94      -0.1239
    112  CA       -30.5980   37.7810   12.4380 C.3    94  ASP94       0.1674
    113  C        -30.1050   36.6700   11.5210 C.2    94  ASP94       0.2266
    114  O        -28.9760   36.7180   11.0200 O.2    94  ASP94      -0.2867
    115  CB       -30.5150   37.3300   13.9010 C.3    94  ASP94       0.1410
    116  CG       -30.3970   38.5000   14.8770 C.2    94  ASP94       0.3668
    117  OD1      -30.6910   39.6540   14.4890 O.co2  94  ASP94      -0.2456
    118  OD2      -29.9940   38.2600   16.0350 O.co2  94  ASP94      -0.2456
    119  N        -28.9630   38.0310    8.0770 N.3    97  ILE97      -0.1245
    120  CA       -27.6680   38.7110    8.1190 C.3    97  ILE97       0.1561
    121  C        -26.5290   37.7020    8.2320 C.2    97  ILE97       0.2260
    122  O        -25.5080   37.8130    7.5390 O.2    97  ILE97      -0.2867
    123  CB       -27.6510   39.7270    9.2760 C.3    97  ILE97       0.0252
    124  CG1      -28.6410   40.8560    8.9870 C.3    97  ILE97       0.0019
    125  CG2      -26.2580   40.2940    9.4790 C.3    97  ILE97       0.0019
    126  CD1      -28.9630   41.7350   10.2030 C.3    97  ILE97       0.0001
@<TRIPOS>BOND
     1    26    25    1
     2    26    27    1
     3    25    24    1
     4    24    23    1
     5     1     2    1
     6    10    11    2
     7    10     9    1
     8    19    20    1
     9     8     9    1
    10     8     3   am
    11    15    17   ar
    12    15    13   ar
    13     2     3    1
    14     2     5    1
    15    23    20    1
    16    12     9    1
    17    12    13    1
    18    20    21    1
    19    17    18   ar
    20     3     4    2
    21    80    81    2
    22    80    79    1
    23    13    14   ar
    24    85    83   ar
    25     5     6    1
    26     5     7    1
    27    21    22    2
    28    21    28   am
    29    79    82    1
    30    79    78    1
    31    83    82    1
    32    83    84   ar
    33    18    16   ar
    34    14    16   ar
    35    34    28    1
    36    34    33    1
    37    28    29    1
    38    78    72   am
    39    33    32    1
    40   122   121    2
    41    76    75    1
    42    76    77    1
    43    75    74    1
    44   119   120    1
    45   120   121    1
    46   120   123    1
    47    31    30    2
    48    29    32    1
    49    29    30    1
    50    72    73    2
    51    72    71    1
    52    30    35   am
    53   124   123    1
    54   124   126    1
    55   123   125    1
    56    74    71    1
    57    71    70    1
    58    50    48   ar
    59    35    36    1
    60    90    87    1
    61    36    37    1
    62    36    39    1
    63    48    49   ar
    64    48    47    1
    65   114   113    2
    66    37    38    2
    67   113   112    1
    68    39    41    1
    69    39    40    1
    70   111   112    1
    71    87    86    1
    72    87    88    1
    73    47    46    1
    74   112   115    1
    75    46    43    1
    76    69    68    1
    77    88    89    2
    78   109   108    2
    79   108   107    1
    80   108   110   am
    81    68    67   ar
    82    68    66   ar
    83   107   104    1
    84    43    42    1
    85    43    44    1
    86   115   116    1
    87    57    55    1
    88    67    65   ar
    89    66    64   ar
    90   117   116   ar
    91   106   105    2
    92   116   118   ar
    93    44    51   am
    94    44    45    2
    95    65    63   ar
    96    64    63   ar
    97    51    52    1
    98    55    52    1
    99    55    56    1
   100   104   105    1
   101   104   103    1
   102    63    62    1
   103   103    93   am
   104    98   100   ar
   105    98    96   ar
   106    95    96    1
   107    95    92    1
   108    52    53    1
   109    62    59    1
   110   100   101   ar
   111    96    97   ar
   112    91    92    1
   113    93    92    1
   114    93    94    2
   115    54    53    2
   116   101   102    1
   117   101    99   ar
   118    97    99   ar
   119    59    60    1
   120    59    58    1
   121    60    61    2
