@<TRIPOS>MOLECULE
tmp/6cptA00.pdb
 137 132 0 0 0
SMALL
GASTEIGER

@<TRIPOS>ATOM
      1  N         42.9260   44.7850   37.5030 N.3   232  PHE232     -0.1227
      2  CA        42.3380   43.5620   38.0360 C.3   232  PHE232      0.1736
      3  C         41.6320   43.7530   39.3750 C.2   232  PHE232      0.2595
      4  O         40.4530   43.4520   39.4920 O.2   232  PHE232     -0.2718
      5  CB        43.4120   42.4900   38.1790 C.3   232  PHE232      0.0547
      6  CG        42.8770   41.1530   38.6080 C.ar  232  PHE232     -0.0202
      7  CD1       42.5930   40.1670   37.6690 C.ar  232  PHE232     -0.0042
      8  CD2       42.6550   40.8750   39.9480 C.ar  232  PHE232     -0.0042
      9  CE1       42.1070   38.9320   38.0660 C.ar  232  PHE232     -0.0003
     10  CE2       42.1690   39.6480   40.3530 C.ar  232  PHE232     -0.0003
     11  CZ        41.8930   38.6730   39.4120 C.ar  232  PHE232     -0.0000
     12  N         42.3590   44.2220   40.3880 N.am  233  HIS233     -0.1975
     13  CA        41.8090   44.3240   41.7530 C.3   233  HIS233      0.1656
     14  C         40.9430   45.5660   41.9350 C.2   233  HIS233      0.2291
     15  O         41.2790   46.4800   42.6920 O.2   233  HIS233     -0.2864
     16  CB        42.9320   44.2910   42.7880 C.3   233  HIS233      0.0771
     17  CG        43.6280   42.9750   42.8620 C.ar  233  HIS233      0.0820
     18  ND1       44.8380   42.7380   42.2520 N.ar  233  HIS233     -0.2267
     19  CD2       43.2660   41.8110   43.4470 C.ar  233  HIS233      0.1154
     20  CE1       45.2000   41.4850   42.4680 C.ar  233  HIS233      0.1986
     21  NE2       44.2620   40.9030   43.1910 N.ar  233  HIS233     -0.2212
     22  N         51.0810   43.7760   45.1030 N.3   309  THR309     -0.1218
     23  CA        51.0280   42.4230   45.6520 C.3   309  THR309      0.1862
     24  C         51.6950   42.4620   47.0220 C.2   309  THR309      0.2287
     25  O         52.4560   43.3840   47.3010 O.2   309  THR309     -0.2866
     26  CB        51.8180   41.4350   44.7670 C.3   309  THR309      0.1770
     27  OG1       53.2010   41.8140   44.7560 O.3   309  THR309     -0.2211
     28  CG2       51.3030   41.4320   43.3490 C.3   309  THR309      0.0375
     29  N         47.2560   34.4900   49.6240 N.3   376  MET376     -0.1245
     30  CA        47.8460   33.3230   48.9460 C.3   376  MET376      0.1570
     31  C         49.1450   32.8300   49.5840 C.2   376  MET376      0.2261
     32  O         49.5350   31.6780   49.3790 O.2   376  MET376     -0.2867
     33  CB        48.0840   33.6180   47.4600 C.3   376  MET376      0.0387
     34  CG        46.8120   33.6740   46.6240 C.3   376  MET376      0.0595
     35  SD        45.9170   32.1040   46.5950 S.3   376  MET376     -0.1393
     36  CE        47.0530   31.0950   45.6470 C.3   376  MET376      0.0692
     37  N         37.8400   33.6920   45.1130 N.3   411  ASP411     -0.1225
     38  CA        38.8650   34.6940   44.8180 C.3   411  ASP411      0.1805
     39  C         39.7270   34.3160   43.6160 C.2   411  ASP411      0.2597
     40  O         40.1020   35.1810   42.8300 O.2   411  ASP411     -0.2718
     41  CB        39.7450   34.9270   46.0450 C.3   411  ASP411      0.1424
     42  CG        40.5980   36.1670   45.9260 C.2   411  ASP411      0.3668
     43  OD1       40.2030   37.1110   45.2170 O.co2 411  ASP411     -0.2456
     44  OD2       41.6720   36.1900   46.5500 O.co2 411  ASP411     -0.2456
     45  N         40.0350   33.0290   43.4650 N.am  412  ILE412     -0.1980
     46  CA        40.8440   32.5800   42.3260 C.3   412  ILE412      0.1595
     47  C         39.9920   31.8460   41.2840 C.2   412  ILE412      0.2287
     48  O         40.5070   31.0390   40.5140 O.2   412  ILE412     -0.2864
     49  CB        42.0580   31.7280   42.7730 C.3   412  ILE412      0.0276
     50  CG1       41.6210   30.4010   43.3980 C.3   412  ILE412      0.0022
     51  CG2       42.9160   32.5050   43.7650 C.3   412  ILE412      0.0022
     52  CD1       42.7310   29.3790   43.4550 C.3   412  ILE412      0.0001
     53  N         38.6190   32.7790   38.5370 N.3   414  ASN414     -0.1225
     54  CA        38.7980   33.1070   37.1220 C.3   414  ASN414      0.1785
     55  C         39.3000   31.9320   36.2710 C.2   414  ASN414      0.2597
     56  O         38.9180   31.8220   35.1080 O.2   414  ASN414     -0.2718
     57  CB        39.6770   34.3520   36.9210 C.3   414  ASN414      0.1169
     58  CG        41.0420   34.2250   37.5570 C.2   414  ASN414      0.2627
     59  OD1       41.9540   33.6170   36.9910 O.2   414  ASN414     -0.2716
     60  ND2       41.2010   34.8250   38.7320 N.am  414  ASN414     -0.0877
     61  N         40.1340   31.0640   36.8450 N.am  415  VAL415     -0.1980
     62  CA        40.5960   29.8580   36.1310 C.3   415  VAL415      0.1595
     63  C         39.5320   28.7540   36.0360 C.2   415  VAL415      0.2287
     64  O         39.7070   27.7940   35.2800 O.2   415  VAL415     -0.2864
     65  CB        41.9000   29.2680   36.7280 C.3   415  VAL415      0.0276
     66  CG1       43.0230   30.2920   36.6530 C.3   415  VAL415      0.0022
     67  CG2       41.7010   28.7770   38.1550 C.3   415  VAL415      0.0022
     68  N         42.6440   36.6950   32.7000 N.3   426  ALA426     -0.1245
     69  CA        44.0830   36.4880   32.5630 C.3   426  ALA426      0.1562
     70  C         44.7700   37.7160   31.9740 C.2   426  ALA426      0.2260
     71  O         45.8470   38.1190   32.4240 O.2   426  ALA426     -0.2867
     72  CB        44.3620   35.2630   31.6990 C.3   426  ALA426      0.0290
     73  N         44.7060   40.7090   34.5320 N.3   429  LEU429     -0.1245
     74  CA        45.6860   40.3830   35.5660 C.3   429  LEU429      0.1561
     75  C         47.1070   40.6480   35.0570 C.2   429  LEU429      0.2260
     76  O         47.9420   41.1960   35.7850 O.2   429  LEU429     -0.2867
     77  CB        45.5380   38.9390   36.0630 C.3   429  LEU429      0.0270
     78  CG        46.4230   38.5570   37.2600 C.3   429  LEU429      0.0019
     79  CD1       46.3650   39.5860   38.3810 C.3   429  LEU429      0.0001
     80  CD2       46.0460   37.1920   37.7930 C.3   429  LEU429      0.0001
     81  N         50.0130   43.1750   36.6760 N.3   433  PHE433     -0.1241
     82  CA        51.3790   42.7010   36.9240 C.3   433  PHE433      0.1605
     83  C         52.4280   43.5460   36.2020 C.2   433  PHE433      0.2264
     84  O         53.4800   43.8280   36.7690 O.2   433  PHE433     -0.2867
     85  CB        51.5480   41.2220   36.5240 C.3   433  PHE433      0.0534
     86  CG        50.8960   40.2280   37.4680 C.ar  433  PHE433     -0.0203
     87  CD1       50.4950   40.5790   38.7600 C.ar  433  PHE433     -0.0042
     88  CD2       50.7230   38.9090   37.0630 C.ar  433  PHE433     -0.0042
     89  CE1       49.9140   39.6430   39.6040 C.ar  433  PHE433     -0.0003
     90  CE2       50.1490   37.9680   37.9080 C.ar  433  PHE433     -0.0003
     91  CZ        49.7450   38.3340   39.1770 C.ar  433  PHE433     -0.0000
     92  N         51.3620   31.5740   32.1210 N.3   477  GLY477     -0.1210
     93  CA        50.8470   32.0670   33.4000 C.3   477  GLY477      0.1956
     94  C         49.7350   31.1840   33.9550 C.2   477  GLY477      0.2611
     95  O         49.7090   30.8800   35.1500 O.2   477  GLY477     -0.2717
     96  N         48.8250   30.7580   33.0790 N.am  478  GLN478     -0.1979
     97  CA        47.6700   29.9520   33.4860 C.3   478  GLN478      0.1601
     98  C         48.0660   28.5370   33.8900 C.2   478  GLN478      0.2287
     99  O         47.5370   27.9920   34.8640 O.2   478  GLN478     -0.2864
    100  CB        46.6230   29.8960   32.3640 C.3   478  GLN478      0.0394
    101  CG        46.0350   31.2470   31.9810 C.3   478  GLN478      0.0908
    102  CD        45.3200   31.9320   33.1340 C.2   478  GLN478      0.2608
    103  OE1       44.2160   31.5450   33.5120 O.2   478  GLN478     -0.2717
    104  NE2       45.9450   32.9600   33.6910 N.am  478  GLN478     -0.0878
    105  N         51.0960   27.5920   34.9810 N.3   480  PHE480     -0.1227
    106  CA        51.8270   27.7600   36.2380 C.3   480  PHE480      0.1736
    107  C         50.8700   27.8450   37.4240 C.2   480  PHE480      0.2595
    108  O         51.0310   27.1290   38.4140 O.2   480  PHE480     -0.2718
    109  CB        52.6910   29.0230   36.1580 C.3   480  PHE480      0.0547
    110  CG        53.4640   29.3300   37.4150 C.ar  480  PHE480     -0.0202
    111  CD1       54.7440   28.8200   37.6040 C.ar  480  PHE480     -0.0042
    112  CD2       52.9250   30.1590   38.3980 C.ar  480  PHE480     -0.0042
    113  CE1       55.4650   29.1170   38.7510 C.ar  480  PHE480     -0.0003
    114  CE2       53.6390   30.4540   39.5490 C.ar  480  PHE480     -0.0003
    115  CZ        54.9120   29.9350   39.7250 C.ar  480  PHE480     -0.0000
    116  N         49.8690   28.7160   37.3080 N.am  481  PHE481     -0.1976
    117  CA        48.9440   28.9810   38.4110 C.3   481  PHE481      0.1639
    118  C         48.0310   27.7970   38.6990 C.2   481  PHE481      0.2290
    119  O         47.7580   27.4920   39.8570 O.2   481  PHE481     -0.2864
    120  CB        48.1040   30.2360   38.1350 C.3   481  PHE481      0.0560
    121  CG        47.1900   30.6070   39.2700 C.ar  481  PHE481     -0.0200
    122  CD1       47.7060   31.1460   40.4390 C.ar  481  PHE481     -0.0042
    123  CD2       45.8180   30.3990   39.1780 C.ar  481  PHE481     -0.0042
    124  CE1       46.8720   31.4780   41.4940 C.ar  481  PHE481     -0.0003
    125  CE2       44.9800   30.7300   40.2310 C.ar  481  PHE481     -0.0003
    126  CZ        45.5080   31.2680   41.3910 C.ar  481  PHE481     -0.0000
    127  N         48.6250   26.0690   42.3680 N.3   485  PHE485     -0.1241
    128  CA        47.6210   26.5660   43.3170 C.3   485  PHE485      0.1605
    129  C         46.2010   26.0570   43.0820 C.2   485  PHE485      0.2264
    130  O         45.5850   25.5020   43.9910 O.2   485  PHE485     -0.2867
    131  CB        47.6070   28.1000   43.3160 C.3   485  PHE485      0.0534
    132  CG        48.8920   28.7160   43.7840 C.ar  485  PHE485     -0.0203
    133  CD1       49.2470   28.6740   45.1270 C.ar  485  PHE485     -0.0042
    134  CD2       49.7510   29.3360   42.8860 C.ar  485  PHE485     -0.0042
    135  CE1       50.4340   29.2410   45.5670 C.ar  485  PHE485     -0.0003
    136  CE2       50.9390   29.9050   43.3180 C.ar  485  PHE485     -0.0003
    137  CZ        51.2810   29.8580   44.6610 C.ar  485  PHE485     -0.0000
@<TRIPOS>BOND
     1    72    69    1
     2    70    71    2
     3    70    69    1
     4   101   100    1
     5   101   102    1
     6    92    93    1
     7   100    97    1
     8    69    68    1
     9    96    97    1
    10    96    94   am
    11   102   103    2
    12   102   104   am
    13    93    94    1
    14    97    98    1
    15    98    99    2
    16    94    95    2
    17    73    74    1
    18   105   106    1
    19    75    74    1
    20    75    76    2
    21    56    55    2
    22    64    63    2
    23    74    77    1
    24    63    62    1
    25    77    78    1
    26    62    65    1
    27    62    61    1
    28   109   106    1
    29   109   110    1
    30    83    84    2
    31    83    82    1
    32   106   107    1
    33    55    61   am
    34    55    54    1
    35    85    82    1
    36    85    86    1
    37    66    65    1
    38    81    82    1
    39    65    67    1
    40    57    54    1
    41    57    58    1
    42    59    58    2
    43    88    86   ar
    44    88    90   ar
    45    54    53    1
    46    78    80    1
    47    78    79    1
    48   116   107   am
    49   116   117    1
    50   110   111   ar
    51   110   112   ar
    52   107   108    2
    53    86    87   ar
    54     1     2    1
    55    58    60   am
    56   111   113   ar
    57     7     9   ar
    58     7     6   ar
    59    90    91   ar
    60     2     5    1
    61     2     3    1
    62     9    11   ar
    63   120   117    1
    64   120   121    1
    65     5     6    1
    66   112   114   ar
    67   117   118    1
    68     6     8   ar
    69   118   119    2
    70   113   115   ar
    71    87    89   ar
    72    91    89   ar
    73   123   121   ar
    74   123   125   ar
    75   121   122   ar
    76     3     4    2
    77     3    12   am
    78    11    10   ar
    79   114   115   ar
    80     8    10   ar
    81   125   126   ar
    82    12    13    1
    83   122   124   ar
    84    48    47    2
    85    47    46    1
    86   126   124   ar
    87    13    14    1
    88    13    16    1
    89    14    15    2
    90    18    20   ar
    91    18    17   ar
    92    46    49    1
    93    46    45    1
    94   127   128    1
    95    20    21   ar
    96    49    50    1
    97    49    51    1
    98    16    17    1
    99    40    39    2
   100    17    19   ar
   101   134   136   ar
   102   134   132   ar
   103   129   128    1
   104   129   130    2
   105    21    19   ar
   106   131   128    1
   107   131   132    1
   108   136   137   ar
   109    28    26    1
   110    50    52    1
   111    45    39   am
   112    39    38    1
   113   132   133   ar
   114   137   135   ar
   115    27    26    1
   116    26    23    1
   117    38    37    1
   118    38    41    1
   119    22    23    1
   120   133   135   ar
   121    43    42   ar
   122    36    35    1
   123    23    24    1
   124    42    41    1
   125    42    44   ar
   126    35    34    1
   127    34    33    1
   128    24    25    2
   129    33    30    1
   130    30    31    1
   131    30    29    1
   132    32    31    2
