@<TRIPOS>MOLECULE
tmp/6cpwA00.pdb
 228 214 0 0 0
SMALL
GASTEIGER

@<TRIPOS>ATOM
      1  N         41.9900    8.2460    4.8500 N.3    12  ILE12      -0.1245
      2  CA        42.5880    7.9560    6.1480 C.3    12  ILE12       0.1561
      3  C         41.8320    8.7690    7.1910 C.2    12  ILE12       0.2260
      4  O         41.4270    8.2240    8.2230 O.2    12  ILE12      -0.2867
      5  CB        44.1080    8.3040    6.1710 C.3    12  ILE12       0.0252
      6  CG1       44.8860    7.4720    5.1300 C.3    12  ILE12       0.0019
      7  CG2       44.6980    8.1090    7.5900 C.3    12  ILE12       0.0019
      8  CD1       46.3670    7.8430    4.9830 C.3    12  ILE12       0.0001
      9  N         40.1960   20.1290   10.4750 N.3    16  ALA16      -0.1231
     10  CA        40.1130   21.5350   10.0510 C.3    16  ALA16       0.1694
     11  C         41.1570   21.8480    8.9490 C.2    16  ALA16       0.2592
     12  O         40.8530   22.5720    8.0060 O.2    16  ALA16      -0.2718
     13  CB        40.2990   22.4580   11.2470 C.3    16  ALA16       0.0304
     14  N         42.3550   21.2370    9.0520 N.am   17  TYR17      -0.1976
     15  CA        43.4410   21.3350    8.0550 C.3    17  TYR17       0.1639
     16  C         43.0260   20.9600    6.6230 C.2    17  TYR17       0.2290
     17  O         43.6190   21.4670    5.6700 O.2    17  TYR17      -0.2864
     18  CB        44.6150   20.4210    8.4670 C.3    17  TYR17       0.0560
     19  CG        44.3080   18.9370    8.3490 C.ar   17  TYR17      -0.0198
     20  CD1       44.5710   18.2430    7.1740 C.ar   17  TYR17      -0.0009
     21  CD2       43.8330   18.2110    9.4380 C.ar   17  TYR17      -0.0009
     22  CE1       44.2980   16.8840    7.0580 C.ar   17  TYR17       0.0417
     23  CE2       43.5710   16.8460    9.3390 C.ar   17  TYR17       0.0417
     24  CZ        43.7680   16.1930    8.1310 C.ar   17  TYR17       0.1957
     25  OH        43.5350   14.8450    7.9860 O.3    17  TYR17      -0.2866
     26  N         43.3590   13.9300    4.4930 N.3    20  VAL20      -0.1245
     27  CA        44.5640   13.1350    4.2490 C.3    20  VAL20       0.1561
     28  C         44.1660   11.7480    3.6610 C.2    20  VAL20       0.2260
     29  O         43.2250   11.1150    4.1500 O.2    20  VAL20      -0.2867
     30  CB        45.4930   13.0650    5.4920 C.3    20  VAL20       0.0252
     31  CG1       44.8680   12.2810    6.6430 C.3    20  VAL20       0.0019
     32  CG2       46.8710   12.4940    5.1370 C.3    20  VAL20       0.0019
     33  N         51.4950    9.2490    2.2080 N.3    28  ALA28      -0.1245
     34  CA        50.3580    9.9910    2.7520 C.3    28  ALA28       0.1562
     35  C         50.3000   11.2860    1.9430 C.2    28  ALA28       0.2260
     36  O         51.3420   11.8070    1.5520 O.2    28  ALA28      -0.2867
     37  CB        50.5490   10.3200    4.2380 C.3    28  ALA28       0.0290
     38  N         48.1000   15.0120    1.9460 N.3    30  LYS30      -0.1245
     39  CA        47.0650   15.8550    2.5420 C.3    30  LYS30       0.1561
     40  C         46.8060   17.0670    1.6640 C.2    30  LYS30       0.2260
     41  O         47.7500   17.6820    1.1840 O.2    30  LYS30      -0.2867
     42  CB        47.4100   16.2850    3.9630 C.3    30  LYS30       0.0271
     43  CG        48.7040   17.0630    4.0980 C.3    30  LYS30       0.0035
     44  CD        49.0890   17.2140    5.5420 C.3    30  LYS30       0.0206
     45  CE        50.4510   17.8240    5.6500 C.3    30  LYS30       0.1093
     46  NZ        50.9750   17.7130    7.0320 N.3    30  LYS30      -0.1314
     47  N         45.5150   20.8240    1.4460 N.3    32  ILE32      -0.1231
     48  CA        45.3690   22.0150    2.2800 C.3    32  ILE32       0.1692
     49  C         44.7930   23.1230    1.3790 C.2    32  ILE32       0.2593
     50  O         45.3250   23.3470    0.2830 O.2    32  ILE32      -0.2718
     51  CB        46.7350   22.4570    2.8640 C.3    32  ILE32       0.0266
     52  CG1       47.5500   21.2680    3.4830 C.3    32  ILE32       0.0019
     53  CG2       46.5370   23.5880    3.8950 C.3    32  ILE32       0.0020
     54  CD1       46.8340   20.4510    4.5220 C.3    32  ILE32       0.0001
     55  N         43.7680   23.8470    1.8560 N.am   33  SER33      -0.1939
     56  CA        43.0930   24.9380    1.1260 C.3    33  SER33       0.2040
     57  C         43.0050   26.1600    2.0530 C.2    33  SER33       0.2485
     58  O         41.9210   26.5060    2.5280 O.2    33  SER33      -0.2729
     59  CB        41.7120   24.4730    0.6770 C.3    33  SER33       0.2129
     60  OG        41.8320   23.2400   -0.0140 O.3    33  SER33      -0.2179
     61  N         44.1540   26.8150    2.3310 N.am   34  PRO34      -0.2726
     62  CA        44.2070   27.8770    3.3370 C.3    34  PRO34       0.1402
     63  C         44.1540   29.3270    2.8880 C.2    34  PRO34       0.2269
     64  O         44.2230   30.2070    3.7390 O.2    34  PRO34      -0.2865
     65  CB        45.5990   27.6450    3.9290 C.3    34  PRO34       0.0296
     66  CG        46.4310   27.2310    2.7330 C.3    34  PRO34       0.0237
     67  CD        45.4820   26.6670    1.7000 C.3    34  PRO34       0.0939
     68  N         45.1560   30.5170    8.5460 N.3    40  TYR40      -0.1241
     69  CA        45.3780   29.2460    7.8510 C.3    40  TYR40       0.1605
     70  C         46.6720   29.3090    7.0480 C.2    40  TYR40       0.2264
     71  O         47.4040   28.3160    7.0160 O.2    40  TYR40      -0.2867
     72  CB        44.1980   28.8880    6.9300 C.3    40  TYR40       0.0534
     73  CG        42.8120   28.8540    7.5480 C.ar   40  TYR40      -0.0201
     74  CD1       42.6340   28.8480    8.9290 C.ar   40  TYR40      -0.0009
     75  CD2       41.6750   28.8610    6.7480 C.ar   40  TYR40      -0.0009
     76  CE1       41.3570   28.8660    9.4930 C.ar   40  TYR40       0.0417
     77  CE2       40.3990   28.8890    7.3020 C.ar   40  TYR40       0.0417
     78  CZ        40.2430   28.8870    8.6760 C.ar   40  TYR40       0.1957
     79  OH        38.9850   28.9030    9.2420 O.3    40  TYR40      -0.2866
     80  N         49.7300   29.0020    9.4800 N.3    43  ARG43      -0.1231
     81  CA        49.9170   27.6010    9.8940 C.3    43  ARG43       0.1694
     82  C         50.5170   26.7460    8.7730 C.2    43  ARG43       0.2592
     83  O         51.4170   25.9440    9.0300 O.2    43  ARG43      -0.2718
     84  CB        48.6000   26.9860   10.3750 C.3    43  ARG43       0.0321
     85  CG        48.1240   27.6010   11.6950 C.3    43  ARG43       0.0489
     86  CD        46.7830   27.1040   12.1390 C.3    43  ARG43       0.2205
     87  NE        46.2980   27.9240   13.2560 N.pl3  43  ARG43      -0.0865
     88  CZ        45.0550   27.9120   13.7310 C.cat  43  ARG43       0.5346
     89  NH1       44.1370   27.1060   13.2020 N.pl3  43  ARG43       0.1354
     90  NH2       44.7180   28.7090   14.7380 N.pl3  43  ARG43       0.1354
     91  N         50.0840   26.9930    7.5270 N.am   44  THR44      -0.1953
     92  CA        50.5840   26.2700    6.3630 C.3    44  THR44       0.1897
     93  C         52.0570   26.6310    6.1220 C.2    44  THR44       0.2313
     94  O         52.8470   25.7400    5.8390 O.2    44  THR44      -0.2863
     95  CB        49.7150   26.5400    5.1450 C.3    44  THR44       0.1794
     96  OG1       48.3710   26.1480    5.4470 O.3    44  THR44      -0.2208
     97  CG2       50.1880   25.7910    3.9060 C.3    44  THR44       0.0378
     98  N         54.3070   24.9900    8.9070 N.3    47  GLU47      -0.1245
     99  CA        54.4040   23.5420    8.6430 C.3    47  GLU47       0.1567
    100  C         55.4340   23.2610    7.5340 C.2    47  GLU47       0.2260
    101  O         56.4180   22.5350    7.7620 O.2    47  GLU47      -0.2867
    102  CB        53.0090   22.9880    8.2750 C.3    47  GLU47       0.0388
    103  CG        52.9410   21.5540    7.7340 C.3    47  GLU47       0.1160
    104  CD        52.8470   20.4140    8.7300 C.2    47  GLU47       0.3649
    105  OE1       53.0100   20.6500    9.9390 O.co2  47  GLU47      -0.2457
    106  OE2       52.6560   19.2620    8.2910 O.co2  47  GLU47      -0.2457
    107  N         58.2440   13.6600   11.1190 N.3    60  ILE60      -0.1245
    108  CA        57.7290   13.3740    9.7810 C.3    60  ILE60       0.1561
    109  C         58.3860   14.3460    8.7670 C.2    60  ILE60       0.2260
    110  O         58.5890   15.5050    9.0790 O.2    60  ILE60      -0.2867
    111  CB        56.1620   13.5040    9.7620 C.3    60  ILE60       0.0252
    112  CG1       55.5430   12.8350    8.5270 C.3    60  ILE60       0.0019
    113  CG2       55.7300   14.9700    9.7970 C.3    60  ILE60       0.0019
    114  CD1       55.8680   11.3550    8.3380 C.3    60  ILE60       0.0001
    115  N         50.4620   18.1350    0.2550 N.3    79  ILE79      -0.1245
    116  CA        51.7250   17.8210    0.9200 C.3    79  ILE79       0.1561
    117  C         51.8940   16.3010    1.0250 C.2    79  ILE79       0.2260
    118  O         51.0550   15.6330    1.6200 O.2    79  ILE79      -0.2867
    119  CB        51.8040   18.5440    2.2820 C.3    79  ILE79       0.0252
    120  CG1       51.7360   20.0850    2.0610 C.3    79  ILE79       0.0019
    121  CG2       53.1000   18.1440    2.9920 C.3    79  ILE79       0.0019
    122  CD1       51.4780   20.8880    3.2640 C.3    79  ILE79       0.0001
    123  N         53.8930   13.0060    2.3700 N.3    81  GLN81      -0.1231
    124  CA        54.7020   12.5830    3.5090 C.3    81  GLN81       0.1698
    125  C         54.7210   11.0820    3.6020 C.2    81  GLN81       0.2592
    126  O         53.9320   10.4110    2.9400 O.2    81  GLN81      -0.2718
    127  CB        54.1130   13.1780    4.7880 C.3    81  GLN81       0.0381
    128  CG        53.9890   14.6870    4.7100 C.3    81  GLN81       0.0905
    129  CD        53.4350   15.3070    5.9280 C.2    81  GLN81       0.2608
    130  OE1       52.2280   15.3330    6.1100 O.2    81  GLN81      -0.2717
    131  NE2       54.2640   15.9480    6.7210 N.am   81  GLN81      -0.0878
    132  N         55.6160   10.5420    4.4330 N.am   82  ASP82      -0.1960
    133  CA        55.6930    9.0840    4.6180 C.3    82  ASP82       0.1840
    134  C         54.4000    8.5420    5.1870 C.2    82  ASP82       0.2622
    135  O         53.8000    9.1720    6.0630 O.2    82  ASP82      -0.2715
    136  CB        56.8410    8.7150    5.5620 C.3    82  ASP82       0.1450
    137  CG        58.2250    8.8810    4.9840 C.2    82  ASP82       0.3671
    138  OD1       58.3460    9.0130    3.7390 O.co2  82  ASP82      -0.2456
    139  OD2       59.1730    8.9510    5.7640 O.co2  82  ASP82      -0.2456
    140  N         53.9240    7.3980    4.6560 N.am   83  LEU83      -0.1963
    141  CA        52.7220    6.7760    5.1660 C.3    83  LEU83       0.1728
    142  C         53.0730    5.9980    6.4340 C.2    83  LEU83       0.2616
    143  O         54.0020    5.1880    6.4040 O.2    83  LEU83      -0.2715
    144  CB        52.1150    5.7980    4.1380 C.3    83  LEU83       0.0311
    145  CG        50.7740    5.1630    4.5280 C.3    83  LEU83       0.0022
    146  CD1       49.7050    6.2030    4.7160 C.3    83  LEU83       0.0001
    147  CD2       50.3460    4.1590    3.4900 C.3    83  LEU83       0.0001
    148  N         52.2950    6.1990    7.5140 N.am   84  MET84      -0.1963
    149  CA        52.4370    5.4670    8.7720 C.3    84  MET84       0.1736
    150  C         51.1600    4.6440    8.9350 C.2    84  MET84       0.2616
    151  O         50.3260    4.6810    8.0450 O.2    84  MET84      -0.2715
    152  CB        52.6680    6.4370    9.9320 C.3    84  MET84       0.0427
    153  CG        53.9480    7.2580    9.7780 C.3    84  MET84       0.0599
    154  SD        55.4540    6.2660    9.8930 S.3    84  MET84      -0.1393
    155  CE        55.5960    6.1500   11.7160 C.3    84  MET84       0.0692
    156  N         51.0260    3.8380    9.9960 N.am   85  GLU85      -0.1963
    157  CA        49.8490    2.9800   10.1250 C.3    85  GLU85       0.1733
    158  C         48.7880    3.4980   11.0160 C.2    85  GLU85       0.2617
    159  O         47.6200    3.1970   10.7820 O.2    85  GLU85      -0.2715
    160  CB        50.2440    1.5730   10.5470 C.3    85  GLU85       0.0429
    161  CG        50.7050    0.7760    9.3390 C.3    85  GLU85       0.1163
    162  CD        51.6140   -0.3910    9.6380 C.2    85  GLU85       0.3649
    163  OE1       51.0780   -1.4980    9.8580 O.co2  85  GLU85      -0.2457
    164  OE2       52.8520   -0.2260    9.5510 O.co2  85  GLU85      -0.2457
    165  N         49.1530    4.2720   12.0510 N.am   86  THR86      -0.1937
    166  CA        48.1740    4.7890   12.9670 C.3    86  THR86       0.2028
    167  C         48.7980    5.9460   13.7580 C.2    86  THR86       0.2642
    168  O         49.9000    6.4040   13.4470 O.2    86  THR86      -0.2714
    169  CB        47.7010    3.6490   13.8880 C.3    86  THR86       0.1808
    170  OG1       46.5680    4.1090   14.5900 O.3    86  THR86      -0.2208
    171  CG2       48.7990    3.1740   14.8740 C.3    86  THR86       0.0379
    172  N         48.0900    6.4330   14.7380 N.am   87  ASP87      -0.1971
    173  CA        48.6500    7.4520   15.6150 C.3    87  ASP87       0.1709
    174  C         48.4120    7.0090   17.0440 C.2    87  ASP87       0.2293
    175  O         47.6190    6.0880   17.2910 O.2    87  ASP87      -0.2864
    176  CB        48.1550    8.8770   15.2770 C.3    87  ASP87       0.1436
    177  CG        46.6920    9.0680   15.4850 C.2    87  ASP87       0.3671
    178  OD1       46.2150    8.7850   16.6030 O.co2  87  ASP87      -0.2456
    179  OD2       46.0230    9.5040   14.5420 O.co2  87  ASP87      -0.2456
    180  N         44.6790    6.9790   18.2790 N.3    90  LYS90      -0.1245
    181  CA        43.9100    5.8190   17.8190 C.3    90  LYS90       0.1561
    182  C         44.3510    4.5290   18.5340 C.2    90  LYS90       0.2260
    183  O         43.5010    3.7240   18.9130 O.2    90  LYS90      -0.2867
    184  CB        44.0640    5.6310   16.3100 C.3    90  LYS90       0.0271
    185  CG        43.3890    6.7120   15.4910 C.3    90  LYS90       0.0035
    186  CD        43.5460    6.4310   13.9840 C.3    90  LYS90       0.0206
    187  CE        42.6820    7.3060   13.0980 C.3    90  LYS90       0.1093
    188  NZ        43.4440    8.4450   12.5220 N.3    90  LYS90      -0.1314
    189  N         47.4620   12.3770   19.0580 N.3   129  SER129     -0.1202
    190  CA        47.1200   12.3550   17.6270 C.3   129  SER129      0.2020
    191  C         48.2300   12.9410   16.7390 C.2   129  SER129      0.2618
    192  O         48.1590   12.7760   15.5320 O.2   129  SER129     -0.2717
    193  CB        45.8010   13.0760   17.3580 C.3   129  SER129      0.2103
    194  OG        45.8720   14.4240   17.7830 O.3   129  SER129     -0.2182
    195  N         49.2020   13.6660   17.3020 N.am  130  ASN130     -0.1974
    196  CA        50.3310   14.1930   16.5300 C.3   130  ASN130      0.1688
    197  C         51.5620   13.2920   16.5980 C.2   130  ASN130      0.2292
    198  O         52.6440   13.7030   16.1890 O.2   130  ASN130     -0.2864
    199  CB        50.6400   15.6250   16.9690 C.3   130  ASN130      0.1181
    200  CG        49.5880   16.5870   16.4790 C.2   130  ASN130      0.2629
    201  OD1       48.8520   16.2790   15.5310 O.2   130  ASN130     -0.2716
    202  ND2       49.4350   17.7310   17.1350 N.am  130  ASN130     -0.0877
    203  N         52.7760    9.7870   15.1430 N.3   132  LEU132     -0.1245
    204  CA        52.4750    8.7370   14.1600 C.3   132  LEU132      0.1561
    205  C         53.2970    7.5250   14.4380 C.2   132  LEU132      0.2260
    206  O         54.4660    7.6700   14.7720 O.2   132  LEU132     -0.2867
    207  CB        52.7420    9.2500   12.7490 C.3   132  LEU132      0.0270
    208  CG        52.0040   10.5280   12.3540 C.3   132  LEU132      0.0019
    209  CD1       52.4000   10.9250   10.9710 C.3   132  LEU132      0.0001
    210  CD2       50.5080   10.3420   12.4390 C.3   132  LEU132      0.0001
    211  N         54.4430   14.8910   14.1950 N.3   142  CYS142     -0.1221
    212  CA        53.8570   15.6310   13.1060 C.3   142  CYS142      0.1808
    213  C         53.1110   16.8880   13.5860 C.2   142  CYS142      0.2601
    214  O         53.0180   17.1500   14.7810 O.2   142  CYS142     -0.2717
    215  CB        52.9760   14.7210   12.2510 C.3   142  CYS142      0.0970
    216  SG        51.4410   14.2210   13.0410 S.3   142  CYS142     -0.0800
    217  N         52.6710   17.7120   12.6140 N.am  143  ASP143     -0.1973
    218  CA        51.8920   18.9520   12.8090 C.3   143  ASP143      0.1709
    219  C         52.6460   20.0610   13.5160 C.2   143  ASP143      0.2293
    220  O         52.5190   20.2340   14.7290 O.2   143  ASP143     -0.2864
    221  CB        50.5480   18.7060   13.5040 C.3   143  ASP143      0.1436
    222  CG        49.5390   19.8440   13.2670 C.2   143  ASP143      0.3671
    223  OD1       49.9370   20.8970   12.7300 O.co2 143  ASP143     -0.2456
    224  OD2       48.3580   19.6560   13.5650 O.co2 143  ASP143     -0.2456
    225  N         52.0090   23.2290   12.6690 N.3   145  GLY145     -0.1225
    226  CA        51.1800   24.3850   12.3490 C.3   145  GLY145      0.1811
    227  C         51.1830   25.4890   13.4160 C.2   145  GLY145      0.2280
    228  O         50.9440   26.6380   13.0670 O.2   145  GLY145     -0.2866
@<TRIPOS>BOND
     1    60    59    1
     2   115   116    1
     3    50    49    2
     4    59    56    1
     5   116   117    1
     6   116   119    1
     7   117   118    2
     8    56    55    1
     9    56    57    1
    10    41    40    2
    11    49    55   am
    12    49    48    1
    13    47    48    1
    14    36    35    2
    15    40    39    1
    16    67    61    1
    17    67    66    1
    18    35    34    1
    19    38    39    1
    20    57    61   am
    21    57    58    2
    22   120   119    1
    23   120   122    1
    24    33    34    1
    25    48    51    1
    26   119   121    1
    27    61    62    1
    28   123   124    1
    29    39    42    1
    30    66    65    1
    31    34    37    1
    32    51    52    1
    33    51    53    1
    34    63    62    1
    35    63    64    2
    36   126   125    2
    37    62    65    1
    38    52    54    1
    39   147   145    1
    40   124   125    1
    41   124   127    1
    42   125   132   am
    43    28    29    2
    44    28    27    1
    45   138   137   ar
    46    97    95    1
    47    42    43    1
    48    43    44    1
    49   144   145    1
    50   144   141    1
    51    27    26    1
    52    27    30    1
    53   132   133    1
    54   145   146    1
    55   133   134    1
    56   133   136    1
    57   140   141    1
    58   140   134   am
    59   128   127    1
    60   128   129    1
    61     1     2    1
    62     8     6    1
    63   137   136    1
    64   137   139   ar
    65     6     5    1
    66    32    30    1
    67    95    96    1
    68    95    92    1
    69   141   142    1
    70   134   135    2
    71    30    31    1
    72    44    45    1
    73    45    46    1
    74    17    16    2
    75    94    93    2
    76   129   130    2
    77   129   131   am
    78    93    92    1
    79     2     5    1
    80     2     3    1
    81     5     7    1
    82    92    91    1
    83   143   142    2
    84   142   148   am
    85    16    15    1
    86    75    77   ar
    87    75    73   ar
    88    72    73    1
    89    72    69    1
    90    71    70    2
    91    70    69    1
    92    22    20   ar
    93    22    24   ar
    94    20    19   ar
    95     3     4    2
    96    77    78   ar
    97   148   149    1
    98    91    82   am
    99   100   101    2
   100   100    99    1
   101    73    74   ar
   102   103   102    1
   103   103   104    1
   104    69    68    1
   105    25    24    1
   106    12    11    2
   107   151   150    2
   108    15    18    1
   109    15    14    1
   110    24    23   ar
   111   102    99    1
   112   106   104   ar
   113   114   112    1
   114    19    18    1
   115    19    21   ar
   116   112   111    1
   117    99    98    1
   118    78    79    1
   119    78    76   ar
   120   104   105   ar
   121   109   110    2
   122   109   108    1
   123   149   150    1
   124   149   152    1
   125    82    83    2
   126    82    81    1
   127    74    76   ar
   128   150   156   am
   129    11    14   am
   130    11    10    1
   131   161   162    1
   132   161   160    1
   133    23    21   ar
   134    80    81    1
   135   164   162   ar
   136   162   163   ar
   137   111   108    1
   138   111   113    1
   139   153   154    1
   140   153   152    1
   141   108   107    1
   142   154   155    1
   143    81    84    1
   144   156   157    1
   145    10     9    1
   146    10    13    1
   147   157   160    1
   148   157   158    1
   149    84    85    1
   150   159   158    2
   151   209   208    1
   152   158   165   am
   153    85    86    1
   154   165   166    1
   155    86    87    1
   156   215   216    1
   157   215   212    1
   158   226   225    1
   159   226   227    1
   160   208   210    1
   161   208   207    1
   162   188   187    1
   163   217   218    1
   164   217   213   am
   165   223   222   ar
   166   207   204    1
   167   218   221    1
   168   218   219    1
   169   166   167    1
   170   166   169    1
   171   228   227    2
   172   187   186    1
   173   212   213    1
   174   212   211    1
   175    89    88    1
   176    87    88    2
   177   222   221    1
   178   222   224   ar
   179   168   167    2
   180   219   220    2
   181   213   214    2
   182    88    90    1
   183   167   172   am
   184   169   170    1
   185   169   171    1
   186   186   185    1
   187   204   205    1
   188   204   203    1
   189   205   206    2
   190   179   177   ar
   191   172   173    1
   192   176   177    1
   193   176   173    1
   194   177   178   ar
   195   185   184    1
   196   201   200    2
   197   192   191    2
   198   173   174    1
   199   198   197    2
   200   184   181    1
   201   200   199    1
   202   200   202   am
   203   196   197    1
   204   196   199    1
   205   196   195    1
   206   191   195   am
   207   191   190    1
   208   174   175    2
   209   193   190    1
   210   193   194    1
   211   190   189    1
   212   181   180    1
   213   181   182    1
   214   182   183    2
