@<TRIPOS>MOLECULE
tmp/6cq0A00.pdb
 129 122 0 0 0
SMALL
GASTEIGER

@<TRIPOS>ATOM
      1  N        114.0000  -12.4060    3.9390 N.3    16  LEU16      -0.1231
      2  CA       112.6120  -12.7580    4.2050 C.3    16  LEU16       0.1693
      3  C        112.4840  -14.2300    4.5750 C.2    16  LEU16       0.2592
      4  O        112.4280  -14.5780    5.7590 O.2    16  LEU16      -0.2718
      5  CB       111.7380  -12.4360    2.9920 C.3    16  LEU16       0.0284
      6  CG       111.7140  -10.9740    2.5450 C.3    16  LEU16       0.0019
      7  CD1      110.9230  -10.8310    1.2560 C.3    16  LEU16       0.0001
      8  CD2      111.1340  -10.0870    3.6360 C.3    16  LEU16       0.0001
      9  N        112.4350  -15.0970    3.5710 N.am   17  GLY17      -0.1957
     10  CA       112.3230  -16.5340    3.7750 C.3    17  GLY17       0.1869
     11  C        113.6570  -17.2140    3.5120 C.2    17  GLY17       0.2309
     12  O        114.4090  -16.8000    2.6260 O.2    17  GLY17      -0.2863
     13  N        115.1150  -15.8720   -0.0780 N.3    24  VAL24      -0.1245
     14  CA       114.4070  -14.7570   -0.6960 C.3    24  VAL24       0.1561
     15  C        114.7240  -13.4930    0.0900 C.2    24  VAL24       0.2260
     16  O        114.4770  -13.4270    1.3010 O.2    24  VAL24      -0.2867
     17  CB       112.8920  -15.0090   -0.7520 C.3    24  VAL24       0.0252
     18  CG1      112.1810  -13.8240   -1.3860 C.3    24  VAL24       0.0019
     19  CG2      112.5980  -16.2880   -1.5210 C.3    24  VAL24       0.0019
     20  N        114.5820   -9.1020    0.4610 N.3    26  ARG26      -0.1245
     21  CA       113.7920   -7.9060    0.1890 C.3    26  ARG26       0.1563
     22  C        114.6730   -6.9170   -0.5650 C.2    26  ARG26       0.2260
     23  O        115.6070   -6.3450    0.0060 O.2    26  ARG26      -0.2867
     24  CB       113.2670   -7.3130    1.4950 C.3    26  ARG26       0.0307
     25  CG       112.7870   -5.8720    1.4200 C.3    26  ARG26       0.0489
     26  CD       112.6630   -5.2990    2.8260 C.3    26  ARG26       0.2205
     27  NE       112.4370   -3.8560    2.8410 N.pl3  26  ARG26      -0.0865
     28  CZ       111.2770   -3.2830    3.1470 C.cat  26  ARG26       0.5346
     29  NH1      110.2280   -4.0300    3.4650 N.pl3  26  ARG26       0.1354
     30  NH2      111.1660   -1.9620    3.1380 N.pl3  26  ARG26       0.1354
     31  N        110.5190   -8.9750   -4.5200 N.3    37  ALA37      -0.1245
     32  CA       110.9700  -10.1690   -3.8170 C.3    37  ALA37       0.1562
     33  C        112.0400  -10.8470   -4.6670 C.2    37  ALA37       0.2260
     34  O        111.7330  -11.4520   -5.7000 O.2    37  ALA37      -0.2867
     35  CB       109.8040  -11.1130   -3.5410 C.3    37  ALA37       0.0290
     36  N        101.3320  -15.2880   -7.0990 N.3    59  VAL59      -0.1245
     37  CA       102.4060  -14.3020   -7.0630 C.3    59  VAL59       0.1561
     38  C        102.9980  -14.1690   -8.4600 C.2    59  VAL59       0.2260
     39  O        103.4200  -15.1580   -9.0700 O.2    59  VAL59      -0.2867
     40  CB       103.4780  -14.6900   -6.0370 C.3    59  VAL59       0.0252
     41  CG1      104.7100  -13.8140   -6.2000 C.3    59  VAL59       0.0019
     42  CG2      102.9250  -14.5690   -4.6270 C.3    59  VAL59       0.0019
     43  N        110.2910  -11.5790   -8.0630 N.3    77  MET77      -0.1230
     44  CA       108.9110  -11.9340   -7.7760 C.3    77  MET77       0.1702
     45  C        108.1920  -10.7690   -7.1090 C.2    77  MET77       0.2592
     46  O        108.8040   -9.7900   -6.6740 O.2    77  MET77      -0.2718
     47  CB       108.8460  -13.1820   -6.8900 C.3    77  MET77       0.0401
     48  CG       109.4960  -14.4040   -7.5140 C.3    77  MET77       0.0596
     49  SD       109.3630  -15.8730   -6.4810 S.3    77  MET77      -0.1393
     50  CE       110.2310  -15.3340   -5.0110 C.3    77  MET77       0.0692
     51  N        106.8700  -10.8900   -7.0330 N.am   78  GLU78      -0.1966
     52  CA       106.0540   -9.8670   -6.3930 C.3    78  GLU78       0.1733
     53  C        106.2930   -9.8570   -4.8860 C.2    78  GLU78       0.2616
     54  O        106.2670  -10.9050   -4.2350 O.2    78  GLU78      -0.2715
     55  CB       104.5780  -10.1130   -6.7010 C.3    78  GLU78       0.0429
     56  CG       103.6290   -9.1580   -6.0100 C.3    78  GLU78       0.1163
     57  CD       102.1870   -9.3950   -6.4010 C.2    78  GLU78       0.3649
     58  OE1      101.4090   -8.4180   -6.4080 O.co2  78  GLU78      -0.2457
     59  OE2      101.8310  -10.5530   -6.7070 O.co2  78  GLU78      -0.2457
     60  N        106.5250   -8.6650   -4.3350 N.am   79  PHE79      -0.1960
     61  CA       106.7690   -8.4850   -2.9070 C.3    79  PHE79       0.1771
     62  C        105.4510   -8.3980   -2.1520 C.2    79  PHE79       0.2620
     63  O        104.5660   -7.6270   -2.5280 O.2    79  PHE79      -0.2715
     64  CB       107.6010   -7.2240   -2.6530 C.3    79  PHE79       0.0574
     65  CG       108.0060   -7.0440   -1.2150 C.ar   79  PHE79      -0.0200
     66  CD1      108.5950   -8.0880   -0.5220 C.ar   79  PHE79      -0.0042
     67  CD2      107.8220   -5.8350   -0.5630 C.ar   79  PHE79      -0.0042
     68  CE1      108.9820   -7.9350    0.7930 C.ar   79  PHE79      -0.0003
     69  CE2      108.2110   -5.6750    0.7590 C.ar   79  PHE79      -0.0003
     70  CZ       108.7920   -6.7290    1.4360 C.ar   79  PHE79      -0.0000
     71  N        105.3320   -9.1810   -1.0790 N.am   80  CYS80      -0.1954
     72  CA       104.1120   -9.2650   -0.2740 C.3    80  CYS80       0.1828
     73  C        104.4220   -8.7810    1.1360 C.2    80  CYS80       0.2467
     74  O        104.8030   -9.5840    2.0020 O.2    80  CYS80      -0.2730
     75  CB       103.5730  -10.6960   -0.2480 C.3    80  CYS80       0.0996
     76  SG       103.3950  -11.4840   -1.8660 S.3    80  CYS80      -0.0797
     77  N        104.2460   -7.4870    1.4260 N.am   81  PRO81      -0.2715
     78  CA       104.7370   -6.9450    2.7080 C.3    81  PRO81       0.1536
     79  C        104.0800   -7.5360    3.9480 C.2    81  PRO81       0.2599
     80  O        104.6480   -7.4100    5.0400 O.2    81  PRO81      -0.2715
     81  CB       104.4360   -5.4440    2.5940 C.3    81  PRO81       0.0310
     82  CG       104.2600   -5.1870    1.1370 C.3    81  PRO81       0.0237
     83  CD       103.6490   -6.4380    0.5830 C.3    81  PRO81       0.0939
     84  N        102.9080   -8.1630    3.8260 N.am   82  CYS82      -0.1954
     85  CA       102.2120   -8.7010    4.9900 C.3    82  CYS82       0.1843
     86  C        102.7170  -10.0740    5.4150 C.2    82  CYS82       0.2626
     87  O        102.3350  -10.5490    6.4900 O.2    82  CYS82      -0.2714
     88  CB       100.7090   -8.7790    4.7140 C.3    82  CYS82       0.0997
     89  SG        99.9270   -7.1760    4.4490 S.3    82  CYS82      -0.0797
     90  N        103.5540  -10.7180    4.6130 N.am   83  GLY83      -0.1940
     91  CA       104.0560  -12.0330    4.9530 C.3    83  GLY83       0.2014
     92  C        103.1840  -13.1440    4.4010 C.2    83  GLY83       0.2639
     93  O        102.3760  -12.9590    3.4850 O.2    83  GLY83      -0.2714
     94  N        103.3630  -14.3260    4.9760 N.am   84  SER84      -0.1949
     95  CA       102.6310  -15.5120    4.5610 C.3    84  SER84       0.1924
     96  C        101.4650  -15.7770    5.5070 C.2    84  SER84       0.2314
     97  O        101.2950  -15.1150    6.5330 O.2    84  SER84      -0.2863
     98  CB       103.5630  -16.7270    4.5060 C.3    84  SER84       0.2116
     99  OG       104.0720  -17.0360    5.7910 O.3    84  SER84      -0.2180
    100  N        102.5370  -16.4650    8.9830 N.3    87  THR87      -0.1218
    101  CA       102.7590  -15.2580    9.7740 C.3    87  THR87       0.1862
    102  C        101.4490  -14.7280   10.3430 C.2    87  THR87       0.2287
    103  O        101.4060  -14.2460   11.4810 O.2    87  THR87      -0.2866
    104  CB       103.4460  -14.1910    8.9180 C.3    87  THR87       0.1770
    105  OG1      104.7140  -14.6820    8.4640 O.3    87  THR87      -0.2211
    106  CG2      103.6630  -12.9120    9.7160 C.3    87  THR87       0.0375
    107  N        101.0070  -16.3890    0.4260 N.3   133  MET133     -0.1245
    108  CA       101.3580  -15.0380    0.8310 C.3   133  MET133      0.1570
    109  C        100.1020  -14.1870    0.9990 C.2   133  MET133      0.2261
    110  O         99.0060  -14.5580    0.5780 O.2   133  MET133     -0.2867
    111  CB       102.3040  -14.4040   -0.1880 C.3   133  MET133      0.0387
    112  CG       103.4840  -15.2820   -0.5670 C.3   133  MET133      0.0595
    113  SD       104.3190  -15.9950    0.8630 S.3   133  MET133     -0.1393
    114  CE       104.8030  -14.5170    1.7470 C.3   133  MET133      0.0692
    115  N        102.8740  -19.1110   -4.4410 N.3   147  THR147     -0.1203
    116  CA       104.1750  -18.6720   -4.9350 C.3   147  THR147      0.1994
    117  C        105.1720  -19.8080   -5.1480 C.2   147  THR147      0.2617
    118  O        105.8050  -19.8870   -6.2070 O.2   147  THR147     -0.2717
    119  CB       104.7750  -17.6360   -3.9770 C.3   147  THR147      0.1784
    120  OG1      106.1610  -17.4420   -4.2860 O.3   147  THR147     -0.2211
    121  CG2      104.6300  -18.0850   -2.5250 C.3   147  THR147      0.0376
    122  N        105.3310  -20.6840   -4.1600 N.am  148  ASP148     -0.1973
    123  CA       106.3970  -21.6830   -4.1710 C.3   148  ASP148      0.1709
    124  C        105.8350  -23.0080   -4.6780 C.2   148  ASP148      0.2293
    125  O        105.2060  -23.7600   -3.9280 O.2   148  ASP148     -0.2864
    126  CB       107.0050  -21.8270   -2.7810 C.3   148  ASP148      0.1436
    127  CG       108.2200  -22.7270   -2.7680 C.2   148  ASP148      0.3671
    128  OD1      109.2780  -22.3130   -3.2880 O.co2 148  ASP148     -0.2456
    129  OD2      108.1130  -23.8490   -2.2340 O.co2 148  ASP148     -0.2456
@<TRIPOS>BOND
     1    39    38    2
     2    38    37    1
     3    43    44    1
     4    44    45    1
     5    44    47    1
     6    48    47    1
     7    48    49    1
     8    45    51   am
     9    45    46    2
    10    36    37    1
    11    37    40    1
    12    51    52    1
    13    59    57   ar
    14    55    52    1
    15    55    56    1
    16    49    50    1
    17    58    57   ar
    18    57    56    1
    19    52    53    1
    20   118   117    2
    21    41    40    1
    22    40    42    1
    23    34    33    2
    24   117   116    1
    25   117   122   am
    26   116   115    1
    27   116   119    1
    28    53    60   am
    29    53    54    2
    30   124   123    1
    31   124   125    2
    32    33    32    1
    33    31    32    1
    34    60    61    1
    35   120   119    1
    36   123   122    1
    37   123   126    1
    38   119   121    1
    39    32    35    1
    40   128   127   ar
    41    61    64    1
    42    61    62    1
    43   126   127    1
    44   127   129   ar
    45    64    65    1
    46    63    62    2
    47    62    71   am
    48    76    75    1
    49    19    17    1
    50    18    17    1
    51    65    67   ar
    52    65    66   ar
    53    71    72    1
    54    17    14    1
    55    14    13    1
    56    14    15    1
    57   112   111    1
    58   112   113    1
    59    22    23    2
    60    22    21    1
    61    67    69   ar
    62    66    68   ar
    63    72    75    1
    64    72    73    1
    65   111   108    1
    66    15    16    2
    67    21    20    1
    68    21    24    1
    69   107   108    1
    70   110   109    2
    71    83    82    1
    72    83    77    1
    73    69    70   ar
    74    68    70   ar
    75   108   109    1
    76   113   114    1
    77    73    77   am
    78    73    74    2
    79    82    81    1
    80     7     6    1
    81    25    24    1
    82    25    26    1
    83    77    78    1
    84     6     5    1
    85     6     8    1
    86    81    78    1
    87    12    11    2
    88    78    79    1
    89    26    27    1
    90    27    28    2
    91     5     2    1
    92    30    28    1
    93    28    29    1
    94    93    92    2
    95    11    10    1
    96     9    10    1
    97     9     3   am
    98    84    79   am
    99    84    85    1
   100     1     2    1
   101    79    80    2
   102     2     3    1
   103    92    91    1
   104    92    94   am
   105    89    88    1
   106    98    95    1
   107    98    99    1
   108    95    94    1
   109    95    96    1
   110     3     4    2
   111    90    91    1
   112    90    86   am
   113    88    85    1
   114    85    86    1
   115    86    87    2
   116    96    97    2
   117   105   104    1
   118   104   106    1
   119   104   101    1
   120   100   101    1
   121   101   102    1
   122   102   103    2
