@<TRIPOS>MOLECULE
tmp/6cq4A00.pdb
 136 128 0 0 0
SMALL
GASTEIGER

@<TRIPOS>ATOM
      1  N        113.7410  -12.2640    3.6660 N.3    16  LEU16      -0.1231
      2  CA       112.3520  -12.6140    3.9340 C.3    16  LEU16       0.1693
      3  C        112.2260  -14.0880    4.2960 C.2    16  LEU16       0.2592
      4  O        112.1090  -14.4360    5.4760 O.2    16  LEU16      -0.2718
      5  CB       111.4730  -12.2860    2.7250 C.3    16  LEU16       0.0284
      6  CG       111.4030  -10.8180    2.2990 C.3    16  LEU16       0.0019
      7  CD1      110.5990  -10.6790    1.0170 C.3    16  LEU16       0.0001
      8  CD2      110.8100   -9.9570    3.4040 C.3    16  LEU16       0.0001
      9  N        112.2510  -14.9570    3.2930 N.am   17  GLY17      -0.1957
     10  CA       112.1240  -16.3930    3.4910 C.3    17  GLY17       0.1869
     11  C        113.4460  -17.0910    3.2250 C.2    17  GLY17       0.2309
     12  O        114.2080  -16.6820    2.3440 O.2    17  GLY17      -0.2863
     13  N        114.8990  -15.7130   -0.3460 N.3    24  VAL24      -0.1245
     14  CA       114.1910  -14.6030   -0.9740 C.3    24  VAL24       0.1561
     15  C        114.4560  -13.3450   -0.1620 C.2    24  VAL24       0.2260
     16  O        114.1190  -13.2820    1.0280 O.2    24  VAL24      -0.2867
     17  CB       112.6850  -14.8820   -1.0880 C.3    24  VAL24       0.0252
     18  CG1      111.9670  -13.6750   -1.6690 C.3    24  VAL24       0.0019
     19  CG2      112.4420  -16.1130   -1.9450 C.3    24  VAL24       0.0019
     20  N        110.2050   -8.7950   -4.6930 N.3    37  ALA37      -0.1245
     21  CA       110.6730   -9.9910   -4.0030 C.3    37  ALA37       0.1562
     22  C        111.7300  -10.6530   -4.8780 C.2    37  ALA37       0.2260
     23  O        111.4140  -11.2070   -5.9360 O.2    37  ALA37      -0.2867
     24  CB       109.5180  -10.9450   -3.7120 C.3    37  ALA37       0.0290
     25  N        114.5110  -13.4640   -5.5950 N.3    39  LYS39      -0.1245
     26  CA       114.7940  -14.8560   -5.2570 C.3    39  LYS39       0.1561
     27  C        116.1380  -15.2370   -5.8670 C.2    39  LYS39       0.2260
     28  O        116.2680  -15.3220   -7.0920 O.2    39  LYS39      -0.2867
     29  CB       113.6780  -15.7700   -5.7600 C.3    39  LYS39       0.0271
     30  CG       113.7600  -17.1980   -5.2520 C.3    39  LYS39       0.0035
     31  CD       112.5100  -17.9760   -5.6240 C.3    39  LYS39       0.0206
     32  CE       112.4910  -19.3410   -4.9630 C.3    39  LYS39       0.1093
     33  NZ       111.2260  -20.0700   -5.2500 N.3    39  LYS39      -0.1314
     34  N        101.0940  -15.1160   -7.3580 N.3    61  VAL61      -0.1245
     35  CA       102.1610  -14.1230   -7.3150 C.3    61  VAL61       0.1561
     36  C        102.7680  -13.9950   -8.7060 C.2    61  VAL61       0.2260
     37  O        103.2480  -14.9760   -9.2840 O.2    61  VAL61      -0.2867
     38  CB       103.2230  -14.4990   -6.2740 C.3    61  VAL61       0.0252
     39  CG1      104.4090  -13.5540   -6.3700 C.3    61  VAL61       0.0019
     40  CG2      102.6280  -14.4630   -4.8790 C.3    61  VAL61       0.0019
     41  N        110.0810  -11.3750   -8.2640 N.3    79  MET79      -0.1230
     42  CA       108.7020  -11.7270   -7.9670 C.3    79  MET79       0.1702
     43  C        107.9870  -10.5770   -7.2710 C.2    79  MET79       0.2592
     44  O        108.6080   -9.6360   -6.7690 O.2    79  MET79      -0.2718
     45  CB       108.6320  -12.9850   -7.0960 C.3    79  MET79       0.0401
     46  CG       109.1660  -14.2290   -7.7750 C.3    79  MET79       0.0596
     47  SD       108.9760  -15.6970   -6.7530 S.3    79  MET79      -0.1393
     48  CE       109.9420  -15.2310   -5.3210 C.3    79  MET79       0.0692
     49  N        106.6600  -10.6750   -7.2480 N.am   80  GLU80      -0.1966
     50  CA       105.8310   -9.6480   -6.6350 C.3    80  GLU80       0.1733
     51  C        106.0110   -9.6520   -5.1220 C.2    80  GLU80       0.2616
     52  O        105.9720  -10.7070   -4.4830 O.2    80  GLU80      -0.2715
     53  CB       104.3650   -9.8770   -6.9990 C.3    80  GLU80       0.0429
     54  CG       103.3820   -8.9950   -6.2510 C.3    80  GLU80       0.1163
     55  CD       101.9450   -9.2530   -6.6590 C.2    80  GLU80       0.3649
     56  OE1      101.1180   -8.3220   -6.5570 O.co2  80  GLU80      -0.2457
     57  OE2      101.6430  -10.3870   -7.0880 O.co2  80  GLU80      -0.2457
     58  N        106.2090   -8.4670   -4.5520 N.am   81  PHE81      -0.1960
     59  CA       106.4060   -8.3400   -3.1160 C.3    81  PHE81       0.1771
     60  C        105.0630   -8.2850   -2.4000 C.2    81  PHE81       0.2620
     61  O        104.1270   -7.6160   -2.8500 O.2    81  PHE81      -0.2715
     62  CB       107.2300   -7.0900   -2.8030 C.3    81  PHE81       0.0574
     63  CG       107.5770   -6.9350   -1.3490 C.ar   81  PHE81      -0.0200
     64  CD1      108.2530   -7.9360   -0.6720 C.ar   81  PHE81      -0.0042
     65  CD2      107.2470   -5.7770   -0.6640 C.ar   81  PHE81      -0.0042
     66  CE1      108.5780   -7.7910    0.6640 C.ar   81  PHE81      -0.0003
     67  CE2      107.5710   -5.6260    0.6710 C.ar   81  PHE81      -0.0003
     68  CZ       108.2370   -6.6350    1.3360 C.ar   81  PHE81      -0.0000
     69  N        104.9710   -9.0000   -1.2790 N.am   82  CYS82      -0.1954
     70  CA       103.7400   -9.1010   -0.4960 C.3    82  CYS82       0.1828
     71  C        104.0450   -8.6540    0.9260 C.2    82  CYS82       0.2467
     72  O        104.3610   -9.4800    1.7920 O.2    82  CYS82      -0.2730
     73  CB       103.1860  -10.5240   -0.5280 C.3    82  CYS82       0.0996
     74  SG       103.0750  -11.2420   -2.1880 S.3    82  CYS82      -0.0797
     75  N        103.9300   -7.3530    1.2120 N.am   83  PRO83      -0.2715
     76  CA       104.4470   -6.8150    2.4850 C.3    83  PRO83       0.1536
     77  C        103.8030   -7.3930    3.7360 C.2    83  PRO83       0.2599
     78  O        104.3580   -7.2110    4.8270 O.2    83  PRO83      -0.2715
     79  CB       104.1640   -5.3110    2.3720 C.3    83  PRO83       0.0310
     80  CG       104.0110   -5.0560    0.9030 C.3    83  PRO83       0.0237
     81  CD       103.3900   -6.2950    0.3420 C.3    83  PRO83       0.0939
     82  N        102.6630   -8.0740    3.6270 N.am   84  CYS84      -0.1954
     83  CA       101.9930   -8.6100    4.8060 C.3    84  CYS84       0.1843
     84  C        102.5260   -9.9690    5.2330 C.2    84  CYS84       0.2626
     85  O        102.2330  -10.4070    6.3500 O.2    84  CYS84      -0.2714
     86  CB       100.4880   -8.7120    4.5540 C.3    84  CYS84       0.0997
     87  SG        99.6710   -7.1250    4.3060 S.3    84  CYS84      -0.0797
     88  N        103.2930  -10.6390    4.3880 N.am   85  GLY85      -0.1940
     89  CA       103.8110  -11.9490    4.7030 C.3    85  GLY85       0.2014
     90  C        102.9590  -13.0600    4.1260 C.2    85  GLY85       0.2639
     91  O        102.1720  -12.8740    3.1950 O.2    85  GLY85      -0.2714
     92  N        103.1340  -14.2470    4.6950 N.am   86  SER86      -0.1949
     93  CA       102.3970  -15.4300    4.2830 C.3    86  SER86       0.1924
     94  C        101.2380  -15.6940    5.2380 C.2    86  SER86       0.2314
     95  O        101.1120  -15.0720    6.2950 O.2    86  SER86      -0.2863
     96  CB       103.3240  -16.6470    4.2200 C.3    86  SER86       0.2116
     97  OG       103.8550  -16.9490    5.4980 O.3    86  SER86      -0.2180
     98  N        102.2970  -16.3770    8.6780 N.3    89  THR89      -0.1218
     99  CA       102.5190  -15.1730    9.4720 C.3    89  THR89       0.1862
    100  C        101.2110  -14.6560   10.0560 C.2    89  THR89       0.2287
    101  O        101.1730  -14.1860   11.2000 O.2    89  THR89      -0.2866
    102  CB       103.1910  -14.0970    8.6170 C.3    89  THR89       0.1770
    103  OG1      104.4740  -14.5640    8.1800 O.3    89  THR89      -0.2211
    104  CG2      103.3690  -12.8080    9.4070 C.3    89  THR89       0.0375
    105  N        100.7560  -16.2670    0.1330 N.3   135  MET135     -0.1245
    106  CA       101.1120  -14.9140    0.5320 C.3   135  MET135      0.1570
    107  C         99.8670  -14.0440    0.6580 C.2   135  MET135      0.2261
    108  O         98.7950  -14.3760    0.1520 O.2   135  MET135     -0.2867
    109  CB       102.0870  -14.2960   -0.4690 C.3   135  MET135      0.0387
    110  CG       103.2440  -15.2040   -0.8520 C.3   135  MET135      0.0595
    111  SD       104.0720  -15.9230    0.5760 S.3   135  MET135     -0.1393
    112  CE       104.4850  -14.4460    1.4910 C.3   135  MET135      0.0692
    113  N        102.5860  -19.0210   -4.7030 N.3   149  THR149     -0.1203
    114  CA       103.8750  -18.5910   -5.2350 C.3   149  THR149      0.1994
    115  C        104.8700  -19.7280   -5.4450 C.2   149  THR149      0.2617
    116  O        105.4800  -19.8270   -6.5150 O.2   149  THR149     -0.2717
    117  CB       104.4970  -17.5330   -4.3180 C.3   149  THR149      0.1784
    118  OG1      105.8660  -17.3220   -4.6900 O.3   149  THR149     -0.2211
    119  CG2      104.4180  -17.9610   -2.8540 C.3   149  THR149      0.0376
    120  N        105.0520  -20.5840   -4.4420 N.am  150  ASP150     -0.1973
    121  CA       106.1300  -21.5720   -4.4630 C.3   150  ASP150      0.1709
    122  C        105.5960  -22.8780   -5.0380 C.2   150  ASP150      0.2293
    123  O        105.1540  -23.7700   -4.3140 O.2   150  ASP150     -0.2864
    124  CB       106.7090  -21.7580   -3.0650 C.3   150  ASP150      0.1436
    125  CG       107.9770  -22.5880   -3.0650 C.2   150  ASP150      0.3671
    126  OD1      108.9950  -22.1250   -3.6220 O.co2 150  ASP150     -0.2456
    127  OD2      107.9540  -23.7030   -2.5050 O.co2 150  ASP150     -0.2456
    128  N        109.3100  -12.5470   20.5750 N.3   514  LYS514     -0.1245
    129  CA       109.4960  -13.1240   19.2480 C.3   514  LYS514      0.1561
    130  C        110.7800  -12.6110   18.6100 C.2   514  LYS514      0.2260
    131  O        111.4560  -13.3460   17.8790 O.2   514  LYS514     -0.2867
    132  CB       108.2850  -12.8100   18.3690 C.3   514  LYS514      0.0271
    133  CG       108.2750  -13.5210   17.0250 C.3   514  LYS514      0.0035
    134  CD       107.0180  -13.1800   16.2400 C.3   514  LYS514      0.0206
    135  CE       106.9840  -13.8990   14.9020 C.3   514  LYS514      0.1093
    136  NZ       106.9650  -15.3780   15.0680 N.3   514  LYS514     -0.1314
@<TRIPOS>BOND
     1    37    36    2
     2    36    35    1
     3    41    42    1
     4    42    43    1
     5    42    45    1
     6    46    45    1
     7    46    47    1
     8    34    35    1
     9    35    38    1
    10    43    49   am
    11    43    44    2
    12    49    50    1
    13    28    27    2
    14    57    55   ar
    15    53    50    1
    16    53    54    1
    17    47    48    1
    18    55    56   ar
    19    55    54    1
    20    50    51    1
    21   116   115    2
    22    39    38    1
    23    38    40    1
    24    23    22    2
    25    27    26    1
    26    29    26    1
    27    29    30    1
    28    31    30    1
    29    31    32    1
    30    25    26    1
    31   115   114    1
    32   115   120   am
    33    33    32    1
    34   114   113    1
    35   114   117    1
    36    51    58   am
    37    51    52    2
    38   122   121    1
    39   122   123    2
    40    22    21    1
    41    20    21    1
    42   118   117    1
    43    58    59    1
    44   121   120    1
    45   121   124    1
    46   117   119    1
    47    21    24    1
    48   126   125   ar
    49    59    62    1
    50    59    60    1
    51   124   125    1
    52   125   127   ar
    53    61    60    2
    54    62    63    1
    55    60    69   am
    56    74    73    1
    57    19    17    1
    58    18    17    1
    59    63    64   ar
    60    63    65   ar
    61    69    70    1
    62    17    14    1
    63    14    13    1
    64    14    15    1
    65   110   109    1
    66   110   111    1
    67    64    66   ar
    68    65    67   ar
    69    73    70    1
    70    70    71    1
    71   109   106    1
    72    15    16    2
    73   105   106    1
    74   108   107    2
    75    81    80    1
    76    81    75    1
    77   106   107    1
    78   111   112    1
    79    66    68   ar
    80    67    68   ar
    81    80    79    1
    82    71    75   am
    83    71    72    2
    84     7     6    1
    85    75    76    1
    86     6     5    1
    87     6     8    1
    88    12    11    2
    89    79    76    1
    90    76    77    1
    91     5     2    1
    92    91    90    2
    93    11    10    1
    94     9    10    1
    95     9     3   am
    96    82    77   am
    97    82    83    1
    98     1     2    1
    99    77    78    2
   100     2     3    1
   101    90    92   am
   102    90    89    1
   103    96    93    1
   104    96    97    1
   105    93    92    1
   106    93    94    1
   107     3     4    2
   108    87    86    1
   109    88    89    1
   110    88    84   am
   111    86    83    1
   112    83    84    1
   113    84    85    2
   114    94    95    2
   115   103   102    1
   116   102   104    1
   117   102    99    1
   118    98    99    1
   119    99   100    1
   120   100   101    2
   121   135   136    1
   122   135   134    1
   123   134   133    1
   124   133   132    1
   125   131   130    2
   126   132   129    1
   127   130   129    1
   128   129   128    1
