@<TRIPOS>MOLECULE
tmp/6cq5A00.pdb
 127 120 0 0 0
SMALL
GASTEIGER

@<TRIPOS>ATOM
      1  N          0.2750  -24.3010  -10.1790 N.3    16  LEU16      -0.1231
      2  CA        -0.1170  -25.6770   -9.9030 C.3    16  LEU16       0.1693
      3  C          1.0920  -26.5220   -9.5240 C.2    16  LEU16       0.2592
      4  O          1.3600  -26.7350   -8.3370 O.2    16  LEU16      -0.2718
      5  CB        -0.8340  -26.2780  -11.1140 C.3    16  LEU16       0.0284
      6  CG        -2.1120  -25.5600  -11.5580 C.3    16  LEU16       0.0019
      7  CD1       -2.6650  -26.1750  -12.8340 C.3    16  LEU16       0.0001
      8  CD2       -3.1540  -25.5860  -10.4490 C.3    16  LEU16       0.0001
      9  N          1.8240  -27.0060  -10.5200 N.am   17  GLY17      -0.1957
     10  CA         3.0070  -27.8250  -10.3020 C.3    17  GLY17       0.1869
     11  C          4.2680  -27.0390  -10.6340 C.2    17  GLY17       0.2309
     12  O          4.3070  -26.3080  -11.6260 O.2    17  GLY17      -0.2863
     13  N          3.8730  -24.9460  -14.2760 N.3    24  VAL24      -0.1245
     14  CA         2.5610  -25.0180  -14.9090 C.3    24  VAL24       0.1561
     15  C          1.5940  -24.1420  -14.1250 C.2    24  VAL24       0.2260
     16  O          1.3820  -24.3600  -12.9250 O.2    24  VAL24      -0.2867
     17  CB         2.0470  -26.4640  -14.9920 C.3    24  VAL24       0.0252
     18  CG1        0.6620  -26.4960  -15.6150 C.3    24  VAL24       0.0019
     19  CG2        3.0180  -27.3220  -15.7910 C.3    24  VAL24       0.0019
     20  N         -4.4100  -25.6010  -18.7450 N.3    37  ALA37      -0.1245
     21  CA        -3.1530  -25.7810  -18.0270 C.3    37  ALA37       0.1562
     22  C         -2.0300  -25.2130  -18.8860 C.2    37  ALA37       0.2260
     23  O         -1.6780  -25.7880  -19.9210 O.2    37  ALA37      -0.2867
     24  CB        -2.9170  -27.2550  -17.7080 C.3    37  ALA37       0.0290
     25  N         -3.4790  -36.6840  -21.3410 N.3    61  VAL61      -0.1245
     26  CA        -3.8190  -35.2660  -21.3320 C.3    61  VAL61       0.1561
     27  C         -3.6130  -34.6980  -22.7300 C.2    61  VAL61       0.2260
     28  O         -2.5250  -34.8070  -23.3080 O.2    61  VAL61      -0.2867
     29  CB        -2.9850  -34.5040  -20.2950 C.3    61  VAL61       0.0252
     30  CG1       -3.2400  -33.0100  -20.4100 C.3    61  VAL61       0.0019
     31  CG2       -3.3110  -34.9890  -18.8940 C.3    61  VAL61       0.0019
     32  N         -2.3650  -26.9910  -22.3280 N.3    79  MET79      -0.1230
     33  CA        -2.7560  -28.3650  -22.0560 C.3    79  MET79       0.1702
     34  C         -4.1150  -28.4070  -21.3670 C.2    79  MET79       0.2592
     35  O         -4.6570  -27.3870  -20.9300 O.2    79  MET79      -0.2718
     36  CB        -1.7010  -29.0780  -21.2000 C.3    79  MET79       0.0401
     37  CG        -0.3430  -29.2010  -21.8760 C.3    79  MET79       0.0596
     38  SD         0.8560  -30.0970  -20.8720 S.3    79  MET79      -0.1393
     39  CE         0.9350  -29.0450  -19.4260 C.3    79  MET79       0.0692
     40  N         -4.6590  -29.6180  -21.2760 N.am   80  GLU80      -0.1966
     41  CA        -5.9670  -29.8220  -20.6690 C.3    80  GLU80       0.1733
     42  C         -5.8830  -29.6450  -19.1590 C.2    80  GLU80       0.2616
     43  O         -4.9850  -30.1880  -18.5070 O.2    80  GLU80      -0.2715
     44  CB        -6.4880  -31.2140  -21.0200 C.3    80  GLU80       0.0429
     45  CG        -7.7870  -31.5970  -20.3380 C.3    80  GLU80       0.1163
     46  CD        -8.2830  -32.9650  -20.7680 C.2    80  GLU80       0.3649
     47  OE1       -9.5120  -33.1850  -20.7550 O.co2  80  GLU80      -0.2457
     48  OE2       -7.4430  -33.8210  -21.1220 O.co2  80  GLU80      -0.2457
     49  N         -6.8220  -28.8820  -18.6030 N.am   81  PHE81      -0.1960
     50  CA        -6.8400  -28.6210  -17.1710 C.3    81  PHE81       0.1771
     51  C         -7.5700  -29.7400  -16.4370 C.2    81  PHE81       0.2620
     52  O         -8.6590  -30.1580  -16.8450 O.2    81  PHE81      -0.2715
     53  CB        -7.5000  -27.2720  -16.8840 C.3    81  PHE81       0.0574
     54  CG        -7.4400  -26.8630  -15.4400 C.ar   81  PHE81      -0.0200
     55  CD1       -6.2210  -26.6650  -14.8140 C.ar   81  PHE81      -0.0042
     56  CD2       -8.6020  -26.6630  -14.7120 C.ar   81  PHE81      -0.0042
     57  CE1       -6.1600  -26.2860  -13.4850 C.ar   81  PHE81      -0.0003
     58  CE2       -8.5470  -26.2810  -13.3830 C.ar   81  PHE81      -0.0003
     59  CZ        -7.3240  -26.0940  -12.7690 C.ar   81  PHE81      -0.0000
     60  N         -6.9630  -30.2260  -15.3520 N.am   82  CYS82      -0.1954
     61  CA        -7.5140  -31.3090  -14.5370 C.3    82  CYS82       0.1828
     62  C         -7.6970  -30.7790  -13.1200 C.2    82  CYS82       0.2467
     63  O         -6.7820  -30.8750  -12.2880 O.2    82  CYS82      -0.2730
     64  CB        -6.6020  -32.5330  -14.5570 C.3    82  CYS82       0.0996
     65  SG        -5.9280  -32.9310  -16.1860 S.3    82  CYS82      -0.0797
     66  N         -8.8720  -30.2360  -12.7950 N.am   83  PRO83      -0.2715
     67  CA        -9.0170  -29.4910  -11.5290 C.3    83  PRO83       0.1536
     68  C         -8.8290  -30.3290  -10.2710 C.2    83  PRO83       0.2599
     69  O         -8.5950  -29.7580   -9.1980 O.2    83  PRO83      -0.2715
     70  CB       -10.4480  -28.9390  -11.6140 C.3    83  PRO83       0.0310
     71  CG       -10.8060  -28.9890  -13.0720 C.3    83  PRO83       0.0237
     72  CD       -10.0940  -30.1880  -13.6130 C.3    83  PRO83       0.0939
     73  N         -8.9300  -31.6560  -10.3600 N.am   84  CYS84      -0.1954
     74  CA        -8.8300  -32.5100   -9.1830 C.3    84  CYS84       0.1843
     75  C         -7.3960  -32.7520   -8.7310 C.2    84  CYS84       0.2626
     76  O         -7.1940  -33.2010   -7.5970 O.2    84  CYS84      -0.2714
     77  CB        -9.5090  -33.8550   -9.4520 C.3    84  CYS84       0.0997
     78  SG       -11.3070  -33.7640   -9.5580 S.3    84  CYS84      -0.0797
     79  N         -6.4090  -32.4670   -9.5690 N.am   85  GLY85      -0.1940
     80  CA        -5.0240  -32.7050   -9.2310 C.3    85  GLY85       0.2014
     81  C         -4.5100  -34.0160   -9.7890 C.2    85  GLY85       0.2639
     82  O         -5.1100  -34.6370  -10.6680 O.2    85  GLY85      -0.2714
     83  N         -3.3660  -34.4360   -9.2610 N.am   86  SER86      -0.1949
     84  CA        -2.7170  -35.6670   -9.6830 C.3    86  SER86       0.1924
     85  C         -3.0680  -36.8120   -8.7410 C.2    86  SER86       0.2314
     86  O         -3.6980  -36.6300   -7.6960 O.2    86  SER86      -0.2863
     87  CB        -1.1990  -35.4780   -9.7500 C.3    86  SER86       0.2116
     88  OG        -0.6690  -35.1770   -8.4700 O.3    86  SER86      -0.2180
     89  N         -1.9210  -36.2010   -5.3150 N.3    89  THR89      -0.1218
     90  CA        -2.8570  -35.4000   -4.5330 C.3    89  THR89       0.1862
     91  C         -3.9740  -36.2650   -3.9710 C.2    89  THR89       0.2287
     92  O         -4.4020  -36.0770   -2.8260 O.2    89  THR89      -0.2866
     93  CB        -3.4280  -34.2730   -5.3980 C.3    89  THR89       0.1770
     94  OG1       -2.4010  -33.3140   -5.6830 O.3    89  THR89      -0.2211
     95  CG2       -4.5860  -33.5740   -4.6970 C.3    89  THR89       0.0375
     96  N         -2.7380  -37.5170  -13.7910 N.3   135  MET135     -0.1245
     97  CA        -3.7320  -36.5300  -13.4030 C.3   135  MET135      0.1570
     98  C         -5.1000  -37.1860  -13.2440 C.2   135  MET135      0.2261
     99  O         -5.3180  -38.3310  -13.6400 O.2   135  MET135     -0.2867
    100  CB        -3.7950  -35.4000  -14.4310 C.3   135  MET135      0.0387
    101  CG        -2.4430  -34.8030  -14.7700 C.3   135  MET135      0.0595
    102  SD        -1.4990  -34.3700  -13.2970 S.3   135  MET135     -0.1393
    103  CE        -2.6470  -33.2620  -12.4870 C.3   135  MET135      0.0692
    104  N          0.5850  -37.3850  -18.6570 N.3   149  THR149     -0.1203
    105  CA         0.8270  -36.0350  -19.1560 C.3   149  THR149      0.1994
    106  C          2.2960  -35.7210  -19.4230 C.2   149  THR149      0.2617
    107  O          2.6340  -35.2000  -20.4910 O.2   149  THR149     -0.2717
    108  CB         0.2550  -35.0060  -18.1750 C.3   149  THR149      0.1784
    109  OG1        0.7620  -33.7040  -18.4940 O.3   149  THR149     -0.2211
    110  CG2        0.6140  -35.3610  -16.7360 C.3   149  THR149      0.0376
    111  N          3.1760  -36.0230  -18.4720 N.am  150  ASP150     -0.1973
    112  CA         4.5600  -35.5510  -18.5120 C.3   150  ASP150      0.1709
    113  C          5.4420  -36.6510  -19.0950 C.2   150  ASP150      0.2293
    114  O          5.9240  -37.5340  -18.3840 O.2   150  ASP150     -0.2864
    115  CB         5.0200  -35.1290  -17.1210 C.3   150  ASP150      0.1436
    116  CG         6.3630  -34.4260  -17.1380 C.2   150  ASP150      0.3671
    117  OD1        6.4360  -33.2890  -17.6530 O.co2 150  ASP150     -0.2456
    118  OD2        7.3440  -35.0110  -16.6310 O.co2 150  ASP150     -0.2456
    119  N         -1.7130  -28.2890    6.5820 N.3   512  LYS512     -0.1245
    120  CA        -1.1250  -28.3990    5.2520 C.3   512  LYS512      0.1561
    121  C         -0.9480  -27.0280    4.6140 C.2   512  LYS512      0.2260
    122  O          0.0070  -26.8130    3.8600 O.2   512  LYS512     -0.2867
    123  CB        -1.9920  -29.2990    4.3700 C.3   512  LYS512      0.0271
    124  CG        -1.4370  -29.5460    2.9760 C.3   512  LYS512      0.0035
    125  CD        -2.3360  -30.4860    2.1900 C.3   512  LYS512      0.0206
    126  CE        -1.8040  -30.7210    0.7850 C.3   512  LYS512      0.1093
    127  NZ        -2.6760  -31.6410    0.0050 N.3   512  LYS512     -0.1314
@<TRIPOS>BOND
     1    28    27    2
     2    27    26    1
     3    32    33    1
     4    33    34    1
     5    33    36    1
     6    37    36    1
     7    37    38    1
     8    34    40   am
     9    34    35    2
    10    25    26    1
    11    26    29    1
    12    40    41    1
    13    48    46   ar
    14    44    41    1
    15    44    45    1
    16    38    39    1
    17    46    47   ar
    18    46    45    1
    19    41    42    1
    20   107   106    2
    21    30    29    1
    22    29    31    1
    23    23    22    2
    24   106   105    1
    25   106   111   am
    26    42    49   am
    27    42    43    2
    28   105   104    1
    29   105   108    1
    30   113   112    1
    31   113   114    2
    32    22    21    1
    33    20    21    1
    34    49    50    1
    35   112   111    1
    36   112   115    1
    37   109   108    1
    38   108   110    1
    39    21    24    1
    40   117   116   ar
    41    50    53    1
    42    50    51    1
    43   116   115    1
    44   116   118   ar
    45    53    54    1
    46    52    51    2
    47    51    60   am
    48    65    64    1
    49    19    17    1
    50    18    17    1
    51    54    55   ar
    52    54    56   ar
    53    60    61    1
    54    17    14    1
    55    14    13    1
    56    14    15    1
    57    55    57   ar
    58   101   100    1
    59   101   102    1
    60    56    58   ar
    61    64    61    1
    62    61    62    1
    63   100    97    1
    64    15    16    2
    65    96    97    1
    66    99    98    2
    67    72    71    1
    68    72    66    1
    69    57    59   ar
    70    97    98    1
    71    58    59   ar
    72   102   103    1
    73    62    66   am
    74    62    63    2
    75    71    70    1
    76     7     6    1
    77    66    67    1
    78    12    11    2
    79    70    67    1
    80     6     5    1
    81     6     8    1
    82    67    68    1
    83     5     2    1
    84    82    81    2
    85    11    10    1
    86     9    10    1
    87     9     3   am
    88    73    68   am
    89    73    74    1
    90    68    69    2
    91     1     2    1
    92     2     3    1
    93    81    83   am
    94    81    80    1
    95    87    84    1
    96    87    88    1
    97    84    83    1
    98    84    85    1
    99    79    80    1
   100    79    75   am
   101    78    77    1
   102     3     4    2
   103    77    74    1
   104    74    75    1
   105    85    86    2
   106    75    76    2
   107    94    93    1
   108    93    95    1
   109    93    90    1
   110    89    90    1
   111    90    91    1
   112    91    92    2
   113   127   126    1
   114   126   125    1
   115   125   124    1
   116   124   123    1
   117   122   121    2
   118   123   120    1
   119   121   120    1
   120   120   119    1
