@<TRIPOS>MOLECULE
tmp/6cq8B05.pdb
 79 73 0 0 0
SMALL
GASTEIGER

@<TRIPOS>ATOM
      1  N         19.0870  -22.1670  -45.0880 N.3   181  ILE181     -0.1245
      2  CA        17.8720  -22.9630  -45.2040 C.3   181  ILE181      0.1561
      3  C         18.2120  -24.4140  -45.5090 C.2   181  ILE181      0.2260
      4  O         17.5380  -25.3360  -45.0380 O.2   181  ILE181     -0.2867
      5  CB        16.9530  -22.3740  -46.2840 C.3   181  ILE181      0.0252
      6  CG1       16.5530  -20.9440  -45.9250 C.3   181  ILE181      0.0019
      7  CG2       15.7370  -23.2600  -46.4630 C.3   181  ILE181      0.0019
      8  CD1       15.9150  -20.1900  -47.0750 C.3   181  ILE181      0.0001
      9  N         17.7600  -27.0490  -42.4990 N.3   185  CYS185     -0.1235
     10  CA        16.7310  -28.0730  -42.6440 C.3   185  CYS185      0.1677
     11  C         17.2920  -29.4900  -42.6200 C.2   185  CYS185      0.2270
     12  O         16.5140  -30.4470  -42.5240 O.2   185  CYS185     -0.2867
     13  CB        15.9450  -27.8300  -43.9310 C.3   185  CYS185      0.0956
     14  SG        14.9980  -26.2960  -43.8800 S.3   185  CYS185     -0.0801
     15  N         15.8100  -30.5840  -39.1250 N.3   189  VAL189     -0.1231
     16  CA        14.5560  -31.1190  -39.6370 C.3   189  VAL189      0.1692
     17  C         14.7840  -32.5100  -40.2190 C.2   189  VAL189      0.2591
     18  O         14.2240  -33.4960  -39.7290 O.2   189  VAL189     -0.2718
     19  CB        13.9450  -30.1720  -40.6830 C.3   189  VAL189      0.0266
     20  CG1       12.6430  -30.7410  -41.2120 C.3   189  VAL189      0.0020
     21  CG2       13.7210  -28.7970  -40.0840 C.3   189  VAL189      0.0020
     22  N         15.6260  -32.6000  -41.2520 N.am  190  ALA190     -0.1980
     23  CA        15.8040  -33.8590  -41.9710 C.3   190  ALA190      0.1597
     24  C         16.4360  -34.9250  -41.0830 C.2   190  ALA190      0.2287
     25  O         15.8550  -35.9950  -40.8670 O.2   190  ALA190     -0.2864
     26  CB        16.6520  -33.6250  -43.2190 C.3   190  ALA190      0.0319
     27  N          8.2660  -35.5590  -39.7300 N.3   208  ILE208     -0.1245
     28  CA         8.4330  -34.1630  -40.1300 C.3   208  ILE208      0.1561
     29  C          7.3530  -33.2980  -39.4950 C.2   208  ILE208      0.2260
     30  O          7.6270  -32.2180  -38.9560 O.2   208  ILE208     -0.2867
     31  CB         8.4230  -34.0420  -41.6640 C.3   208  ILE208      0.0252
     32  CG1        9.6560  -34.7290  -42.2500 C.3   208  ILE208      0.0019
     33  CG2        8.3250  -32.5810  -42.0880 C.3   208  ILE208      0.0019
     34  CD1        9.6220  -34.8700  -43.7500 C.3   208  ILE208      0.0001
     35  N          7.9260  -29.9520  -37.0930 N.3   212  VAL212     -0.1245
     36  CA         7.4040  -28.6100  -37.3180 C.3   212  VAL212      0.1561
     37  C          6.4580  -28.2100  -36.1960 C.2   212  VAL212      0.2260
     38  O          6.5710  -27.1180  -35.6270 O.2   212  VAL212     -0.2867
     39  CB         6.7230  -28.5310  -38.6920 C.3   212  VAL212      0.0252
     40  CG1        6.1150  -27.1570  -38.8900 C.3   212  VAL212      0.0019
     41  CG2        7.7290  -28.8480  -39.7810 C.3   212  VAL212      0.0019
     42  N         16.7250  -22.3800  -34.0760 N.3   250  TYR250     -0.1227
     43  CA        16.7070  -22.3240  -35.5320 C.3   250  TYR250      0.1736
     44  C         15.3990  -21.7310  -36.0490 C.2   250  TYR250      0.2595
     45  O         15.3930  -20.6610  -36.6700 O.2   250  TYR250     -0.2718
     46  CB        16.9530  -23.7230  -36.1000 C.3   250  TYR250      0.0548
     47  CG        17.0160  -23.7650  -37.6080 C.ar  250  TYR250     -0.0200
     48  CD1       18.0610  -23.1630  -38.2920 C.ar  250  TYR250     -0.0009
     49  CD2       16.0510  -24.4310  -38.3480 C.ar  250  TYR250     -0.0009
     50  CE1       18.1250  -23.1920  -39.6680 C.ar  250  TYR250      0.0417
     51  CE2       16.1150  -24.4720  -39.7270 C.ar  250  TYR250      0.0417
     52  CZ        17.1550  -23.8520  -40.3800 C.ar  250  TYR250      0.1957
     53  OH        17.2340  -23.8910  -41.7510 O.3   250  TYR250     -0.2866
     54  N         14.2690  -22.3980  -35.7780 N.am  251  PHE251     -0.1976
     55  CA        12.9850  -21.8860  -36.2560 C.3   251  PHE251      0.1639
     56  C         12.7390  -20.4440  -35.8350 C.2   251  PHE251      0.2290
     57  O         12.0080  -19.7150  -36.5170 O.2   251  PHE251     -0.2864
     58  CB        11.8220  -22.7520  -35.7690 C.3   251  PHE251      0.0560
     59  CG        11.6050  -23.9900  -36.5780 C.ar  251  PHE251     -0.0200
     60  CD1       12.3920  -24.2650  -37.6770 C.ar  251  PHE251     -0.0042
     61  CD2       10.5430  -24.8260  -36.3030 C.ar  251  PHE251     -0.0042
     62  CE1       12.1710  -25.3960  -38.4380 C.ar  251  PHE251     -0.0003
     63  CE2       10.3090  -25.9510  -37.0630 C.ar  251  PHE251     -0.0003
     64  CZ        11.1230  -26.2360  -38.1340 C.ar  251  PHE251     -0.0000
     65  N         14.3160  -18.6760  -38.6170 N.3   254  VAL254     -0.1245
     66  CA        13.5950  -19.0620  -39.8350 C.3   254  VAL254      0.1561
     67  C         12.2530  -18.3470  -39.9050 C.2   254  VAL254      0.2260
     68  O         11.9650  -17.6090  -40.8540 O.2   254  VAL254     -0.2867
     69  CB        13.4030  -20.5870  -39.8880 C.3   254  VAL254      0.0252
     70  CG1       12.5570  -20.9770  -41.0840 C.3   254  VAL254      0.0019
     71  CG2       14.7340  -21.2970  -39.9340 C.3   254  VAL254      0.0019
     72  N         10.9420  -15.6370  -42.6380 N.3   258  ILE258     -0.1245
     73  CA         9.6880  -15.7420  -43.3810 C.3   258  ILE258      0.1561
     74  C          8.8780  -14.4580  -43.2450 C.2   258  ILE258      0.2260
     75  O          8.2550  -13.9900  -44.2050 O.2   258  ILE258     -0.2867
     76  CB         8.8940  -16.9730  -42.9000 C.3   258  ILE258      0.0252
     77  CG1        9.6870  -18.2610  -43.1690 C.3   258  ILE258      0.0019
     78  CG2        7.5280  -17.0200  -43.5620 C.3   258  ILE258      0.0019
     79  CD1        9.1670  -19.5040  -42.4400 C.3   258  ILE258      0.0001
@<TRIPOS>BOND
     1     8     6    1
     2     7     5    1
     3     5     6    1
     4     5     2    1
     5     3     2    1
     6     3     4    2
     7     2     1    1
     8    75    74    2
     9    13    14    1
    10    13    10    1
    11    34    32    1
    12    78    76    1
    13    73    74    1
    14    73    76    1
    15    73    72    1
    16    26    23    1
    17    77    76    1
    18    77    79    1
    19    10    11    1
    20    10     9    1
    21    11    12    2
    22    32    31    1
    23    33    31    1
    24    23    22    1
    25    23    24    1
    26    53    52    1
    27    31    28    1
    28    22    17   am
    29    20    19    1
    30    70    69    1
    31    24    25    2
    32    68    67    2
    33    19    21    1
    34    19    16    1
    35    52    51   ar
    36    52    50   ar
    37    17    18    2
    38    17    16    1
    39    28    27    1
    40    28    29    1
    41    71    69    1
    42    67    66    1
    43    69    66    1
    44    66    65    1
    45    41    39    1
    46    51    49   ar
    47    50    48   ar
    48    16    15    1
    49    29    30    2
    50    40    39    1
    51    39    36    1
    52    62    64   ar
    53    62    60   ar
    54    49    47   ar
    55    48    47   ar
    56    64    63   ar
    57    60    59   ar
    58    47    46    1
    59    36    35    1
    60    36    37    1
    61    63    61   ar
    62    45    44    2
    63    59    61   ar
    64    59    58    1
    65    57    56    2
    66    55    56    1
    67    55    54    1
    68    55    58    1
    69    37    38    2
    70    46    43    1
    71    44    54   am
    72    44    43    1
    73    43    42    1
