@<TRIPOS>MOLECULE
tmp/6cq8B01.pdb
 78 72 0 0 0
SMALL
GASTEIGER

@<TRIPOS>ATOM
      1  N         -2.5240    0.5840  -40.6290 N.3    12  THR12      -0.1218
      2  CA        -1.7980   -0.6320  -40.9830 C.3    12  THR12       0.1862
      3  C         -2.2210   -1.8240  -40.1290 C.2    12  THR12       0.2287
      4  O         -2.2390   -2.9570  -40.6250 O.2    12  THR12      -0.2866
      5  CB        -0.2880   -0.4110  -40.8600 C.3    12  THR12       0.1770
      6  OG1        0.1270    0.6240  -41.7620 O.3    12  THR12      -0.2211
      7  CG2        0.4600   -1.6890  -41.1950 C.3    12  THR12       0.0375
      8  N         -5.6530   -3.2770  -41.5930 N.3    15  THR15      -0.1203
      9  CA        -5.5230   -4.0490  -42.8250 C.3    15  THR15       0.1994
     10  C         -4.8320   -5.3850  -42.5830 C.2    15  THR15       0.2617
     11  O         -5.1610   -6.3760  -43.2460 O.2    15  THR15      -0.2717
     12  CB        -4.7700   -3.2360  -43.8770 C.3    15  THR15       0.1784
     13  OG1       -3.4790   -2.8780  -43.3700 O.3    15  THR15      -0.2211
     14  CG2       -5.5320   -1.9750  -44.2100 C.3    15  THR15       0.0376
     15  N         -3.8830   -5.4400  -41.6430 N.am   16  ILE16      -0.1979
     16  CA        -3.2800   -6.7230  -41.2950 C.3    16  ILE16       0.1595
     17  C         -4.3090   -7.6170  -40.6100 C.2    16  ILE16       0.2287
     18  O         -4.3190   -8.8390  -40.8100 O.2    16  ILE16      -0.2864
     19  CB        -2.0340   -6.5040  -40.4160 C.3    16  ILE16       0.0276
     20  CG1       -1.0030   -5.6440  -41.1520 C.3    16  ILE16       0.0022
     21  CG2       -1.4080   -7.8390  -40.0260 C.3    16  ILE16       0.0022
     22  CD1        0.1030   -5.1230  -40.2590 C.3    16  ILE16       0.0001
     23  N         -6.5990   -9.0310  -43.1480 N.3    19  VAL19      -0.1245
     24  CA        -5.8880  -10.0820  -43.8710 C.3    19  VAL19       0.1561
     25  C         -5.6910  -11.3100  -42.9920 C.2    19  VAL19       0.2260
     26  O         -5.5850  -12.4320  -43.5010 O.2    19  VAL19      -0.2867
     27  CB        -4.5360   -9.5830  -44.4000 C.3    19  VAL19       0.0252
     28  CG1       -3.8340  -10.7050  -45.1730 C.3    19  VAL19       0.0019
     29  CG2       -4.7220   -8.3600  -45.2560 C.3    19  VAL19       0.0019
     30  N         -7.1060  -15.0130  -43.7610 N.3    23  TYR23      -0.1241
     31  CA        -6.2060  -16.1680  -43.7630 C.3    23  TYR23       0.1605
     32  C         -6.7870  -17.3120  -42.9360 C.2    23  TYR23       0.2264
     33  O         -6.6130  -18.4900  -43.2790 O.2    23  TYR23      -0.2867
     34  CB        -4.8210  -15.7500  -43.2430 C.3    23  TYR23       0.0534
     35  CG        -3.7220  -16.8090  -43.3240 C.ar   23  TYR23      -0.0201
     36  CD1       -3.1040  -17.1230  -44.5310 C.ar   23  TYR23      -0.0009
     37  CD2       -3.2930  -17.4760  -42.1860 C.ar   23  TYR23      -0.0009
     38  CE1       -2.1040  -18.0820  -44.5980 C.ar   23  TYR23       0.0417
     39  CE2       -2.2980  -18.4330  -42.2470 C.ar   23  TYR23       0.0417
     40  CZ        -1.7070  -18.7330  -43.4510 C.ar   23  TYR23       0.1957
     41  OH        -0.7160  -19.6920  -43.4950 O.3    23  TYR23      -0.2866
     42  N          7.6130  -11.5690  -45.9310 N.3   262  LEU262     -0.1245
     43  CA         6.2260  -11.1170  -45.9390 C.3   262  LEU262      0.1561
     44  C          6.0940   -9.5910  -45.9180 C.2   262  LEU262      0.2260
     45  O          5.1050   -9.0700  -46.4410 O.2   262  LEU262     -0.2867
     46  CB         5.4640  -11.7260  -44.7650 C.3   262  LEU262      0.0270
     47  CG         5.2990  -13.2450  -44.7460 C.3   262  LEU262      0.0019
     48  CD1        4.5900  -13.6490  -43.4620 C.3   262  LEU262      0.0001
     49  CD2        4.5660  -13.7730  -45.9850 C.3   262  LEU262      0.0001
     50  N          7.1570   -8.9600  -49.8960 N.3   265  ILE265     -0.1231
     51  CA         6.0130   -9.3020  -50.7340 C.3   265  ILE265      0.1692
     52  C          4.8390   -8.3890  -50.4230 C.2   265  ILE265      0.2591
     53  O          4.0420   -8.0650  -51.3090 O.2   265  ILE265     -0.2718
     54  CB         5.6410  -10.7860  -50.5540 C.3   265  ILE265      0.0266
     55  CG1        6.7850  -11.6810  -51.0170 C.3   265  ILE265      0.0019
     56  CG2        4.4050  -11.1180  -51.3360 C.3   265  ILE265      0.0020
     57  CD1        6.6050  -13.1250  -50.6300 C.3   265  ILE265      0.0001
     58  N          4.8530   -7.8580  -49.2080 N.am  266  ALA266     -0.1980
     59  CA         3.8890   -6.8370  -48.8530 C.3   266  ALA266      0.1597
     60  C          4.2280   -5.4920  -49.4860 C.2   266  ALA266      0.2287
     61  O          3.3180   -4.7490  -49.8540 O.2   266  ALA266     -0.2864
     62  CB         3.8020   -6.7140  -47.3400 C.3   266  ALA266      0.0319
     63  N          3.7900   -5.7870  -53.3890 N.3   269  THR269     -0.1203
     64  CA         2.3810   -5.8430  -53.7790 C.3   269  THR269      0.1994
     65  C          1.6620   -4.5220  -53.5300 C.2   269  THR269      0.2617
     66  O          0.7150   -4.1950  -54.2500 O.2   269  THR269     -0.2717
     67  CB         1.6420   -6.9670  -53.0390 C.3   269  THR269      0.1784
     68  OG1        1.7230   -6.7530  -51.6250 O.3   269  THR269     -0.2211
     69  CG2        2.2270   -8.3280  -53.3790 C.3   269  THR269      0.0376
     70  N          2.0800   -3.7570  -52.5210 N.am  270  LYS270     -0.1979
     71  CA         1.4660   -2.4560  -52.2840 C.3   270  LYS270      0.1596
     72  C          1.8060   -1.4810  -53.4010 C.2   270  LYS270      0.2287
     73  O          0.9820   -0.6270  -53.7490 O.2   270  LYS270     -0.2864
     74  CB         1.9140   -1.9170  -50.9220 C.3   270  LYS270      0.0298
     75  CG         1.3370   -0.5690  -50.5130 C.3   270  LYS270      0.0038
     76  CD         1.7180   -0.2450  -49.0700 C.3   270  LYS270      0.0206
     77  CE         1.3870    1.1940  -48.6870 C.3   270  LYS270      0.1093
     78  NZ        -0.0730    1.4860  -48.6660 N.3   270  LYS270     -0.1314
@<TRIPOS>BOND
     1    66    65    2
     2    64    65    1
     3    64    63    1
     4    64    67    1
     5    73    72    2
     6    65    70   am
     7    72    71    1
     8    69    67    1
     9    67    68    1
    10    70    71    1
    11    71    74    1
    12    56    54    1
    13    53    52    2
    14    55    57    1
    15    55    54    1
    16    74    75    1
    17    51    54    1
    18    51    52    1
    19    51    50    1
    20    75    76    1
    21    52    58   am
    22    61    60    2
    23    60    59    1
    24    58    59    1
    25    76    77    1
    26    59    62    1
    27    77    78    1
    28    45    44    2
    29    49    47    1
    30    43    42    1
    31    43    44    1
    32    43    46    1
    33    29    27    1
    34    28    27    1
    35    46    47    1
    36    47    48    1
    37    38    36   ar
    38    38    40   ar
    39    36    35   ar
    40    27    24    1
    41    14    12    1
    42    12    13    1
    43    12     9    1
    44    24    23    1
    45    24    25    1
    46    31    30    1
    47    31    34    1
    48    31    32    1
    49    26    25    2
    50    41    40    1
    51    40    39   ar
    52    35    34    1
    53    35    37   ar
    54    33    32    2
    55    11    10    2
    56     9    10    1
    57     9     8    1
    58    10    15   am
    59    39    37   ar
    60     6     5    1
    61    15    16    1
    62    16    17    1
    63    16    19    1
    64     7     5    1
    65    20    19    1
    66    20    22    1
    67     2     5    1
    68     2     1    1
    69     2     3    1
    70    18    17    2
    71     4     3    2
    72    19    21    1
