@<TRIPOS>MOLECULE
tmp/6cq8B03.pdb
 111 111 0 0 0
SMALL
GASTEIGER

@<TRIPOS>ATOM
      1  N         20.0980  -30.5540  -40.4030 N.3   187  LEU187     -0.1231
      2  CA        20.4540  -30.9120  -39.0370 C.3   187  LEU187      0.1693
      3  C         19.2550  -30.8440  -38.1100 C.2   187  LEU187      0.2592
      4  O         19.1530  -31.6280  -37.1600 O.2   187  LEU187     -0.2718
      5  CB        21.5440  -29.9840  -38.5220 C.3   187  LEU187      0.0284
      6  CG        22.9300  -30.2510  -39.0770 C.3   187  LEU187      0.0019
      7  CD1       22.9880  -29.8060  -40.5260 C.3   187  LEU187      0.0001
      8  CD2       23.9330  -29.5050  -38.2330 C.3   187  LEU187      0.0001
      9  N         18.3520  -29.8980  -38.3470 N.am  188  PHE188     -0.1976
     10  CA        17.2770  -29.6590  -37.4030 C.3   188  PHE188      0.1639
     11  C         15.9510  -30.2460  -37.8460 C.2   188  PHE188      0.2290
     12  O         15.0630  -30.4220  -37.0050 O.2   188  PHE188     -0.2864
     13  CB        17.1100  -28.1590  -37.1520 C.3   188  PHE188      0.0560
     14  CG        18.3550  -27.5000  -36.6470 C.ar  188  PHE188     -0.0200
     15  CD1       18.8480  -27.8030  -35.3930 C.ar  188  PHE188     -0.0042
     16  CD2       19.0240  -26.5670  -37.4190 C.ar  188  PHE188     -0.0042
     17  CE1       19.9920  -27.2050  -34.9280 C.ar  188  PHE188     -0.0003
     18  CE2       20.1650  -25.9530  -36.9510 C.ar  188  PHE188     -0.0003
     19  CZ        20.6500  -26.2710  -35.7030 C.ar  188  PHE188     -0.0000
     20  N         17.6350  -34.6490  -40.5650 N.3   191  LEU191     -0.1231
     21  CA        18.3360  -35.6290  -39.7360 C.3   191  LEU191      0.1678
     22  C         17.5240  -36.0740  -38.5240 C.2   191  LEU191      0.2434
     23  O         17.4080  -37.2910  -38.2970 O.2   191  LEU191     -0.2733
     24  CB        19.6960  -35.0550  -39.3240 C.3   191  LEU191      0.0284
     25  CG        20.7060  -35.9610  -38.6140 C.3   191  LEU191      0.0019
     26  CD1       22.1020  -35.4980  -38.9310 C.3   191  LEU191      0.0001
     27  CD2       20.4900  -35.9460  -37.1140 C.3   191  LEU191      0.0001
     28  N         16.9490  -35.1790  -37.7140 N.am  192  PRO192     -0.2729
     29  CA        16.1860  -35.6570  -36.5510 C.3   192  PRO192      0.1401
     30  C         14.8710  -36.3260  -36.9220 C.2   192  PRO192      0.2269
     31  O         14.4040  -37.1960  -36.1770 O.2   192  PRO192     -0.2865
     32  CB        15.9700  -34.3790  -35.7290 C.3   192  PRO192      0.0296
     33  CG        16.0170  -33.2770  -36.7250 C.3   192  PRO192      0.0237
     34  CD        17.0040  -33.7070  -37.7710 C.3   192  PRO192      0.0939
     35  N         15.6980  -40.1600  -37.3970 N.3   195  ILE195     -0.1231
     36  CA        15.8280  -40.8760  -36.1300 C.3   195  ILE195      0.1692
     37  C         14.4590  -41.1040  -35.4980 C.2   195  ILE195      0.2592
     38  O         14.2070  -42.1470  -34.8810 O.2   195  ILE195     -0.2718
     39  CB        16.7800  -40.1080  -35.1930 C.3   195  ILE195      0.0266
     40  CG1       18.2000  -40.1440  -35.7700 C.3   195  ILE195      0.0019
     41  CG2       16.7080  -40.6560  -33.7800 C.3   195  ILE195      0.0020
     42  CD1       19.1830  -39.2050  -35.1140 C.3   195  ILE195      0.0001
     43  N         13.5540  -40.1320  -35.6450 N.am  196  PHE196     -0.1976
     44  CA        12.1880  -40.2800  -35.1480 C.3   196  PHE196      0.1639
     45  C         11.4550  -41.4060  -35.8650 C.2   196  PHE196      0.2290
     46  O         10.8520  -42.2770  -35.2260 O.2   196  PHE196     -0.2864
     47  CB        11.4400  -38.9610  -35.3250 C.3   196  PHE196      0.0560
     48  CG        11.8260  -37.9100  -34.3340 C.ar  196  PHE196     -0.0200
     49  CD1       12.2610  -38.2610  -33.0690 C.ar  196  PHE196     -0.0042
     50  CD2       11.8100  -36.5710  -34.6850 C.ar  196  PHE196     -0.0042
     51  CE1       12.6250  -37.2930  -32.1550 C.ar  196  PHE196     -0.0003
     52  CE2       12.1830  -35.5990  -33.7820 C.ar  196  PHE196     -0.0003
     53  CZ        12.5930  -35.9600  -32.5140 C.ar  196  PHE196     -0.0000
     54  N         18.7000  -41.6260  -26.3740 N.3   236  TYR236     -0.1241
     55  CA        17.6870  -40.9960  -27.2140 C.3   236  TYR236      0.1605
     56  C         17.1560  -39.7080  -26.5950 C.2   236  TYR236      0.2264
     57  O         17.2810  -38.6270  -27.1810 O.2   236  TYR236     -0.2867
     58  CB        16.5450  -41.9800  -27.4710 C.3   236  TYR236      0.0534
     59  CG        15.4090  -41.4440  -28.3170 C.ar  236  TYR236     -0.0201
     60  CD1       15.5440  -41.2850  -29.6880 C.ar  236  TYR236     -0.0009
     61  CD2       14.1870  -41.1320  -27.7440 C.ar  236  TYR236     -0.0009
     62  CE1       14.4960  -40.8130  -30.4600 C.ar  236  TYR236      0.0417
     63  CE2       13.1370  -40.6580  -28.5040 C.ar  236  TYR236      0.0417
     64  CZ        13.2910  -40.5020  -29.8590 C.ar  236  TYR236      0.1957
     65  OH        12.2310  -40.0280  -30.6020 O.3   236  TYR236     -0.2866
     66  N         19.4710  -36.5800  -26.1540 N.3   239  VAL239     -0.1231
     67  CA        19.7470  -35.9470  -27.4390 C.3   239  VAL239      0.1692
     68  C         18.5600  -35.1110  -27.8950 C.2   239  VAL239      0.2591
     69  O         18.7390  -34.0830  -28.5590 O.2   239  VAL239     -0.2718
     70  CB        20.1200  -36.9950  -28.5010 C.3   239  VAL239      0.0266
     71  CG1       20.2140  -36.3400  -29.8670 C.3   239  VAL239      0.0020
     72  CG2       21.4300  -37.6650  -28.1470 C.3   239  VAL239      0.0020
     73  N         17.3360  -35.5310  -27.5630 N.am  240  VAL240     -0.1980
     74  CA        16.1630  -34.7840  -28.0060 C.3   240  VAL240      0.1595
     75  C         16.0780  -33.4480  -27.2800 C.2   240  VAL240      0.2287
     76  O         15.7370  -32.4220  -27.8800 O.2   240  VAL240     -0.2864
     77  CB        14.8860  -35.6240  -27.8220 C.3   240  VAL240      0.0276
     78  CG1       13.6570  -34.8060  -28.1730 C.3   240  VAL240      0.0022
     79  CG2       14.9540  -36.8680  -28.6940 C.3   240  VAL240      0.0022
     80  N         18.5520  -31.6590  -26.4650 N.3   242  PHE242     -0.1227
     81  CA        19.4710  -30.7670  -27.1590 C.3   242  PHE242      0.1736
     82  C         18.8870  -30.3040  -28.4890 C.2   242  PHE242      0.2595
     83  O         18.9470  -29.1130  -28.8230 O.2   242  PHE242     -0.2718
     84  CB        20.8150  -31.4660  -27.3490 C.3   242  PHE242      0.0547
     85  CG        21.8280  -30.6270  -28.0500 C.ar  242  PHE242     -0.0202
     86  CD1       22.4130  -29.5470  -27.4090 C.ar  242  PHE242     -0.0042
     87  CD2       22.1970  -30.9130  -29.3560 C.ar  242  PHE242     -0.0042
     88  CE1       23.3490  -28.7670  -28.0610 C.ar  242  PHE242     -0.0003
     89  CE2       23.1290  -30.1420  -30.0100 C.ar  242  PHE242     -0.0003
     90  CZ        23.7090  -29.0680  -29.3620 C.ar  242  PHE242     -0.0000
     91  N         18.3070  -31.2340  -29.2560 N.am  243  TRP243     -0.1976
     92  CA        17.6000  -30.8840  -30.4870 C.3   243  TRP243      0.1640
     93  C         16.5800  -29.7720  -30.2640 C.2   243  TRP243      0.2290
     94  O         16.4880  -28.8230  -31.0520 O.2   243  TRP243     -0.2864
     95  CB        16.9040  -32.1210  -31.0500 C.3   243  TRP243      0.0576
     96  CG        15.9820  -31.7660  -32.1610 C.ar  243  TRP243      0.0006
     97  CD1       16.3250  -31.2680  -33.3840 C.ar  243  TRP243      0.0946
     98  CD2       14.5510  -31.8320  -32.1390 C.ar  243  TRP243      0.0152
     99  NE1       15.1980  -31.0400  -34.1330 N.ar  243  TRP243     -0.2442
    100  CE2       14.0940  -31.3750  -33.3910 C.ar  243  TRP243      0.0810
    101  CE3       13.6100  -32.2460  -31.1870 C.ar  243  TRP243      0.0012
    102  CZ2       12.7400  -31.3180  -33.7180 C.ar  243  TRP243      0.0191
    103  CZ3       12.2620  -32.1870  -31.5130 C.ar  243  TRP243      0.0001
    104  CH2       11.8430  -31.7280  -32.7680 C.ar  243  TRP243      0.0015
    105  N         18.4010  -26.3910  -29.6120 N.3   246  VAL246     -0.1245
    106  CA        18.9600  -25.7350  -30.7840 C.3   246  VAL246      0.1561
    107  C         17.9310  -25.6490  -31.9050 C.2   246  VAL246      0.2260
    108  O         17.9230  -24.6690  -32.6580 O.2   246  VAL246     -0.2867
    109  CB        20.2410  -26.4570  -31.2350 C.3   246  VAL246      0.0252
    110  CG1       20.8670  -25.7350  -32.3990 C.3   246  VAL246      0.0019
    111  CG2       21.2140  -26.5430  -30.0810 C.3   246  VAL246      0.0019
@<TRIPOS>BOND
     1    20    21    1
     2     7     6    1
     3     1     2    1
     4    21    24    1
     5    21    22    1
     6    24    25    1
     7     6     5    1
     8     6     8    1
     9     2     5    1
    10     2     3    1
    11    26    25    1
    12    25    27    1
    13    22    23    2
    14    22    28   am
    15     9     3   am
    16     9    10    1
    17     3     4    2
    18    11    10    1
    19    11    12    2
    20    34    28    1
    21    34    33    1
    22    28    29    1
    23    16    18   ar
    24    16    14   ar
    25    10    13    1
    26    35    36    1
    27    13    14    1
    28    18    19   ar
    29    30    29    1
    30    30    31    2
    31    33    32    1
    32    14    15   ar
    33    29    32    1
    34    36    37    1
    35    36    39    1
    36    45    46    2
    37    45    44    1
    38    40    39    1
    39    40    42    1
    40    19    17   ar
    41    43    37   am
    42    43    44    1
    43    37    38    2
    44    15    17   ar
    45    47    44    1
    46    47    48    1
    47    39    41    1
    48    50    48   ar
    49    50    52   ar
    50    48    49   ar
    51    99   100   ar
    52    99    97   ar
    53    52    53   ar
    54   102   100   ar
    55   102   104   ar
    56   100    98   ar
    57    97    96   ar
    58    49    51   ar
    59   104   103   ar
    60   108   107    2
    61    53    51   ar
    62   110   109    1
    63    96    98   ar
    64    96    95    1
    65    98   101   ar
    66   107   106    1
    67   103   101   ar
    68   109   106    1
    69   109   111    1
    70    94    93    2
    71    95    92    1
    72   106   105    1
    73    65    64    1
    74    92    93    1
    75    92    91    1
    76    62    64   ar
    77    62    60   ar
    78    89    90   ar
    79    89    87   ar
    80    71    70    1
    81    64    63   ar
    82    60    59   ar
    83    90    88   ar
    84    87    85   ar
    85    91    82   am
    86    83    82    2
    87    79    77    1
    88    69    68    2
    89    63    61   ar
    90    70    72    1
    91    70    67    1
    92    82    81    1
    93    59    61   ar
    94    59    58    1
    95    78    77    1
    96    88    86   ar
    97    85    86   ar
    98    85    84    1
    99    74    77    1
   100    74    73    1
   101    74    75    1
   102    68    73   am
   103    68    67    1
   104    76    75    2
   105    58    55    1
   106    67    66    1
   107    84    81    1
   108    55    56    1
   109    55    54    1
   110    57    56    2
   111    81    80    1
