@<TRIPOS>MOLECULE
tmp/6cq8B04.pdb
 184 177 0 0 0
SMALL
GASTEIGER

@<TRIPOS>ATOM
      1  N          4.5310  -45.1030  -14.7940 N.3    91  SER91      -0.1202
      2  CA         4.0880  -43.8120  -14.2830 C.3    91  SER91       0.2020
      3  C          4.2960  -42.7000  -15.3070 C.2    91  SER91       0.2618
      4  O          5.2090  -42.7500  -16.1370 O.2    91  SER91      -0.2717
      5  CB         4.8250  -43.4580  -12.9890 C.3    91  SER91       0.2103
      6  OG         4.4200  -42.1890  -12.4960 O.3    91  SER91      -0.2182
      7  N          3.4250  -41.6900  -15.2360 N.am   92  HIS92      -0.1975
      8  CA         3.5130  -40.5040  -16.0780 C.3    92  HIS92       0.1656
      9  C          4.1390  -39.3120  -15.3660 C.2    92  HIS92       0.2291
     10  O          4.5580  -38.3620  -16.0360 O.2    92  HIS92      -0.2864
     11  CB         2.1180  -40.1010  -16.5860 C.3    92  HIS92       0.0771
     12  CG         1.4790  -41.1150  -17.4860 C.ar   92  HIS92       0.0820
     13  ND1        1.8950  -41.3260  -18.7840 N.ar   92  HIS92      -0.2267
     14  CD2        0.4440  -41.9650  -17.2820 C.ar   92  HIS92       0.1154
     15  CE1        1.1500  -42.2670  -19.3360 C.ar   92  HIS92       0.1986
     16  NE2        0.2630  -42.6730  -18.4460 N.ar   92  HIS92      -0.2212
     17  N         11.5700  -38.7080  -14.7270 N.3    96  GLY96      -0.1210
     18  CA        11.8850  -38.2430  -16.0660 C.3    96  GLY96       0.1956
     19  C         10.7430  -37.5820  -16.8150 C.2    96  GLY96       0.2612
     20  O         10.9720  -36.7020  -17.6490 O.2    96  GLY96      -0.2717
     21  N          9.5060  -38.0020  -16.5370 N.am   97  SER97      -0.1952
     22  CA         8.3560  -37.4510  -17.2450 C.3    97  SER97       0.1924
     23  C          7.9150  -36.1090  -16.6770 C.2    97  SER97       0.2314
     24  O          7.3550  -35.2870  -17.4110 O.2    97  SER97      -0.2863
     25  CB         7.1940  -38.4410  -17.2160 C.3    97  SER97       0.2116
     26  OG         7.5130  -39.6010  -17.9600 O.3    97  SER97      -0.2180
     27  N         10.4550  -33.7560  -18.2590 N.3   100  PHE100     -0.1241
     28  CA         9.8300  -33.4670  -19.5470 C.3   100  PHE100      0.1605
     29  C          8.7680  -32.3790  -19.4240 C.2   100  PHE100      0.2264
     30  O          8.8280  -31.3510  -20.1070 O.2   100  PHE100     -0.2867
     31  CB         9.2260  -34.7570  -20.1060 C.3   100  PHE100      0.0534
     32  CG         8.2850  -34.5460  -21.2460 C.ar  100  PHE100     -0.0203
     33  CD1        8.7500  -34.2540  -22.5100 C.ar  100  PHE100     -0.0042
     34  CD2        6.9170  -34.6490  -21.0460 C.ar  100  PHE100     -0.0042
     35  CE1        7.8670  -34.0640  -23.5610 C.ar  100  PHE100     -0.0003
     36  CE2        6.0300  -34.4610  -22.0840 C.ar  100  PHE100     -0.0003
     37  CZ         6.5050  -34.1680  -23.3460 C.ar  100  PHE100     -0.0000
     38  N          9.8230  -28.9400  -19.1070 N.3   103  GLY103     -0.1210
     39  CA        10.3370  -28.4620  -20.3800 C.3   103  GLY103      0.1956
     40  C          9.2410  -27.9700  -21.3050 C.2   103  GLY103      0.2612
     41  O          9.3770  -26.9220  -21.9420 O.2   103  GLY103     -0.2717
     42  N          8.1400  -28.7240  -21.3950 N.am  104  THR104     -0.1952
     43  CA         7.0150  -28.3440  -22.2450 C.3   104  THR104      0.1897
     44  C          6.2870  -27.1040  -21.7400 C.2   104  THR104      0.2313
     45  O          5.3970  -26.6010  -22.4360 O.2   104  THR104     -0.2863
     46  CB         6.0080  -29.4960  -22.3670 C.3   104  THR104      0.1794
     47  OG1        5.3530  -29.7060  -21.1090 O.3   104  THR104     -0.2208
     48  CG2        6.7080  -30.7850  -22.7820 C.3   104  THR104      0.0378
     49  N          9.0330  -23.7890  -22.5240 N.3   107  THR107     -0.1218
     50  CA         9.1710  -23.6450  -23.9680 C.3   107  THR107      0.1862
     51  C          7.8370  -23.4170  -24.6820 C.2   107  THR107      0.2287
     52  O          7.8160  -23.3690  -25.9150 O.2   107  THR107     -0.2866
     53  CB         9.8670  -24.8810  -24.5460 C.3   107  THR107      0.1770
     54  OG1        9.0420  -26.0340  -24.3440 O.3   107  THR107     -0.2211
     55  CG2       11.1880  -25.1010  -23.8500 C.3   107  THR107      0.0375
     56  N          5.6750  -25.1360  -25.6960 N.3   109  ILE109     -0.1245
     57  CA         5.1820  -26.1900  -26.5750 C.3   109  ILE109      0.1561
     58  C          3.8570  -26.7270  -26.0470 C.2   109  ILE109      0.2260
     59  O          2.8530  -26.7730  -26.7670 O.2   109  ILE109     -0.2867
     60  CB         6.2360  -27.3040  -26.7210 C.3   109  ILE109      0.0252
     61  CG1        7.5120  -26.7400  -27.3460 C.3   109  ILE109      0.0019
     62  CG2        5.7030  -28.4480  -27.5760 C.3   109  ILE109      0.0019
     63  CD1        8.6840  -27.6820  -27.3000 C.3   109  ILE109      0.0001
     64  N          2.6050  -29.8520  -25.1120 N.3   111  PHE111     -0.1241
     65  CA         1.9710  -30.9690  -25.8070 C.3   111  PHE111      0.1605
     66  C          0.6390  -31.3390  -25.1630 C.2   111  PHE111      0.2264
     67  O         -0.3440  -31.6070  -25.8630 O.2   111  PHE111     -0.2867
     68  CB         2.9020  -32.1810  -25.8420 C.3   111  PHE111      0.0534
     69  CG         4.0780  -32.0240  -26.7650 C.ar  111  PHE111     -0.0203
     70  CD1        3.9240  -32.1620  -28.1370 C.ar  111  PHE111     -0.0042
     71  CD2        5.3390  -31.7700  -26.2640 C.ar  111  PHE111     -0.0042
     72  CE1        5.0060  -32.0260  -28.9920 C.ar  111  PHE111     -0.0003
     73  CE2        6.4200  -31.6350  -27.1130 C.ar  111  PHE111     -0.0003
     74  CZ         6.2530  -31.7630  -28.4790 C.ar  111  PHE111     -0.0000
     75  N         -0.2890  -33.9780  -23.3770 N.3   113  ASN113     -0.1225
     76  CA        -0.5000  -35.3860  -23.0470 C.3   113  ASN113      0.1785
     77  C         -0.4490  -35.6360  -21.5410 C.2   113  ASN113      0.2597
     78  O         -1.1740  -36.4930  -21.0200 O.2   113  ASN113     -0.2718
     79  CB         0.5340  -36.2630  -23.7650 C.3   113  ASN113      0.1169
     80  CG         1.9900  -35.8910  -23.4230 C.2   113  ASN113      0.2627
     81  OD1        2.2630  -34.9250  -22.7140 O.2   113  ASN113     -0.2716
     82  ND2        2.9200  -36.6970  -23.9050 N.am  113  ASN113     -0.0877
     83  N          0.4240  -34.9220  -20.8340 N.am  114  ILE114     -0.1980
     84  CA         0.5440  -34.9980  -19.3820 C.3   114  ILE114      0.1595
     85  C          0.4170  -33.5830  -18.8510 C.2   114  ILE114      0.2287
     86  O          1.2620  -32.7290  -19.1450 O.2   114  ILE114     -0.2864
     87  CB         1.8760  -35.6280  -18.9480 C.3   114  ILE114      0.0276
     88  CG1        1.9670  -37.0690  -19.4600 C.3   114  ILE114      0.0022
     89  CG2        2.0400  -35.5560  -17.4410 C.3   114  ILE114      0.0022
     90  CD1        0.8310  -37.9480  -18.9920 C.3   114  ILE114      0.0001
     91  N          5.7630  -33.8550  -36.7490 N.3   210  PHE210     -0.1241
     92  CA         6.1520  -33.6570  -35.3580 C.3   210  PHE210      0.1605
     93  C          7.2020  -32.5600  -35.2280 C.2   210  PHE210      0.2264
     94  O          7.1010  -31.6900  -34.3550 O.2   210  PHE210     -0.2867
     95  CB         6.6710  -34.9570  -34.7550 C.3   210  PHE210      0.0534
     96  CG         7.2220  -34.7880  -33.3730 C.ar  210  PHE210     -0.0203
     97  CD1        6.3790  -34.6210  -32.2900 C.ar  210  PHE210     -0.0042
     98  CD2        8.5880  -34.7730  -33.1610 C.ar  210  PHE210     -0.0042
     99  CE1        6.8910  -34.4570  -31.0160 C.ar  210  PHE210     -0.0003
    100  CE2        9.1020  -34.6120  -31.8930 C.ar  210  PHE210     -0.0003
    101  CZ         8.2530  -34.4570  -30.8190 C.ar  210  PHE210     -0.0000
    102  N          6.4110  -29.2260  -33.2470 N.3   214  THR214     -0.1218
    103  CA         7.1270  -29.0850  -31.9820 C.3   214  THR214      0.1862
    104  C          8.0070  -27.8430  -31.9590 C.2   214  THR214      0.2287
    105  O          8.0030  -27.0920  -30.9760 O.2   214  THR214     -0.2866
    106  CB         7.9700  -30.3280  -31.7010 C.3   214  THR214      0.1770
    107  OG1        7.1200  -31.4790  -31.5980 O.3   214  THR214     -0.2211
    108  CG2        8.7360  -30.1520  -30.4020 C.3   214  THR214      0.0375
    109  N          4.4150  -37.2530  -29.9190 N.3   224  VAL224     -0.1231
    110  CA         5.3930  -36.8170  -28.9270 C.3   224  VAL224      0.1692
    111  C          6.5600  -37.7980  -28.9190 C.2   224  VAL224      0.2592
    112  O          6.3640  -39.0180  -28.8510 O.2   224  VAL224     -0.2718
    113  CB         4.7730  -36.6900  -27.5220 C.3   224  VAL224      0.0266
    114  CG1        5.8390  -36.3030  -26.5100 C.3   224  VAL224      0.0020
    115  CG2        3.6550  -35.6690  -27.5260 C.3   224  VAL224      0.0020
    116  N          7.7750  -37.2570  -28.9900 N.am  225  ALA225     -0.1966
    117  CA         8.9790  -38.0750  -28.9880 C.3   225  ALA225      0.1728
    118  C          9.2370  -38.6180  -27.5870 C.2   225  ALA225      0.2617
    119  O          9.3390  -37.8510  -26.6230 O.2   225  ALA225     -0.2715
    120  CB        10.1650  -37.2460  -29.4810 C.3   225  ALA225      0.0334
    121  N          9.3370  -39.9370  -27.4730 N.am  226  GLY226     -0.1940
    122  CA         9.4780  -40.5640  -26.1770 C.3   226  GLY226      0.2014
    123  C          8.1800  -40.8360  -25.4570 C.2   226  GLY226      0.2639
    124  O          8.2080  -41.0890  -24.2480 O.2   226  GLY226     -0.2714
    125  N          7.0410  -40.7940  -26.1550 N.am  227  GLY227     -0.1939
    126  CA         5.7390  -40.9390  -25.5240 C.3   227  GLY227      0.2014
    127  C          5.3700  -42.3590  -25.1420 C.2   227  GLY227      0.2639
    128  O          4.8550  -42.5940  -24.0430 O.2   227  GLY227     -0.2714
    129  N          5.6100  -43.3110  -26.0410 N.am  228  SER228     -0.1949
    130  CA         5.2970  -44.7050  -25.7650 C.3   228  SER228      0.1924
    131  C          6.3750  -45.3190  -24.8680 C.2   228  SER228      0.2314
    132  O          7.3220  -44.6540  -24.4430 O.2   228  SER228     -0.2863
    133  CB         5.1320  -45.4830  -27.0700 C.3   228  SER228      0.2116
    134  OG         6.3500  -45.5560  -27.7900 O.3   228  SER228     -0.2180
    135  N         18.7000  -41.6260  -26.3740 N.3   236  TYR236     -0.1227
    136  CA        17.6870  -40.9960  -27.2140 C.3   236  TYR236      0.1736
    137  C         17.1560  -39.7080  -26.5950 C.2   236  TYR236      0.2595
    138  O         17.2810  -38.6270  -27.1810 O.2   236  TYR236     -0.2718
    139  CB        16.5450  -41.9800  -27.4710 C.3   236  TYR236      0.0548
    140  CG        15.4090  -41.4440  -28.3170 C.ar  236  TYR236     -0.0200
    141  CD1       15.5440  -41.2850  -29.6880 C.ar  236  TYR236     -0.0009
    142  CD2       14.1870  -41.1320  -27.7440 C.ar  236  TYR236     -0.0009
    143  CE1       14.4960  -40.8130  -30.4600 C.ar  236  TYR236      0.0417
    144  CE2       13.1370  -40.6580  -28.5040 C.ar  236  TYR236      0.0417
    145  CZ        13.2910  -40.5020  -29.8590 C.ar  236  TYR236      0.1957
    146  OH        12.2310  -40.0280  -30.6020 O.3   236  TYR236     -0.2866
    147  N         16.5440  -39.8030  -25.4170 N.am  237  LYS237     -0.1980
    148  CA        15.8690  -38.6320  -24.8580 C.3   237  LYS237      0.1596
    149  C         16.8170  -37.4690  -24.6130 C.2   237  LYS237      0.2287
    150  O         16.4710  -36.3310  -24.9780 O.2   237  LYS237     -0.2864
    151  CB        15.1250  -39.0160  -23.5780 C.3   237  LYS237      0.0298
    152  CG        13.9070  -39.8820  -23.8120 C.3   237  LYS237      0.0038
    153  CD        13.2400  -40.1900  -22.4980 C.3   237  LYS237      0.0206
    154  CE        12.0830  -41.1250  -22.6610 C.3   237  LYS237      0.1093
    155  NZ        11.5050  -41.3530  -21.3160 N.3   237  LYS237     -0.1314
    156  N         17.3360  -35.5310  -27.5630 N.3   240  VAL240     -0.1231
    157  CA        16.1630  -34.7840  -28.0060 C.3   240  VAL240      0.1692
    158  C         16.0780  -33.4480  -27.2800 C.2   240  VAL240      0.2592
    159  O         15.7370  -32.4220  -27.8800 O.2   240  VAL240     -0.2718
    160  CB        14.8860  -35.6240  -27.8220 C.3   240  VAL240      0.0266
    161  CG1       13.6570  -34.8060  -28.1730 C.3   240  VAL240      0.0020
    162  CG2       14.9540  -36.8680  -28.6940 C.3   240  VAL240      0.0020
    163  N         16.3890  -33.4350  -25.9810 N.am  241  TRP241     -0.1976
    164  CA        16.4990  -32.1700  -25.2630 C.3   241  TRP241      0.1640
    165  C         17.4030  -31.1890  -25.9860 C.2   241  TRP241      0.2290
    166  O         17.0750  -30.0040  -26.1040 O.2   241  TRP241     -0.2864
    167  CB        17.0190  -32.4050  -23.8510 C.3   241  TRP241      0.0576
    168  CG        15.9730  -32.7950  -22.8730 C.ar  241  TRP241      0.0006
    169  CD1       15.6390  -34.0540  -22.4730 C.ar  241  TRP241      0.0946
    170  CD2       15.1410  -31.9010  -22.1300 C.ar  241  TRP241      0.0152
    171  NE1       14.6400  -33.9970  -21.5290 N.ar  241  TRP241     -0.2442
    172  CE2       14.3210  -32.6840  -21.3000 C.ar  241  TRP241      0.0810
    173  CE3       15.0110  -30.5090  -22.0900 C.ar  241  TRP241      0.0012
    174  CZ2       13.3750  -32.1230  -20.4470 C.ar  241  TRP241      0.0191
    175  CZ3       14.0800  -29.9560  -21.2390 C.ar  241  TRP241      0.0001
    176  CH2       13.2720  -30.7600  -20.4300 C.ar  241  TRP241      0.0015
    177  N         15.7790  -29.8980  -29.2080 N.3   244  ILE244     -0.1245
    178  CA        14.8110  -28.8610  -28.8720 C.3   244  ILE244      0.1561
    179  C         15.5150  -27.5460  -28.5930 C.2   244  ILE244      0.2260
    180  O         15.1080  -26.4890  -29.0880 O.2   244  ILE244     -0.2867
    181  CB        13.9690  -29.3160  -27.6700 C.3   244  ILE244      0.0252
    182  CG1       13.1450  -30.5270  -28.0650 C.3   244  ILE244      0.0019
    183  CG2       13.0760  -28.1890  -27.1640 C.3   244  ILE244      0.0019
    184  CD1       12.6580  -31.2450  -26.9190 C.3   244  ILE244      0.0001
@<TRIPOS>BOND
     1    91    92    1
     2    92    93    1
     3    92    95    1
     4    93    94    2
     5    95    96    1
     6    96    98   ar
     7    96    97   ar
     8   102   103    1
     9    98   100   ar
    10    97    99   ar
    11   103   104    1
    12   103   106    1
    13   104   105    2
    14   100   101   ar
    15   106   107    1
    16   106   108    1
    17    99   101   ar
    18   146   145    1
    19   143   145   ar
    20   143   141   ar
    21   109   110    1
    22   145   144   ar
    23   141   140   ar
    24   120   117    1
    25   177   178    1
    26   180   179    2
    27    72    74   ar
    28    72    70   ar
    29   116   117    1
    30   116   111   am
    31   117   118    1
    32   110   111    1
    33   110   113    1
    34   111   112    2
    35   178   179    1
    36   178   181    1
    37   162   160    1
    38   144   142   ar
    39    74    73   ar
    40   140   142   ar
    41   140   139    1
    42   161   160    1
    43    70    69   ar
    44   182   181    1
    45   182   184    1
    46   157   160    1
    47   157   156    1
    48   157   158    1
    49   159   158    2
    50   134   133    1
    51   181   183    1
    52   118   121   am
    53   118   119    2
    54    62    60    1
    55   115   113    1
    56   113   114    1
    57   121   122    1
    58   139   136    1
    59    61    63    1
    60    61    60    1
    61   158   163   am
    62   136   137    1
    63   136   135    1
    64   138   137    2
    65    73    71   ar
    66   133   130    1
    67    59    58    2
    68    69    71   ar
    69    69    68    1
    70    60    57    1
    71   137   147   am
    72    57    58    1
    73    57    56    1
    74   122   123    1
    75   125   126    1
    76   125   123   am
    77   166   165    2
    78   129   130    1
    79   129   127   am
    80   165   164    1
    81   163   164    1
    82    52    51    2
    83    67    66    2
    84    68    65    1
    85    65    66    1
    86    65    64    1
    87   130   131    1
    88   126   127    1
    89   123   124    2
    90   147   148    1
    91   164   167    1
    92   127   128    2
    93   150   149    2
    94   131   132    2
    95   148   149    1
    96   148   151    1
    97    51    50    1
    98    53    54    1
    99    53    50    1
   100    53    55    1
   101    50    49    1
   102    82    80   am
   103   167   168    1
   104   152   151    1
   105   152   153    1
   106    79    80    1
   107    79    76    1
   108    35    37   ar
   109    35    33   ar
   110    80    81    2
   111    75    76    1
   112    37    36   ar
   113    76    77    1
   114   168   169   ar
   115   168   170   ar
   116    48    46    1
   117   154   153    1
   118   154   155    1
   119    33    32   ar
   120   169   171   ar
   121    45    44    2
   122    46    43    1
   123    46    47    1
   124    43    44    1
   125    43    42    1
   126   170   173   ar
   127   170   172   ar
   128   173   175   ar
   129    36    34   ar
   130    41    40    2
   131    77    78    2
   132    77    83   am
   133   171   172   ar
   134    42    40   am
   135    40    39    1
   136   172   174   ar
   137    32    34   ar
   138    32    31    1
   139   175   176   ar
   140    83    84    1
   141   174   176   ar
   142    39    38    1
   143    30    29    2
   144    31    28    1
   145    28    29    1
   146    28    27    1
   147    88    90    1
   148    88    87    1
   149    84    87    1
   150    84    85    1
   151    15    13   ar
   152    15    16   ar
   153    86    85    2
   154    87    89    1
   155    13    12   ar
   156    16    14   ar
   157    26    25    1
   158    20    19    2
   159    12    14   ar
   160    12    11    1
   161    24    23    2
   162    22    25    1
   163    22    23    1
   164    22    21    1
   165    19    21   am
   166    19    18    1
   167    11     8    1
   168     4     3    2
   169     8     9    1
   170     8     7    1
   171    18    17    1
   172    10     9    2
   173     3     7   am
   174     3     2    1
   175     1     2    1
   176     2     5    1
   177     5     6    1
