@<TRIPOS>MOLECULE
tmp/6cq9A03.pdb
 97 94 0 0 0
SMALL
GASTEIGER

@<TRIPOS>ATOM
      1  N          3.0520   -1.4080   27.9340 N.3   136  LEU136     -0.1245
      2  CA         3.3720   -1.5230   26.5160 C.3   136  LEU136      0.1561
      3  C          2.3440   -0.7950   25.6570 C.2   136  LEU136      0.2260
      4  O          2.6910   -0.2060   24.6270 O.2   136  LEU136     -0.2867
      5  CB         3.4570   -2.9970   26.1190 C.3   136  LEU136      0.0270
      6  CG         3.8570   -3.2880   24.6730 C.3   136  LEU136      0.0019
      7  CD1        5.2550   -2.7590   24.3890 C.3   136  LEU136      0.0001
      8  CD2        3.7770   -4.7810   24.3920 C.3   136  LEU136      0.0001
      9  N          3.1980    2.9190   25.8780 N.3   139  ILE139     -0.1245
     10  CA         4.4070    3.1190   25.0810 C.3   139  ILE139      0.1561
     11  C          4.0460    3.2320   23.6060 C.2   139  ILE139      0.2260
     12  O          4.5170    4.1260   22.8930 O.2   139  ILE139     -0.2867
     13  CB         5.4110    1.9790   25.3260 C.3   139  ILE139      0.0252
     14  CG1        5.8810    1.9780   26.7820 C.3   139  ILE139      0.0019
     15  CG2        6.5940    2.0940   24.3750 C.3   139  ILE139      0.0019
     16  CD1        6.6750    0.7450   27.1630 C.3   139  ILE139      0.0001
     17  N          9.2960   -7.1360   16.2770 N.3   176  LEU176     -0.1231
     18  CA         9.9600   -7.1990   17.5760 C.3   176  LEU176      0.1693
     19  C          9.6610   -8.5110   18.2900 C.2   176  LEU176      0.2592
     20  O         10.5730   -9.1870   18.7780 O.2   176  LEU176     -0.2718
     21  CB         9.5290   -6.0160   18.4440 C.3   176  LEU176      0.0284
     22  CG        10.1770   -4.6580   18.1760 C.3   176  LEU176      0.0019
     23  CD1        9.6780   -4.0690   16.8670 C.3   176  LEU176      0.0001
     24  CD2        9.9030   -3.7100   19.3320 C.3   176  LEU176      0.0001
     25  N          8.3860   -8.8880   18.3580 N.am  177  PHE177     -0.1976
     26  CA         7.9490   -9.9640   19.2350 C.3   177  PHE177      0.1639
     27  C          7.8780  -11.3170   18.5410 C.2   177  PHE177      0.2290
     28  O          7.7130  -12.3350   19.2230 O.2   177  PHE177     -0.2864
     29  CB         6.5810   -9.6160   19.8260 C.3   177  PHE177      0.0560
     30  CG         6.5690   -8.3160   20.5730 C.ar  177  PHE177     -0.0200
     31  CD1        7.0690   -8.2320   21.8600 C.ar  177  PHE177     -0.0042
     32  CD2        6.0690   -7.1700   19.9780 C.ar  177  PHE177     -0.0042
     33  CE1        7.0640   -7.0310   22.5390 C.ar  177  PHE177     -0.0003
     34  CE2        6.0590   -5.9670   20.6540 C.ar  177  PHE177     -0.0003
     35  CZ         6.5560   -5.8980   21.9380 C.ar  177  PHE177     -0.0000
     36  N         12.2620  -11.0240   15.3560 N.3   180  LEU180     -0.1231
     37  CA        13.5350  -10.9990   16.0650 C.3   180  LEU180      0.1678
     38  C         13.7380  -12.2820   16.8620 C.2   180  LEU180      0.2434
     39  O         14.7170  -13.0030   16.6330 O.2   180  LEU180     -0.2733
     40  CB        13.6170   -9.7830   16.9910 C.3   180  LEU180      0.0284
     41  CG        13.6720   -8.4060   16.3270 C.3   180  LEU180      0.0019
     42  CD1       13.6590   -7.3060   17.3790 C.3   180  LEU180      0.0001
     43  CD2       14.8960   -8.2870   15.4330 C.3   180  LEU180      0.0001
     44  N         12.8400  -12.6090   17.7970 N.am  181  PRO181     -0.2729
     45  CA        13.0500  -13.8270   18.5960 C.3   181  PRO181      0.1401
     46  C         13.1320  -15.0850   17.7500 C.2   181  PRO181      0.2269
     47  O         13.9040  -15.9950   18.0750 O.2   181  PRO181     -0.2865
     48  CB        11.8390  -13.8380   19.5380 C.3   181  PRO181      0.0296
     49  CG        10.7970  -13.0470   18.8250 C.3   181  PRO181      0.0237
     50  CD        11.5390  -11.9770   18.0790 C.3   181  PRO181      0.0939
     51  N         16.6080  -15.2120   16.4260 N.3   184  ILE184     -0.1245
     52  CA        17.5100  -15.6410   17.4920 C.3   184  ILE184      0.1561
     53  C         17.3300  -17.1250   17.7820 C.2   184  ILE184      0.2260
     54  O         18.3080  -17.8630   17.9530 O.2   184  ILE184     -0.2867
     55  CB        17.2850  -14.7840   18.7510 C.3   184  ILE184      0.0252
     56  CG1       17.6310  -13.3200   18.4670 C.3   184  ILE184      0.0019
     57  CG2       18.1000  -15.3200   19.9180 C.3   184  ILE184      0.0019
     58  CD1       17.1920  -12.3650   19.5550 C.3   184  ILE184      0.0001
     59  N         16.6350  -13.6320   28.8630 N.3   228  VAL228     -0.1245
     60  CA        16.0450  -12.7800   27.8360 C.3   228  VAL228      0.1561
     61  C         14.7550  -13.3820   27.2900 C.2   228  VAL228      0.2260
     62  O         13.8560  -12.6460   26.8670 O.2   228  VAL228     -0.2867
     63  CB        17.0590  -12.5190   26.7100 C.3   228  VAL228      0.0252
     64  CG1       16.4170  -11.7080   25.5960 C.3   228  VAL228      0.0019
     65  CG2       18.2830  -11.8020   27.2570 C.3   228  VAL228      0.0019
     66  N         11.8520  -12.3960   29.6880 N.3   231  PHE231     -0.1227
     67  CA        11.3410  -11.0610   29.3940 C.3   231  PHE231      0.1736
     68  C         10.5370  -11.0560   28.1010 C.2   231  PHE231      0.2595
     69  O          9.4690  -10.4380   28.0250 O.2   231  PHE231     -0.2718
     70  CB        12.4950  -10.0640   29.3130 C.3   231  PHE231      0.0547
     71  CG        12.0570   -8.6540   29.0530 C.ar  231  PHE231     -0.0202
     72  CD1       11.5020   -7.8920   30.0650 C.ar  231  PHE231     -0.0042
     73  CD2       12.1950   -8.0920   27.7950 C.ar  231  PHE231     -0.0042
     74  CE1       11.0960   -6.5930   29.8300 C.ar  231  PHE231     -0.0003
     75  CE2       11.7910   -6.7930   27.5530 C.ar  231  PHE231     -0.0003
     76  CZ        11.2410   -6.0430   28.5730 C.ar  231  PHE231     -0.0000
     77  N         11.0390  -11.7390   27.0710 N.am  232  TRP232     -0.1976
     78  CA        10.2760  -11.8940   25.8370 C.3   232  TRP232      0.1640
     79  C          8.8870  -12.4570   26.1030 C.2   232  TRP232      0.2290
     80  O          7.9050  -12.0210   25.4910 O.2   232  TRP232     -0.2864
     81  CB        11.0340  -12.7960   24.8690 C.3   232  TRP232      0.0576
     82  CG        10.1920  -13.2600   23.7340 C.ar  232  TRP232      0.0006
     83  CD1        9.6630  -12.5010   22.7310 C.ar  232  TRP232      0.0946
     84  CD2        9.7440  -14.5990   23.5040 C.ar  232  TRP232      0.0152
     85  NE1        8.9270  -13.2910   21.8790 N.ar  232  TRP232     -0.2442
     86  CE2        8.9610  -14.5840   22.3340 C.ar  232  TRP232      0.0810
     87  CE3        9.9370  -15.8120   24.1730 C.ar  232  TRP232      0.0012
     88  CZ2        8.3720  -15.7340   21.8170 C.ar  232  TRP232      0.0191
     89  CZ3        9.3520  -16.9530   23.6580 C.ar  232  TRP232      0.0001
     90  CH2        8.5780  -16.9060   22.4920 C.ar  232  TRP232      0.0015
     91  N          6.5090   -9.9160   27.9300 N.3   235  VAL235     -0.1245
     92  CA         6.0190   -8.9180   26.9890 C.3   235  VAL235      0.1561
     93  C          5.3940   -9.5850   25.7690 C.2   235  VAL235      0.2260
     94  O          4.4990   -9.0150   25.1360 O.2   235  VAL235     -0.2867
     95  CB         7.1560   -7.9630   26.5900 C.3   235  VAL235      0.0252
     96  CG1        6.6470   -6.9140   25.6210 C.3   235  VAL235      0.0019
     97  CG2        7.7600   -7.3110   27.8230 C.3   235  VAL235      0.0019
@<TRIPOS>BOND
     1    36    37    1
     2    43    41    1
     3    37    38    1
     4    37    40    1
     5    17    18    1
     6    41    40    1
     7    41    42    1
     8    51    52    1
     9    39    38    2
    10    38    44   am
    11    23    22    1
    12    52    53    1
    13    52    55    1
    14    18    19    1
    15    18    21    1
    16    46    47    2
    17    46    45    1
    18    53    54    2
    19    44    50    1
    20    44    45    1
    21    50    49    1
    22    22    21    1
    23    22    24    1
    24    19    25   am
    25    19    20    2
    26    25    26    1
    27    56    55    1
    28    56    58    1
    29    27    28    2
    30    27    26    1
    31    45    48    1
    32    55    57    1
    33    49    48    1
    34    26    29    1
    35    29    30    1
    36    32    30   ar
    37    32    34   ar
    38    30    31   ar
    39    34    35   ar
    40    88    86   ar
    41    88    90   ar
    42    31    33   ar
    43    85    86   ar
    44    85    83   ar
    45    35    33   ar
    46    86    84   ar
    47    90    89   ar
    48    83    82   ar
    49    12    11    2
    50    84    82   ar
    51    84    87   ar
    52    11    10    1
    53    89    87   ar
    54    82    81    1
    55    15    13    1
    56     7     6    1
    57     8     6    1
    58     4     3    2
    59     6     5    1
    60    81    78    1
    61    10    13    1
    62    10     9    1
    63    94    93    2
    64    13    14    1
    65    80    79    2
    66    64    63    1
    67    96    95    1
    68     3     2    1
    69    93    92    1
    70    78    79    1
    71    78    77    1
    72     5     2    1
    73     2     1    1
    74    95    92    1
    75    95    97    1
    76    63    65    1
    77    63    60    1
    78    14    16    1
    79    62    61    2
    80    92    91    1
    81    77    68   am
    82    61    60    1
    83    75    73   ar
    84    75    76   ar
    85    73    71   ar
    86    60    59    1
    87    69    68    2
    88    68    67    1
    89    76    74   ar
    90    71    70    1
    91    71    72   ar
    92    70    67    1
    93    67    66    1
    94    74    72   ar
