@<TRIPOS>MOLECULE
tmp/6cq9A01.pdb
 105 97 0 0 0
SMALL
GASTEIGER

@<TRIPOS>ATOM
      1  N        -25.8630  -20.5020   17.6700 N.3    15  THR15      -0.1203
      2  CA       -25.2550  -20.3120   16.3560 C.3    15  THR15       0.1994
      3  C        -23.7340  -20.3350   16.4500 C.2    15  THR15       0.2617
      4  O        -23.0630  -21.0430   15.6910 O.2    15  THR15      -0.2717
      5  CB       -25.7390  -19.0010   15.7340 C.3    15  THR15       0.1784
      6  OG1      -25.3540  -17.9020   16.5680 O.3    15  THR15      -0.2211
      7  CG2      -27.2530  -19.0090   15.5820 C.3    15  THR15       0.0376
      8  N        -23.1710  -19.5620   17.3810 N.am   16  ILE16      -0.1979
      9  CA       -21.7230  -19.5620   17.5630 C.3    16  ILE16       0.1595
     10  C        -21.2330  -20.9660   17.8920 C.2    16  ILE16       0.2287
     11  O        -20.1960  -21.4130   17.3860 O.2    16  ILE16      -0.2864
     12  CB       -21.3200  -18.5470   18.6480 C.3    16  ILE16       0.0276
     13  CG1      -21.7240  -17.1340   18.2270 C.3    16  ILE16       0.0022
     14  CG2      -19.8250  -18.6170   18.9120 C.3    16  ILE16       0.0022
     15  CD1      -21.6110  -16.1130   19.3380 C.3    16  ILE16       0.0001
     16  N        -20.9820  -22.7030   14.6660 N.3    19  VAL19      -0.1245
     17  CA       -19.8140  -22.1650   13.9740 C.3    19  VAL19       0.1561
     18  C        -18.5400  -22.7880   14.5250 C.2    19  VAL19       0.2260
     19  O        -17.6130  -23.1180   13.7750 O.2    19  VAL19      -0.2867
     20  CB       -19.7880  -20.6290   14.0850 C.3    19  VAL19       0.0252
     21  CG1      -18.5150  -20.0750   13.4630 C.3    19  VAL19       0.0019
     22  CG2      -21.0220  -20.0310   13.4260 C.3    19  VAL19       0.0019
     23  N        -18.5880  -26.4860   13.6420 N.3    22  LEU22      -0.1231
     24  CA       -18.2350  -26.5270   12.2290 C.3    22  LEU22       0.1693
     25  C        -16.7640  -26.1870   12.0250 C.2    22  LEU22       0.2592
     26  O        -16.0850  -26.8050   11.1980 O.2    22  LEU22      -0.2718
     27  CB       -19.1380  -25.5740   11.4440 C.3    22  LEU22       0.0284
     28  CG       -19.1020  -25.6110    9.9150 C.3    22  LEU22       0.0019
     29  CD1      -20.4510  -25.1970    9.3520 C.3    22  LEU22       0.0001
     30  CD2      -18.0080  -24.7070    9.3790 C.3    22  LEU22       0.0001
     31  N        -16.2520  -25.2160   12.7850 N.am   23  TYR23      -0.1976
     32  CA       -14.8380  -24.8700   12.6880 C.3    23  TYR23       0.1639
     33  C        -13.9620  -26.0480   13.0940 C.2    23  TYR23       0.2290
     34  O        -12.8830  -26.2580   12.5260 O.2    23  TYR23      -0.2864
     35  CB       -14.5370  -23.6480   13.5590 C.3    23  TYR23       0.0560
     36  CG       -13.1330  -23.1020   13.4110 C.ar   23  TYR23      -0.0198
     37  CD1      -12.7830  -22.3310   12.3110 C.ar   23  TYR23      -0.0009
     38  CD2      -12.1610  -23.3510   14.3700 C.ar   23  TYR23      -0.0009
     39  CE1      -11.5050  -21.8250   12.1690 C.ar   23  TYR23       0.0417
     40  CE2      -10.8790  -22.8470   14.2380 C.ar   23  TYR23       0.0417
     41  CZ       -10.5560  -22.0870   13.1330 C.ar   23  TYR23       0.1957
     42  OH        -9.2810  -21.5860   12.9940 O.3    23  TYR23      -0.2866
     43  N        -14.0330  -28.7820   10.1570 N.3    26  ILE26      -0.1231
     44  CA       -13.1690  -28.3590    9.0550 C.3    26  ILE26       0.1692
     45  C        -11.7070  -28.6100    9.4050 C.2    26  ILE26       0.2592
     46  O        -10.9760  -29.2820    8.6690 O.2    26  ILE26      -0.2718
     47  CB       -13.4160  -26.8790    8.7120 C.3    26  ILE26       0.0266
     48  CG1      -14.8420  -26.6780    8.1970 C.3    26  ILE26       0.0019
     49  CG2      -12.3930  -26.3890    7.6970 C.3    26  ILE26       0.0020
     50  CD1      -15.2360  -25.2250    8.0680 C.3    26  ILE26       0.0001
     51  N        -11.2610  -28.0700   10.5410 N.am   27  GLY27      -0.1957
     52  CA        -9.8710  -28.2400   10.9290 C.3    27  GLY27       0.1869
     53  C         -9.4860  -29.6950   11.1130 C.2    27  GLY27       0.2309
     54  O         -8.4180  -30.1250   10.6700 O.2    27  GLY27      -0.2863
     55  N         -8.6520  -31.1220    7.8490 N.3    30  VAL30      -0.1245
     56  CA        -7.4500  -30.5640    7.2390 C.3    30  VAL30       0.1561
     57  C         -6.2000  -31.1370    7.8930 C.2    30  VAL30       0.2260
     58  O         -5.2200  -31.4600    7.2110 O.2    30  VAL30      -0.2867
     59  CB        -7.4750  -29.0270    7.3100 C.3    30  VAL30       0.0252
     60  CG1       -6.1780  -28.4500    6.7620 C.3    30  VAL30       0.0019
     61  CG2       -8.6700  -28.4820    6.5460 C.3    30  VAL30       0.0019
     62  N        -13.8150  -10.2870   14.1230 N.3   251  LEU251     -0.1245
     63  CA       -14.8550  -11.2870   13.9130 C.3   251  LEU251      0.1561
     64  C        -16.2360  -10.7270   14.2300 C.2   251  LEU251      0.2260
     65  O        -17.1980  -10.9880   13.4980 O.2   251  LEU251     -0.2867
     66  CB       -14.5630  -12.5260   14.7590 C.3   251  LEU251      0.0270
     67  CG       -13.2660  -13.2640   14.4140 C.3   251  LEU251      0.0019
     68  CD1      -13.0200  -14.4160   15.3790 C.3   251  LEU251      0.0001
     69  CD2      -13.2820  -13.7540   12.9740 C.3   251  LEU251      0.0001
     70  N        -17.0200   -8.4710   11.2320 N.3   254  ILE254     -0.1231
     71  CA       -17.4150   -9.3150   10.1090 C.3   254  ILE254      0.1692
     72  C        -18.7140  -10.0470   10.4080 C.2   254  ILE254      0.2591
     73  O        -19.5040  -10.3240    9.4960 O.2   254  ILE254     -0.2718
     74  CB       -16.2830  -10.3000    9.7590 C.3   254  ILE254      0.0266
     75  CG1      -15.0760   -9.5460    9.1960 C.3   254  ILE254      0.0019
     76  CG2      -16.7790  -11.3670    8.7950 C.3   254  ILE254      0.0020
     77  CD1      -13.8340  -10.3980    9.0490 C.3   254  ILE254      0.0001
     78  N        -18.8360  -10.6550   11.5710 N.am  255  ALA255     -0.1980
     79  CA       -20.0400  -11.4600   11.7780 C.3   255  ALA255      0.1597
     80  C        -21.2980  -10.6970   11.3640 C.2   255  ALA255      0.2287
     81  O        -22.2830  -11.2990   10.9130 O.2   255  ALA255     -0.2864
     82  CB       -20.1190  -11.8900   13.2380 C.3   255  ALA255      0.0319
     83  N        -21.6490  -10.4180    7.2400 N.3   258  THR258     -0.1203
     84  CA       -22.2130  -11.6420    6.6770 C.3   258  THR258      0.1994
     85  C        -23.6680  -11.8330    7.0860 C.2   258  THR258      0.2617
     86  O        -24.4670  -12.3680    6.3080 O.2   258  THR258     -0.2717
     87  CB       -21.3820  -12.8540    7.1070 C.3   258  THR258      0.1784
     88  OG1      -21.3770  -12.9490    8.5360 O.3   258  THR258     -0.2211
     89  CG2      -19.9490  -12.7280    6.6050 C.3   258  THR258      0.0376
     90  N        -24.0340  -11.3910    8.2890 N.am  259  LYS259     -0.1979
     91  CA       -25.3900  -11.5960    8.7780 C.3   259  LYS259      0.1596
     92  C        -26.3910  -10.6980    8.0580 C.2   259  LYS259      0.2287
     93  O        -27.5520  -11.0840    7.8720 O.2   259  LYS259     -0.2864
     94  CB       -25.4110  -11.3660   10.2870 C.3   259  LYS259      0.0298
     95  CG       -26.7540  -11.5480   10.9420 C.3   259  LYS259      0.0038
     96  CD       -26.5910  -11.5530   12.4500 C.3   259  LYS259      0.0206
     97  CE       -27.9370  -11.4760   13.1380 C.3   259  LYS259      0.1093
     98  NZ       -28.7890  -12.6610   12.8520 N.3   259  LYS259     -0.1314
     99  N        -26.5010  -11.8730    4.3240 N.3   262  VAL262     -0.1245
    100  CA       -27.5110  -12.9180    4.1870 C.3   262  VAL262      0.1561
    101  C        -28.9120  -12.3170    4.1770 C.2   262  VAL262      0.2260
    102  O        -29.8050  -12.8200    3.4830 O.2   262  VAL262     -0.2867
    103  CB       -27.3550  -13.9700    5.3020 C.3   262  VAL262      0.0252
    104  CG1      -28.5160  -14.9590    5.2730 C.3   262  VAL262      0.0019
    105  CG2      -26.0250  -14.7030    5.1620 C.3   262  VAL262      0.0019
@<TRIPOS>BOND
     1   102   101    2
     2   101   100    1
     3   100    99    1
     4   100   103    1
     5   105   103    1
     6   104   103    1
     7    86    85    2
     8    61    59    1
     9    89    87    1
    10    84    85    1
    11    84    87    1
    12    84    83    1
    13    60    59    1
    14    85    90   am
    15    87    88    1
    16    58    57    2
    17    56    59    1
    18    56    55    1
    19    56    57    1
    20    49    47    1
    21    93    92    2
    22    92    91    1
    23    50    48    1
    24    48    47    1
    25    90    91    1
    26    46    45    2
    27    47    44    1
    28    91    94    1
    29    76    74    1
    30    77    75    1
    31    44    45    1
    32    44    43    1
    33    75    74    1
    34    29    28    1
    35    30    28    1
    36    45    51   am
    37    73    72    2
    38    74    71    1
    39    28    27    1
    40    71    72    1
    41    71    70    1
    42    94    95    1
    43    72    78   am
    44    51    52    1
    45    54    53    2
    46    81    80    2
    47    52    53    1
    48    95    96    1
    49    26    25    2
    50    80    79    1
    51    27    24    1
    52    78    79    1
    53    79    82    1
    54    25    24    1
    55    25    31   am
    56    39    37   ar
    57    39    41   ar
    58    24    23    1
    59    37    36   ar
    60    96    97    1
    61    34    33    2
    62    32    31    1
    63    32    33    1
    64    32    35    1
    65    98    97    1
    66    69    67    1
    67    42    41    1
    68    41    40   ar
    69    36    35    1
    70    36    38   ar
    71    22    20    1
    72    21    20    1
    73    65    64    2
    74    19    18    2
    75    63    62    1
    76    63    64    1
    77    63    66    1
    78    17    20    1
    79    17    18    1
    80    17    16    1
    81    40    38   ar
    82    67    66    1
    83    67    68    1
    84     7     5    1
    85     4     3    2
    86     5     2    1
    87     5     6    1
    88     2     3    1
    89     2     1    1
    90     3     8   am
    91     8     9    1
    92    11    10    2
    93     9    10    1
    94     9    12    1
    95    13    12    1
    96    13    15    1
    97    12    14    1
