@<TRIPOS>MOLECULE
tmp/6cq9A00.pdb
 172 165 0 0 0
SMALL
GASTEIGER

@<TRIPOS>ATOM
      1  N         16.5230  -32.2910   35.4330 N.3    81  HIS81      -0.1241
      2  CA        15.5750  -31.2890   34.9710 C.3    81  HIS81       0.1621
      3  C         14.6670  -30.7750   36.0810 C.2    81  HIS81       0.2264
      4  O         13.7780  -29.9620   35.8090 O.2    81  HIS81      -0.2867
      5  CB        14.7350  -31.8460   33.8160 C.3    81  HIS81       0.0745
      6  CG        14.0160  -33.1160   34.1480 C.ar   81  HIS81       0.0817
      7  ND1       12.7910  -33.1390   34.7790 N.ar   81  HIS81      -0.2268
      8  CD2       14.3460  -34.4090   33.9200 C.ar   81  HIS81       0.1154
      9  CE1       12.4020  -34.3910   34.9340 C.ar   81  HIS81       0.1986
     10  NE2       13.3270  -35.1820   34.4210 N.ar   81  HIS81      -0.2212
     11  N         17.2160  -24.3990   38.4630 N.3    85  GLY85      -0.1210
     12  CA        16.9180  -23.6080   37.2850 C.3    85  GLY85       0.1956
     13  C         15.7160  -24.0860   36.4980 C.2    85  GLY85       0.2612
     14  O         14.9290  -23.2750   36.0000 O.2    85  GLY85      -0.2717
     15  N         15.5620  -25.4060   36.3740 N.am   86  SER86      -0.1952
     16  CA        14.4700  -25.9530   35.5770 C.3    86  SER86       0.1924
     17  C         13.1310  -25.8330   36.2960 C.2    86  SER86       0.2314
     18  O         12.1040  -25.5730   35.6590 O.2    86  SER86      -0.2863
     19  CB        14.7610  -27.4120   35.2250 C.3    86  SER86       0.2116
     20  OG        15.9230  -27.5210   34.4220 O.3    86  SER86      -0.2180
     21  N         11.7670  -22.6270   35.8550 N.3    89  PHE89      -0.1241
     22  CA        11.1260  -22.6880   34.5470 C.3    89  PHE89       0.1605
     23  C          9.7460  -23.3250   34.6410 C.2    89  PHE89       0.2264
     24  O          8.7660  -22.7950   34.1040 O.2    89  PHE89      -0.2867
     25  CB        12.0190  -23.4630   33.5790 C.3    89  PHE89       0.0534
     26  CG        11.3830  -23.7490   32.2500 C.ar   89  PHE89      -0.0203
     27  CD1       11.2110  -22.7460   31.3140 C.ar   89  PHE89      -0.0042
     28  CD2       10.9730  -25.0330   31.9320 C.ar   89  PHE89      -0.0042
     29  CE1       10.6330  -23.0180   30.0920 C.ar   89  PHE89      -0.0003
     30  CE2       10.3950  -25.3090   30.7100 C.ar   89  PHE89      -0.0003
     31  CZ        10.2240  -24.2990   29.7890 C.ar   89  PHE89      -0.0000
     32  N          7.1020  -21.0130   35.9470 N.3    92  GLY92      -0.1210
     33  CA         6.6680  -20.0790   34.9200 C.3    92  GLY92       0.1956
     34  C          5.6340  -20.6840   33.9910 C.2    92  GLY92       0.2612
     35  O          4.6120  -20.0640   33.6880 O.2    92  GLY92      -0.2717
     36  N          5.8860  -21.9100   33.5280 N.am   93  THR93      -0.1952
     37  CA         4.9150  -22.5850   32.6730 C.3    93  THR93       0.1897
     38  C          3.5850  -22.7850   33.3860 C.2    93  THR93       0.2313
     39  O          2.5310  -22.7940   32.7410 O.2    93  THR93      -0.2863
     40  CB         5.4670  -23.9330   32.2050 C.3    93  THR93       0.1794
     41  OG1        5.7230  -24.7680   33.3410 O.3    93  THR93      -0.2208
     42  CG2        6.7560  -23.7400   31.4220 C.3    93  THR93       0.0378
     43  N          1.5990  -19.2270   33.8260 N.3    96  THR96      -0.1218
     44  CA         1.2600  -18.6430   32.5360 C.3    96  THR96       0.1862
     45  C          0.2820  -19.4980   31.7430 C.2    96  THR96       0.2287
     46  O         -0.1380  -19.0900   30.6550 O.2    96  THR96      -0.2866
     47  CB         2.5270  -18.4100   31.7050 C.3    96  THR96       0.1770
     48  OG1        3.2210  -19.6500   31.5260 O.3    96  THR96      -0.2211
     49  CG2        3.4410  -17.4110   32.3940 C.3    96  THR96       0.0375
     50  N          0.8910  -21.8890   30.0140 N.3    98  ILE98      -0.1245
     51  CA         1.5260  -22.4770   28.8390 C.3    98  ILE98       0.1561
     52  C          1.6500  -23.9850   29.0090 C.2    98  ILE98       0.2260
     53  O          1.2190  -24.7610   28.1480 O.2    98  ILE98      -0.2867
     54  CB         2.8930  -21.8210   28.5790 C.3    98  ILE98       0.0252
     55  CG1        2.7130  -20.3660   28.1440 C.3    98  ILE98       0.0019
     56  CG2        3.6760  -22.6160   27.5480 C.3    98  ILE98       0.0019
     57  CD1        4.0020  -19.5850   28.0730 C.3    98  ILE98       0.0001
     58  N          4.0820  -26.5150   28.9620 N.3   100  PHE100     -0.1241
     59  CA         4.6880  -27.3980   27.9710 C.3   100  PHE100      0.1605
     60  C          4.5900  -28.8570   28.3930 C.2   100  PHE100      0.2264
     61  O          4.4800  -29.7460   27.5410 O.2   100  PHE100     -0.2867
     62  CB         6.1490  -27.0140   27.7330 C.3   100  PHE100      0.0534
     63  CG         6.3270  -25.6750   27.0770 C.ar  100  PHE100     -0.0203
     64  CD1        6.1190  -25.5230   25.7150 C.ar  100  PHE100     -0.0042
     65  CD2        6.7180  -24.5720   27.8170 C.ar  100  PHE100     -0.0042
     66  CE1        6.2830  -24.2920   25.1060 C.ar  100  PHE100     -0.0003
     67  CE2        6.8870  -23.3390   27.2140 C.ar  100  PHE100     -0.0003
     68  CZ         6.6690  -23.1990   25.8560 C.ar  100  PHE100     -0.0000
     69  N          6.6080  -31.0560   29.2850 N.3   102  ASN102     -0.1225
     70  CA         7.7790  -31.9170   29.1710 C.3   102  ASN102      0.1785
     71  C          8.3240  -32.3040   30.5390 C.2   102  ASN102      0.2597
     72  O          8.8120  -33.4240   30.7230 O.2   102  ASN102     -0.2718
     73  CB         8.8580  -31.2250   28.3370 C.3   102  ASN102      0.1169
     74  CG         9.2950  -29.9010   28.9310 C.2   102  ASN102      0.2627
     75  OD1        8.8410  -29.5090   30.0060 O.2   102  ASN102     -0.2716
     76  ND2       10.1900  -29.2070   28.2370 N.am  102  ASN102     -0.0877
     77  N          8.2420  -31.3980   31.5080 N.am  103  ILE103     -0.1980
     78  CA         8.6110  -31.6700   32.8910 C.3   103  ILE103      0.1595
     79  C          7.3880  -31.3640   33.7430 C.2   103  ILE103      0.2287
     80  O          6.9590  -30.2050   33.8320 O.2   103  ILE103     -0.2864
     81  CB         9.8220  -30.8430   33.3410 C.3   103  ILE103      0.0276
     82  CG1       11.0510  -31.2080   32.5070 C.3   103  ILE103      0.0022
     83  CG2       10.0910  -31.0600   34.8220 C.3   103  ILE103      0.0022
     84  CD1       12.2140  -30.2550   32.6810 C.3   103  ILE103      0.0001
     85  N          7.1100  -22.2290   17.1860 N.3   199  PHE199     -0.1241
     86  CA         7.3140  -22.1020   18.6260 C.3   199  PHE199      0.1605
     87  C          6.7160  -20.8050   19.1550 C.2   199  PHE199      0.2264
     88  O          5.9820  -20.8040   20.1490 O.2   199  PHE199     -0.2867
     89  CB         8.8030  -22.1650   18.9530 C.3   199  PHE199      0.0534
     90  CG         9.1080  -21.9240   20.4000 C.ar  199  PHE199     -0.0203
     91  CD1        8.9350  -22.9260   21.3360 C.ar  199  PHE199     -0.0042
     92  CD2        9.5420  -20.6800   20.8300 C.ar  199  PHE199     -0.0042
     93  CE1        9.2090  -22.7000   22.6720 C.ar  199  PHE199     -0.0003
     94  CE2        9.8140  -20.4470   22.1640 C.ar  199  PHE199     -0.0003
     95  CZ         9.6480  -21.4590   23.0860 C.ar  199  PHE199     -0.0000
     96  N          3.5620  -20.8580   21.7750 N.3   203  THR203     -0.1218
     97  CA         3.9720  -20.4720   23.1220 C.3   203  THR203      0.1862
     98  C          3.2190  -19.2360   23.6060 C.2   203  THR203      0.2287
     99  O          2.5350  -19.2810   24.6320 O.2   203  THR203     -0.2866
    100  CB         5.4850  -20.2230   23.1630 C.3   203  THR203      0.1770
    101  OG1        6.1780  -21.4340   22.8390 O.3   203  THR203     -0.2211
    102  CG2        5.9130  -19.7490   24.5460 C.3   203  THR203      0.0375
    103  N         10.8330  -26.2620   22.8410 N.3   213  VAL213     -0.1231
    104  CA        11.0540  -25.5270   24.0810 C.3   213  VAL213      0.1692
    105  C         12.3880  -24.8030   23.9580 C.2   213  VAL213      0.2592
    106  O         13.4450  -25.4450   23.9170 O.2   213  VAL213     -0.2718
    107  CB        11.0430  -26.4460   25.3090 C.3   213  VAL213      0.0266
    108  CG1       11.3550  -25.6550   26.5700 C.3   213  VAL213      0.0020
    109  CG2        9.7010  -27.1500   25.4270 C.3   213  VAL213      0.0020
    110  N         12.3420  -23.4740   23.9000 N.am  214  ALA214     -0.1966
    111  CA        13.5620  -22.6770   23.8380 C.3   214  ALA214      0.1728
    112  C         14.3350  -22.8270   25.1430 C.2   214  ALA214      0.2617
    113  O         13.8110  -22.5260   26.2200 O.2   214  ALA214     -0.2715
    114  CB        13.2250  -21.2110   23.5710 C.3   214  ALA214      0.0334
    115  N         15.5780  -23.2940   25.0470 N.am  215  GLY215     -0.1940
    116  CA        16.3680  -23.6120   26.2120 C.3   215  GLY215      0.2014
    117  C         16.1720  -25.0140   26.7430 C.2   215  GLY215      0.2639
    118  O         16.9210  -25.4330   27.6380 O.2   215  GLY215     -0.2714
    119  N         15.1970  -25.7530   26.2180 N.am  216  GLY216     -0.1954
    120  CA        14.9380  -27.1070   26.6600 C.3   216  GLY216      0.1869
    121  C         15.9650  -28.1180   26.1930 C.2   216  GLY216      0.2309
    122  O         16.4180  -28.9470   26.9900 O.2   216  GLY216     -0.2863
    123  N         21.0780  -15.9270   27.7850 N.3   225  TYR225     -0.1227
    124  CA        20.0360  -16.3390   26.8510 C.3   225  TYR225      0.1736
    125  C         18.7200  -16.5980   27.5730 C.2   225  TYR225      0.2595
    126  O         17.6820  -16.0290   27.2190 O.2   225  TYR225     -0.2718
    127  CB        20.4860  -17.5790   26.0770 C.3   225  TYR225      0.0548
    128  CG        19.4590  -18.1230   25.1050 C.ar  225  TYR225     -0.0200
    129  CD1       19.1590  -17.4500   23.9260 C.ar  225  TYR225     -0.0009
    130  CD2       18.8050  -19.3230   25.3560 C.ar  225  TYR225     -0.0009
    131  CE1       18.2230  -17.9500   23.0340 C.ar  225  TYR225      0.0417
    132  CE2       17.8710  -19.8310   24.4700 C.ar  225  TYR225      0.0417
    133  CZ        17.5840  -19.1410   23.3110 C.ar  225  TYR225      0.1957
    134  OH        16.6550  -19.6460   22.4280 O.3   225  TYR225     -0.2866
    135  N         18.7480  -17.4470   28.5990 N.am  226  LYS226     -0.1980
    136  CA        17.5120  -17.7980   29.2970 C.3   226  LYS226      0.1596
    137  C         16.8130  -16.5860   29.8930 C.2   226  LYS226      0.2287
    138  O         15.5900  -16.4520   29.7100 O.2   226  LYS226     -0.2864
    139  CB        17.8130  -18.8540   30.3650 C.3   226  LYS226      0.0298
    140  CG        18.2760  -20.1810   29.7880 C.3   226  LYS226      0.0038
    141  CD        18.4960  -21.2160   30.8750 C.3   226  LYS226      0.0206
    142  CE        19.0470  -22.5090   30.2970 C.3   226  LYS226      0.1093
    143  NZ        18.0620  -23.2000   29.4210 N.3   226  LYS226     -0.1314
    144  N         14.6360  -14.7110   27.2820 N.3   229  VAL229     -0.1231
    145  CA        13.3970  -15.3320   26.8240 C.3   229  VAL229      0.1692
    146  C         12.2770  -15.0890   27.8280 C.2   229  VAL229      0.2592
    147  O         11.1260  -14.8490   27.4470 O.2   229  VAL229     -0.2718
    148  CB        13.6130  -16.8340   26.5620 C.3   229  VAL229      0.0266
    149  CG1       12.2920  -17.5050   26.2270 C.3   229  VAL229      0.0020
    150  CG2       14.6130  -17.0350   25.4320 C.3   229  VAL229      0.0020
    151  N         12.5930  -15.1530   29.1240 N.am  230  TRP230     -0.1976
    152  CA        11.6240  -14.7800   30.1510 C.3   230  TRP230      0.1640
    153  C         11.0100  -13.4170   29.8580 C.2   230  TRP230      0.2290
    154  O          9.7840  -13.2770   29.7820 O.2   230  TRP230     -0.2864
    155  CB        12.2930  -14.7850   31.5270 C.3   230  TRP230      0.0576
    156  CG        12.4930  -16.1500   32.1180 C.ar  230  TRP230      0.0006
    157  CD1       13.5780  -16.9630   31.9650 C.ar  230  TRP230      0.0946
    158  CD2       11.6020  -16.8360   33.0080 C.ar  230  TRP230      0.0152
    159  NE1       13.4040  -18.1250   32.6790 N.ar  230  TRP230     -0.2442
    160  CE2       12.2000  -18.0700   33.3310 C.ar  230  TRP230      0.0810
    161  CE3       10.3500  -16.5300   33.5520 C.ar  230  TRP230      0.0012
    162  CZ2       11.5890  -18.9980   34.1740 C.ar  230  TRP230      0.0191
    163  CZ3        9.7460  -17.4530   34.3890 C.ar  230  TRP230      0.0001
    164  CH2       10.3660  -18.6710   34.6920 C.ar  230  TRP230      0.0015
    165  N          8.7840  -13.4340   27.0030 N.3   233  ILE233     -0.1245
    166  CA         7.4930  -14.0590   27.2700 C.3   233  ILE233      0.1561
    167  C          6.5690  -13.0950   28.0020 C.2   233  ILE233      0.2260
    168  O          5.4040  -12.9240   27.6250 O.2   233  ILE233     -0.2867
    169  CB         7.6830  -15.3680   28.0510 C.3   233  ILE233      0.0252
    170  CG1        8.3260  -16.4120   27.1430 C.3   233  ILE233      0.0019
    171  CG2        6.3600  -15.8530   28.6200 C.3   233  ILE233      0.0019
    172  CD1        8.7620  -17.6290   27.8620 C.3   233  ILE233      0.0001
@<TRIPOS>BOND
     1    85    86    1
     2    86    89    1
     3    86    87    1
     4    89    90    1
     5    87    88    2
     6    90    92   ar
     7    90    91   ar
     8    92    94   ar
     9    91    93   ar
    10    96    97    1
    11    94    95   ar
    12   134   133    1
    13    93    95   ar
    14   101   100    1
    15   103   104    1
    16   131   133   ar
    17   131   129   ar
    18    97   100    1
    19    97    98    1
    20   100   102    1
    21   133   132   ar
    22   114   111    1
    23    98    99    2
    24   111   110    1
    25   111   112    1
    26   110   105   am
    27   106   105    2
    28   129   128   ar
    29   105   104    1
    30   104   107    1
    31   132   130   ar
    32   115   112   am
    33   115   116    1
    34   128   130   ar
    35   128   127    1
    36    66    64   ar
    37    66    68   ar
    38   112   113    2
    39   107   109    1
    40   107   108    1
    41   150   148    1
    42    64    63   ar
    43    68    67   ar
    44   127   124    1
    45   121   120    1
    46   121   122    2
    47   116   117    1
    48   119   120    1
    49   119   117   am
    50   149   148    1
    51   148   145    1
    52   117   118    2
    53   145   144    1
    54   145   146    1
    55   124   125    1
    56   124   123    1
    57   165   166    1
    58    63    62    1
    59    63    65   ar
    60   170   172    1
    61   170   169    1
    62    67    65   ar
    63   126   125    2
    64   166   167    1
    65   166   169    1
    66   147   146    2
    67    61    60    2
    68    56    54    1
    69   125   135   am
    70   168   167    2
    71    62    59    1
    72   146   151   am
    73    59    60    1
    74    59    58    1
    75   169   171    1
    76    57    55    1
    77    55    54    1
    78    53    52    2
    79    76    74   am
    80    73    74    1
    81    73    70    1
    82    54    51    1
    83   135   136    1
    84    51    52    1
    85    51    50    1
    86    74    75    2
    87   151   152    1
    88    70    69    1
    89    70    71    1
    90   136   137    1
    91   136   139    1
    92   143   142    1
    93   138   137    2
    94   154   153    2
    95   140   139    1
    96   140   141    1
    97    31    29   ar
    98    31    30   ar
    99   153   152    1
   100    29    27   ar
   101   152   155    1
   102   142   141    1
   103    71    72    2
   104    71    77   am
   105    46    45    2
   106    30    28   ar
   107    27    26   ar
   108    42    40    1
   109    77    78    1
   110    48    47    1
   111   155   156    1
   112    47    49    1
   113    47    44    1
   114    45    44    1
   115    28    26   ar
   116   157   156   ar
   117   157   159   ar
   118   156   158   ar
   119    40    37    1
   120    40    41    1
   121    26    25    1
   122    82    84    1
   123    82    81    1
   124    44    43    1
   125    37    38    1
   126    37    36    1
   127   159   160   ar
   128    39    38    2
   129    78    81    1
   130    78    79    1
   131   158   160   ar
   132   158   161   ar
   133   160   162   ar
   134    81    83    1
   135    36    34   am
   136   161   163   ar
   137    25    22    1
   138    35    34    2
   139    79    80    2
   140     5     6    1
   141     5     2    1
   142     8     6   ar
   143     8    10   ar
   144    34    33    1
   145    24    23    2
   146     6     7   ar
   147   162   164   ar
   148   163   164   ar
   149    10     9   ar
   150    20    19    1
   151    22    23    1
   152    22    21    1
   153     7     9   ar
   154    33    32    1
   155     2     1    1
   156     2     3    1
   157    19    16    1
   158    16    17    1
   159    16    15    1
   160    18    17    2
   161     4     3    2
   162    14    13    2
   163    15    13   am
   164    13    12    1
   165    12    11    1
