@<TRIPOS>MOLECULE
tmp/6cqaA00.pdb
 174 168 0 0 0
SMALL
GASTEIGER

@<TRIPOS>ATOM
      1  N         21.8530   21.3360    1.7980 N.3     5  ILE5       -0.1231
      2  CA        21.6840   21.6730    3.2060 C.3     5  ILE5        0.1692
      3  C         20.3410   21.1280    3.6980 C.2     5  ILE5        0.2592
      4  O         19.3140   21.3120    3.0400 O.2     5  ILE5       -0.2718
      5  CB        21.7730   23.1980    3.4410 C.3     5  ILE5        0.0266
      6  CG1       21.7380   23.5080    4.9320 C.3     5  ILE5        0.0019
      7  CG2       20.6500   23.9370    2.7130 C.3     5  ILE5        0.0020
      8  CD1       22.2050   24.8880    5.2540 C.3     5  ILE5        0.0001
      9  N         20.3520   20.4510    4.8480 N.am    6  ALA6       -0.1966
     10  CA        19.1540   19.7760    5.3530 C.3     6  ALA6        0.1728
     11  C         19.1950   19.5580    6.8660 C.2     6  ALA6        0.2616
     12  O         20.2620   19.3280    7.4330 O.2     6  ALA6       -0.2715
     13  CB        18.9830   18.4500    4.6590 C.3     6  ALA6        0.0334
     14  N         18.0250   19.6360    7.5010 N.am    7  ALA7       -0.1977
     15  CA        17.8600   19.2410    8.9020 C.3     7  ALA7        0.1597
     16  C         17.2850   17.8310    8.9550 C.2     7  ALA7        0.2287
     17  O         16.2180   17.5610    8.4000 O.2     7  ALA7       -0.2864
     18  CB        16.9600   20.2180    9.6460 C.3     7  ALA7        0.0319
     19  N          9.2290   19.3570    6.8500 N.3    16  MET16      -0.1230
     20  CA         9.2510   20.7960    6.6340 C.3    16  MET16       0.1702
     21  C          7.9830   21.4760    7.1220 C.2    16  MET16       0.2592
     22  O          6.9530   21.4660    6.4460 O.2    16  MET16      -0.2718
     23  CB         9.4790   21.1160    5.1550 C.3    16  MET16       0.0401
     24  CG        10.9010   21.5670    4.8420 C.3    16  MET16       0.0596
     25  SD        11.5180   22.7930    6.0260 S.3    16  MET16      -0.1393
     26  CE        12.3430   21.7710    7.2530 C.3    16  MET16       0.0692
     27  N          8.0800   22.0710    8.3040 N.am   17  GLU17      -0.1966
     28  CA         7.0050   22.8740    8.8640 C.3    17  GLU17       0.1733
     29  C          7.5840   23.9320    9.7890 C.2    17  GLU17       0.2616
     30  O          8.7490   23.8570   10.1750 O.2    17  GLU17      -0.2715
     31  CB         6.0060   22.0010    9.6260 C.3    17  GLU17       0.0429
     32  CG         5.2020   21.0580    8.7500 C.3    17  GLU17       0.1163
     33  CD         4.0890   20.3640    9.5100 C.2    17  GLU17       0.3649
     34  OE1        3.8820   20.6930   10.6980 O.co2  17  GLU17      -0.2457
     35  OE2        3.4200   19.4890    8.9190 O.co2  17  GLU17      -0.2457
     36  N          6.7670   24.9210   10.1390 N.am   18  ASN18      -0.1972
     37  CA         7.1370   25.8820   11.1690 C.3    18  ASN18       0.1688
     38  C          6.8010   25.3170   12.5430 C.2    18  ASN18       0.2292
     39  O          6.4260   26.0540   13.4540 O.2    18  ASN18      -0.2864
     40  CB         6.4310   27.2270   10.9560 C.3    18  ASN18       0.1181
     41  CG         6.9250   27.9650    9.7180 C.2    18  ASN18       0.2629
     42  OD1        8.0250   27.7100    9.2230 O.2    18  ASN18      -0.2716
     43  ND2        6.1130   28.8930    9.2190 N.am   18  ASN18      -0.0877
     44  N         11.5970   20.8900   13.3740 N.3    22  TRP22      -0.1241
     45  CA        12.4750   21.5120   12.3880 C.3    22  TRP22       0.1605
     46  C         12.4130   23.0300   12.4390 C.2    22  TRP22       0.2264
     47  O         12.8380   23.7080   11.5020 O.2    22  TRP22      -0.2867
     48  CB        12.1240   21.0380   10.9760 C.3    22  TRP22       0.0550
     49  CG        12.2790   19.5650   10.7790 C.ar   22  TRP22       0.0003
     50  CD1       13.4480   18.8610   10.7290 C.ar   22  TRP22       0.0946
     51  CD2       11.2290   18.6110   10.6000 C.ar   22  TRP22       0.0152
     52  NE1       13.1900   17.5240   10.5350 N.ar   22  TRP22      -0.2442
     53  CE2       11.8320   17.3440   10.4520 C.ar   22  TRP22       0.0810
     54  CE3        9.8320   18.7020   10.5520 C.ar   22  TRP22       0.0012
     55  CZ2       11.0930   16.1820   10.2600 C.ar   22  TRP22       0.0191
     56  CZ3        9.0980   17.5460   10.3600 C.ar   22  TRP22       0.0001
     57  CH2        9.7290   16.3030   10.2160 C.ar   22  TRP22       0.0015
     58  N         19.0530   26.1840   14.2910 N.3    27  ASP27      -0.1225
     59  CA        19.1750   25.5530   12.9750 C.3    27  ASP27       0.1805
     60  C         18.7830   26.5460   11.8880 C.2    27  ASP27       0.2597
     61  O         19.3250   26.5210   10.7850 O.2    27  ASP27      -0.2718
     62  CB        18.3110   24.2940   12.8770 C.3    27  ASP27       0.1424
     63  CG        18.2470   23.7370   11.4640 C.2    27  ASP27       0.3668
     64  OD1       19.2670   23.2050   10.9700 O.co2  27  ASP27      -0.2456
     65  OD2       17.1650   23.8190   10.8490 O.co2  27  ASP27      -0.2456
     66  N         17.8550   27.4350   12.2140 N.am   28  LEU28      -0.1979
     67  CA        17.4470   28.4690   11.2940 C.3    28  LEU28       0.1596
     68  C         18.6150   29.4150   11.0310 C.2    28  LEU28       0.2287
     69  O         18.9000   29.7580    9.8820 O.2    28  LEU28      -0.2864
     70  CB        16.2420   29.2290   11.8400 C.3    28  LEU28       0.0297
     71  CG        15.4780   30.0480   10.7980 C.3    28  LEU28       0.0022
     72  CD1       14.7770   29.1410    9.7860 C.3    28  LEU28       0.0001
     73  CD2       14.4750   30.9940   11.4580 C.3    28  LEU28       0.0001
     74  N         21.8060   28.8940   11.3750 N.3    30  TRP30      -0.1227
     75  CA        22.8080   28.1630   10.6200 C.3    30  TRP30       0.1737
     76  C         22.4520   28.1450    9.1470 C.2    30  TRP30       0.2595
     77  O         23.3020   28.3460    8.2880 O.2    30  TRP30      -0.2718
     78  CB        22.9070   26.7560   11.1910 C.3    30  TRP30       0.0564
     79  CG        23.5060   25.6750   10.3450 C.ar   30  TRP30       0.0003
     80  CD1       22.8330   24.7630    9.5740 C.ar   30  TRP30       0.0946
     81  CD2       24.8890   25.3330   10.2500 C.ar   30  TRP30       0.0152
     82  NE1       23.7200   23.8890    8.9880 N.ar   30  TRP30      -0.2442
     83  CE2       24.9900   24.2170    9.3910 C.ar   30  TRP30       0.0810
     84  CE3       26.0550   25.8680   10.7990 C.ar   30  TRP30       0.0012
     85  CZ2       26.2050   23.6310    9.0730 C.ar   30  TRP30       0.0191
     86  CZ3       27.2580   25.2880   10.4830 C.ar   30  TRP30       0.0001
     87  CH2       27.3290   24.1820    9.6260 C.ar   30  TRP30       0.0015
     88  N         21.1740   27.9310    8.8730 N.am   31  PHE31      -0.1962
     89  CA        20.6760   27.8330    7.5140 C.3    31  PHE31       0.1771
     90  C         20.8150   29.1650    6.7830 C.2    31  PHE31       0.2619
     91  O         21.2940   29.2160    5.6450 O.2    31  PHE31      -0.2715
     92  CB        19.2170   27.3810    7.5390 C.3    31  PHE31       0.0574
     93  CG        18.5660   27.3630    6.2000 C.ar   31  PHE31      -0.0200
     94  CD1       18.8960   26.3950    5.2720 C.ar   31  PHE31      -0.0042
     95  CD2       17.6100   28.3050    5.8730 C.ar   31  PHE31      -0.0042
     96  CE1       18.2890   26.3720    4.0370 C.ar   31  PHE31      -0.0003
     97  CE2       17.0030   28.2870    4.6410 C.ar   31  PHE31      -0.0003
     98  CZ        17.3410   27.3170    3.7230 C.ar   31  PHE31      -0.0000
     99  N         20.4050   30.2370    7.4510 N.am   32  LYS32      -0.1977
    100  CA        20.5500   31.5810    6.9160 C.3    32  LYS32       0.1596
    101  C         21.9990   31.8630    6.5510 C.2    32  LYS32       0.2287
    102  O         22.3040   32.2340    5.4180 O.2    32  LYS32      -0.2864
    103  CB        20.0600   32.6220    7.9210 C.3    32  LYS32       0.0298
    104  CG        18.7360   33.2670    7.5700 C.3    32  LYS32       0.0038
    105  CD        17.6450   32.9150    8.5720 C.3    32  LYS32       0.0206
    106  CE        16.3550   33.6740    8.2670 C.3    32  LYS32       0.1093
    107  NZ        15.2630   33.3680    9.2280 N.3    32  LYS32      -0.1314
    108  N          8.6830   22.8260   -0.4580 N.3    46  THR46      -0.1218
    109  CA         9.6050   23.6350    0.3220 C.3    46  THR46       0.1862
    110  C          9.3830   25.1250    0.0600 C.2    46  THR46       0.2287
    111  O          9.5670   25.9550    0.9490 O.2    46  THR46      -0.2866
    112  CB        11.0530   23.2500    0.0060 C.3    46  THR46       0.1770
    113  OG1       11.2730   21.8860    0.3850 O.3    46  THR46      -0.2211
    114  CG2       12.0240   24.1200    0.7570 C.3    46  THR46       0.0375
    115  N          6.4480   26.0600    1.9400 N.3    49  SER49      -0.1202
    116  CA         6.8510   25.9930    3.3540 C.3    49  SER49       0.2020
    117  C          7.5150   27.2730    3.8720 C.2    49  SER49       0.2618
    118  O          7.6730   27.4480    5.0750 O.2    49  SER49      -0.2717
    119  CB         7.8070   24.8170    3.5710 C.3    49  SER49       0.2103
    120  OG         8.3840   24.8660    4.8590 O.3    49  SER49      -0.2182
    121  N          7.9000   28.1590    2.9600 N.am   50  ILE50      -0.1979
    122  CA         8.5270   29.4360    3.3050 C.3    50  ILE50       0.1595
    123  C          7.5930   30.6110    3.0040 C.2    50  ILE50       0.2287
    124  O          7.7100   31.6810    3.6020 O.2    50  ILE50      -0.2864
    125  CB         9.8310   29.6480    2.5170 C.3    50  ILE50       0.0276
    126  CG1       10.7500   28.4380    2.6460 C.3    50  ILE50       0.0022
    127  CG2       10.5540   30.8900    3.0050 C.3    50  ILE50       0.0022
    128  CD1       11.7950   28.3760    1.5670 C.3    50  ILE50       0.0001
    129  N          7.5370   32.8230    0.9620 N.3    52  ARG52      -0.1245
    130  CA         8.1800   34.0960    0.6800 C.3    52  ARG52       0.1563
    131  C          9.5890   33.8390    0.1740 C.2    52  ARG52       0.2260
    132  O         10.2790   32.9680    0.6990 O.2    52  ARG52      -0.2867
    133  CB         8.1980   34.9650    1.9380 C.3    52  ARG52       0.0307
    134  CG         8.9890   36.2630    1.8180 C.3    52  ARG52       0.0489
    135  CD         8.9840   37.0450    3.1360 C.3    52  ARG52       0.2205
    136  NE         9.5300   36.2620    4.2510 N.pl3  52  ARG52      -0.0865
    137  CZ        10.6720   36.5190    4.8950 C.cat  52  ARG52       0.5346
    138  NH1       11.0530   35.7230    5.8890 N.pl3  52  ARG52       0.1354
    139  NH2       11.4370   37.5580    4.5670 N.pl3  52  ARG52       0.1354
    140  N         13.5430   33.9960   -0.2230 N.3    54  LEU54      -0.1245
    141  CA        14.6410   34.3160    0.6710 C.3    54  LEU54       0.1561
    142  C         15.3790   35.5540    0.1600 C.2    54  LEU54       0.2260
    143  O         15.8040   35.5770   -0.9940 O.2    54  LEU54      -0.2867
    144  CB        15.5920   33.1250    0.7810 C.3    54  LEU54       0.0270
    145  CG        14.9620   31.8390    1.3230 C.3    54  LEU54       0.0019
    146  CD1       15.9420   30.7000    1.2500 C.3    54  LEU54       0.0001
    147  CD2       14.4990   32.0270    2.7550 C.3    54  LEU54       0.0001
    148  N         18.1200   23.3310   -1.0650 N.3    94  ILE94      -0.1245
    149  CA        17.5450   23.3950    0.2690 C.3    94  ILE94       0.1561
    150  C         16.3320   22.4780    0.5400 C.2    94  ILE94       0.2260
    151  O         15.6130   22.6900    1.5190 O.2    94  ILE94      -0.2867
    152  CB        17.1470   24.8540    0.5960 C.3    94  ILE94       0.0252
    153  CG1       15.9740   25.3290   -0.2560 C.3    94  ILE94       0.0019
    154  CG2       18.3400   25.7710    0.3860 C.3    94  ILE94       0.0019
    155  CD1       15.3210   26.5970    0.2700 C.3    94  ILE94       0.0001
    156  N         16.5630   16.5210   -3.0660 N.3   100  TYR100     -0.1241
    157  CA        17.8430   16.0350   -2.5670 C.3   100  TYR100      0.1605
    158  C         18.3140   14.8530   -3.3850 C.2   100  TYR100      0.2264
    159  O         19.4780   14.7710   -3.7690 O.2   100  TYR100     -0.2867
    160  CB        17.7560   15.6170   -1.0940 C.3   100  TYR100      0.0534
    161  CG        17.6000   16.7630   -0.1350 C.ar  100  TYR100     -0.0201
    162  CD1       18.3570   17.9190   -0.2670 C.ar  100  TYR100     -0.0009
    163  CD2       16.6790   16.6960    0.8980 C.ar  100  TYR100     -0.0009
    164  CE1       18.2040   18.9740    0.6140 C.ar  100  TYR100      0.0417
    165  CE2       16.5200   17.7390    1.7800 C.ar  100  TYR100      0.0417
    166  CZ        17.2840   18.8760    1.6400 C.ar  100  TYR100      0.1957
    167  OH        17.1090   19.9180    2.5300 O.3   100  TYR100     -0.2866
    168  N         22.2300   19.1100    9.6840 N.3   113  THR113     -0.1218
    169  CA        21.9020   19.3520   11.0850 C.3   113  THR113      0.1862
    170  C         21.2460   18.1100   11.6670 C.2   113  THR113      0.2287
    171  O         20.1000   17.8070   11.3440 O.2   113  THR113     -0.2866
    172  CB        20.9410   20.5360   11.2710 C.3   113  THR113      0.1770
    173  OG1       21.5350   21.7340   10.7600 O.3   113  THR113     -0.2211
    174  CG2       20.6200   20.7300   12.7540 C.3   113  THR113      0.0375
@<TRIPOS>BOND
     1   159   158    2
     2   158   157    1
     3   156   157    1
     4   157   160    1
     5   160   161    1
     6   148   149    1
     7   143   142    2
     8   108   109    1
     9   162   161   ar
    10   162   164   ar
    11   153   155    1
    12   153   152    1
    13   140   141    1
    14   161   163   ar
    15   112   109    1
    16   112   113    1
    17   112   114    1
    18   110   109    1
    19   110   111    2
    20   142   141    1
    21   131   130    1
    22   131   132    2
    23   149   150    1
    24   149   152    1
    25   154   152    1
    26   150   151    2
    27   164   166   ar
    28   141   144    1
    29   130   129    1
    30   130   133    1
    31   144   145    1
    32   163   165   ar
    33   146   145    1
    34   145   147    1
    35   128   126    1
    36   166   165   ar
    37   166   167    1
    38     1     2    1
    39   134   133    1
    40   134   135    1
    41   115   116    1
    42   125   126    1
    43   125   127    1
    44   125   122    1
    45     7     5    1
    46   121   122    1
    47   121   117   am
    48   123   122    1
    49   123   124    2
    50     4     3    2
    51   135   136    1
    52     2     5    1
    53     2     3    1
    54   116   119    1
    55   116   117    1
    56     5     6    1
    57   119   120    1
    58     3     9   am
    59    98    96   ar
    60    98    97   ar
    61   117   118    2
    62    96    94   ar
    63   136   137    2
    64   139   137    1
    65    97    95   ar
    66    13    10    1
    67    24    23    1
    68    24    25    1
    69     9    10    1
    70   137   138    1
    71     6     8    1
    72    23    20    1
    73    94    93   ar
    74    10    11    1
    75   102   101    2
    76    91    90    2
    77    95    93   ar
    78    25    26    1
    79    93    92    1
    80    22    21    2
    81   101   100    1
    82    20    19    1
    83    20    21    1
    84    90    99   am
    85    90    89    1
    86    11    12    2
    87    11    14   am
    88   100    99    1
    89   100   103    1
    90    21    27   am
    91    14    15    1
    92    89    92    1
    93    89    88    1
    94   104   103    1
    95   104   105    1
    96   106   105    1
    97   106   107    1
    98    77    76    2
    99    27    28    1
   100    17    16    2
   101    32    33    1
   102    32    31    1
   103    28    31    1
   104    28    29    1
   105    88    76   am
   106    15    16    1
   107    15    18    1
   108    35    33   ar
   109    82    83   ar
   110    82    80   ar
   111    85    83   ar
   112    85    87   ar
   113    76    75    1
   114    43    41   am
   115    42    41    2
   116    83    81   ar
   117    33    34   ar
   118    80    79   ar
   119    87    86   ar
   120   168   169    1
   121    41    40    1
   122    72    71    1
   123    29    36   am
   124    29    30    2
   125    69    68    2
   126    36    37    1
   127    57    55   ar
   128    57    56   ar
   129    81    79   ar
   130    81    84   ar
   131    55    53   ar
   132    79    78    1
   133    56    54   ar
   134    53    52   ar
   135    53    51   ar
   136    86    84   ar
   137    52    50   ar
   138    54    51   ar
   139    51    49   ar
   140    75    78    1
   141    75    74    1
   142    50    49   ar
   143   173   172    1
   144    49    48    1
   145    61    60    2
   146    71    73    1
   147    71    70    1
   148    65    63   ar
   149    40    37    1
   150    64    63   ar
   151    48    45    1
   152    68    67    1
   153   169   172    1
   154   169   170    1
   155    37    38    1
   156   172   174    1
   157    67    70    1
   158    67    66    1
   159   171   170    2
   160    63    62    1
   161    47    46    2
   162    60    66   am
   163    60    59    1
   164    45    46    1
   165    45    44    1
   166    38    39    2
   167    62    59    1
   168    59    58    1
