@<TRIPOS>MOLECULE
tmp/6cqdB00.pdb
 173 162 0 0 0
SMALL
GASTEIGER

@<TRIPOS>ATOM
      1  N         24.1160   27.2180   65.4010 N.3    20  LEU20      -0.1231
      2  CA        24.4570   25.9200   65.9790 C.3    20  LEU20       0.1693
      3  C         25.2000   25.0060   65.0050 C.2    20  LEU20       0.2593
      4  O         25.6400   23.9170   65.3800 O.2    20  LEU20      -0.2718
      5  CB        23.1940   25.2140   66.4770 C.3    20  LEU20       0.0284
      6  CG        22.2300   26.0340   67.3350 C.3    20  LEU20       0.0019
      7  CD1       21.1160   25.1440   67.8690 C.3    20  LEU20       0.0001
      8  CD2       22.9640   26.7310   68.4660 C.3    20  LEU20       0.0001
      9  N         25.3360   25.4430   63.7560 N.am   21  GLY21      -0.1942
     10  CA        26.0260   24.6500   62.7550 C.3    21  GLY21       0.2014
     11  C         25.5320   24.8840   61.3420 C.2    21  GLY21       0.2639
     12  O         24.9530   25.9270   61.0400 O.2    21  GLY21      -0.2714
     13  N         25.7630   23.9050   60.4730 N.am   22  GLY22      -0.1939
     14  CA        25.3800   24.0120   59.0780 C.3    22  GLY22       0.2014
     15  C         26.5300   23.6160   58.1780 C.2    22  GLY22       0.2639
     16  O         27.6300   24.1540   58.3000 O.2    22  GLY22      -0.2714
     17  N         26.2750   22.6700   57.2780 N.am   23  GLY23      -0.1939
     18  CA        27.2990   22.1610   56.3820 C.3    23  GLY23       0.2014
     19  C         27.8320   23.2100   55.4260 C.2    23  GLY23       0.2640
     20  O         28.7530   23.9550   55.7590 O.2    23  GLY23      -0.2714
     21  N         27.2610   23.2590   54.2260 N.am   24  THR24      -0.1936
     22  CA        27.6450   24.2620   53.2380 C.3    24  THR24       0.2028
     23  C         26.4090   24.9060   52.6130 C.2    24  THR24       0.2642
     24  O         26.4880   25.9900   52.0340 O.2    24  THR24      -0.2714
     25  CB        28.5230   23.6610   52.1120 C.3    24  THR24       0.1808
     26  OG1       27.7640   22.7080   51.3590 O.3    24  THR24      -0.2208
     27  CG2       29.7610   22.9790   52.6850 C.3    24  THR24       0.0379
     28  N         25.2670   24.2360   52.7420 N.am   25  TYR25      -0.1959
     29  CA        24.0330   24.6940   52.1090 C.3    25  TYR25       0.1771
     30  C         22.9960   25.2050   53.1100 C.2    25  TYR25       0.2620
     31  O         21.8060   24.9240   52.9690 O.2    25  TYR25      -0.2715
     32  CB        23.4140   23.5670   51.2750 C.3    25  TYR25       0.0574
     33  CG        24.2530   23.1100   50.0980 C.ar   25  TYR25      -0.0198
     34  CD1       24.2680   23.8290   48.9080 C.ar   25  TYR25      -0.0009
     35  CD2       25.0130   21.9480   50.1710 C.ar   25  TYR25      -0.0009
     36  CE1       25.0270   23.4110   47.8290 C.ar   25  TYR25       0.0417
     37  CE2       25.7750   21.5220   49.0970 C.ar   25  TYR25       0.0417
     38  CZ        25.7780   22.2570   47.9290 C.ar   25  TYR25       0.1957
     39  OH        26.5340   21.8370   46.8590 O.3    25  TYR25      -0.2866
     40  N         23.4390   25.9570   54.1140 N.am   26  GLY26      -0.1954
     41  CA        22.5180   26.5350   55.0770 C.3    26  GLY26       0.1869
     42  C         23.0330   26.6110   56.5040 C.2    26  GLY26       0.2309
     43  O         24.2000   26.3270   56.7750 O.2    26  GLY26      -0.2863
     44  N         21.8340   26.4570   61.0280 N.3    28  VAL28      -0.1245
     45  CA        20.9230   26.0280   62.0870 C.3    28  VAL28       0.1561
     46  C         20.9970   27.0140   63.2530 C.2    28  VAL28       0.2260
     47  O         22.0880   27.3620   63.7070 O.2    28  VAL28      -0.2867
     48  CB        21.2550   24.6010   62.5790 C.3    28  VAL28       0.0252
     49  CG1       20.4620   24.2560   63.8410 C.3    28  VAL28       0.0019
     50  CG2       20.9890   23.5860   61.4770 C.3    28  VAL28       0.0019
     51  N         14.9460   24.6050   67.4870 N.3    41  ALA41      -0.1245
     52  CA        16.0430   24.7580   66.5490 C.3    41  ALA41       0.1562
     53  C         15.4750   25.1060   65.1790 C.2    41  ALA41       0.2260
     54  O         14.5430   24.4570   64.7070 O.2    41  ALA41      -0.2867
     55  CB        16.8830   23.4900   66.4800 C.3    41  ALA41       0.0290
     56  N         16.3280   25.2800   61.3020 N.3    43  LYS43      -0.1245
     57  CA        17.2400   24.9000   60.2330 C.3    43  LYS43       0.1561
     58  C         16.8610   25.6180   58.9480 C.2    43  LYS43       0.2260
     59  O         15.7700   25.4180   58.4140 O.2    43  LYS43      -0.2867
     60  CB        17.2220   23.3870   60.0200 C.3    43  LYS43       0.0271
     61  CG        18.2120   22.8940   58.9810 C.3    43  LYS43       0.0035
     62  CD        18.1170   21.3870   58.8150 C.3    43  LYS43       0.0206
     63  CE        19.1540   20.8720   57.8350 C.3    43  LYS43       0.1093
     64  NZ        19.0910   19.3950   57.7140 N.3    43  LYS43      -0.1314
     65  N         14.5550   13.2370   65.9860 N.3    72  VAL72      -0.1245
     66  CA        14.3540   14.6550   66.2920 C.3    72  VAL72       0.1561
     67  C         12.9320   15.0720   65.9140 C.2    72  VAL72       0.2260
     68  O         12.4250   14.7060   64.8510 O.2    72  VAL72      -0.2867
     69  CB        15.3900   15.5620   65.5740 C.3    72  VAL72       0.0252
     70  CG1       15.2520   15.4730   64.0600 C.3    72  VAL72       0.0019
     71  CG2       15.2540   17.0000   66.0360 C.3    72  VAL72       0.0019
     72  N         12.3800   22.5370   64.5090 N.3    88  MET88      -0.1230
     73  CA        12.4400   21.2360   65.1490 C.3    88  MET88       0.1702
     74  C         12.8420   21.3180   66.6170 C.2    88  MET88       0.2592
     75  O         13.1430   22.3930   67.1420 O.2    88  MET88      -0.2718
     76  CB        13.4170   20.3320   64.3990 C.3    88  MET88       0.0401
     77  CG        14.8560   20.7750   64.5220 C.3    88  MET88       0.0596
     78  SD        15.9720   19.8340   63.4710 S.3    88  MET88      -0.1393
     79  CE        15.1830   20.0470   61.8780 C.3    88  MET88       0.0692
     80  N         12.8430   20.1560   67.2590 N.am   89  GLU89      -0.1966
     81  CA        13.2690   20.0140   68.6430 C.3    89  GLU89       0.1733
     82  C         14.6950   20.5190   68.8510 C.2    89  GLU89       0.2616
     83  O         15.6030   20.1960   68.0780 O.2    89  GLU89      -0.2715
     84  CB        13.1560   18.5490   69.0720 C.3    89  GLU89       0.0429
     85  CG        13.8500   18.2190   70.3700 C.3    89  GLU89       0.1163
     86  CD        13.7540   16.7450   70.7220 C.2    89  GLU89       0.3649
     87  OE1       13.2410   15.9630   69.8940 O.co2  89  GLU89      -0.2457
     88  OE2       14.1890   16.3690   71.8310 O.co2  89  GLU89      -0.2457
     89  N         14.8790   21.3180   69.8950 N.am   90  PHE90      -0.1960
     90  CA        16.1940   21.8330   70.2540 C.3    90  PHE90       0.1771
     91  C         16.9750   20.8190   71.0850 C.2    90  PHE90       0.2619
     92  O         16.5160   20.3810   72.1380 O.2    90  PHE90      -0.2715
     93  CB        16.0540   23.1500   71.0210 C.3    90  PHE90       0.0574
     94  CG        17.3560   23.7070   71.5120 C.ar   90  PHE90      -0.0200
     95  CD1       18.3390   24.1000   70.6160 C.ar   90  PHE90      -0.0042
     96  CD2       17.5970   23.8430   72.8730 C.ar   90  PHE90      -0.0042
     97  CE1       19.5440   24.6120   71.0680 C.ar   90  PHE90      -0.0003
     98  CE2       18.7960   24.3580   73.3330 C.ar   90  PHE90      -0.0003
     99  CZ        19.7720   24.7410   72.4280 C.ar   90  PHE90      -0.0000
    100  N         18.1560   20.4440   70.6040 N.am   91  CYS91      -0.1968
    101  CA        19.0310   19.5420   71.3380 C.3    91  CYS91       0.1712
    102  C         20.2800   20.2910   71.7900 C.2    91  CYS91       0.2296
    103  O         21.2560   20.4050   71.0520 O.2    91  CYS91      -0.2864
    104  CB        19.3810   18.3320   70.4770 C.3    91  CYS91       0.0983
    105  SG        17.9110   17.4230   69.9280 S.3    91  CYS91      -0.0798
    106  N         24.0420   19.6630   71.0830 N.3    94  GLY94      -0.1210
    107  CA        24.4560   19.5420   69.6960 C.3    94  GLY94       0.1956
    108  C         24.6680   18.0930   69.2960 C.2    94  GLY94       0.2612
    109  O         24.0320   17.1890   69.8350 O.2    94  GLY94      -0.2717
    110  N         25.5860   17.8690   68.3610 N.am   95  SER95      -0.1952
    111  CA        25.8290   16.5310   67.8300 C.3    95  SER95       0.1924
    112  C         26.9120   15.8160   68.6140 C.2    95  SER95       0.2314
    113  O         27.7080   16.4590   69.3060 O.2    95  SER95      -0.2863
    114  CB        26.2340   16.5990   66.3580 C.3    95  SER95       0.2116
    115  OG        27.6030   16.9360   66.2370 O.3    95  SER95      -0.2180
    116  N         30.1900   17.2210   67.6080 N.3    98  ASP98      -0.1239
    117  CA        30.4150   18.4680   68.3320 C.3    98  ASP98       0.1674
    118  C         30.9970   18.2070   69.7150 C.2    98  ASP98       0.2266
    119  O         31.9080   18.9000   70.1550 O.2    98  ASP98      -0.2867
    120  CB        29.1120   19.2520   68.4640 C.3    98  ASP98       0.1410
    121  CG        28.6240   19.8010   67.1340 C.2    98  ASP98       0.3668
    122  OD1       29.4690   20.0420   66.2450 O.co2  98  ASP98      -0.2456
    123  OD2       27.3990   19.9980   66.9760 O.co2  98  ASP98      -0.2456
    124  N         22.4780    8.2580   56.1820 N.3   134  ASP134     -0.1239
    125  CA        23.5040    9.2090   56.5820 C.3   134  ASP134      0.1674
    126  C         23.7760    9.1700   58.0890 C.2   134  ASP134      0.2266
    127  O         23.9940   10.2070   58.7180 O.2   134  ASP134     -0.2867
    128  CB        23.1070   10.6200   56.1530 C.3   134  ASP134      0.1410
    129  CG        24.2980   11.5370   56.0120 C.2   134  ASP134      0.3668
    130  OD1       25.4310   11.0170   55.9430 O.co2 134  ASP134     -0.2456
    131  OD2       24.1030   12.7710   55.9770 O.co2 134  ASP134     -0.2456
    132  N         27.9490   13.3010   63.5240 N.3   138  ALA138     -0.1231
    133  CA        27.4740   14.6640   63.3100 C.3   138  ALA138      0.1694
    134  C         25.9560   14.7070   63.1800 C.2   138  ALA138      0.2592
    135  O         25.3430   15.7640   63.3450 O.2   138  ALA138     -0.2718
    136  CB        28.1330   15.2760   62.0600 C.3   138  ALA138      0.0304
    137  N         25.3480   13.5600   62.8890 N.am  139  ASN139     -0.1974
    138  CA        23.9020   13.5040   62.6880 C.3   139  ASN139      0.1688
    139  C         23.1450   12.8470   63.8390 C.2   139  ASN139      0.2292
    140  O         21.9590   12.5280   63.7260 O.2   139  ASN139     -0.2864
    141  CB        23.5940   12.7880   61.3750 C.3   139  ASN139      0.1181
    142  CG        23.9590   13.6320   60.1680 C.2   139  ASN139      0.2629
    143  OD1       24.0630   14.8560   60.2710 O.2   139  ASN139     -0.2716
    144  ND2       24.1510   12.9820   59.0200 N.am  139  ASN139     -0.0877
    145  N         22.0520   13.8120   67.5040 N.3   141  LEU141     -0.1245
    146  CA        21.9660   14.9570   68.3990 C.3   141  LEU141      0.1561
    147  C         21.7090   14.5460   69.8360 C.2   141  LEU141      0.2260
    148  O         21.0550   13.5420   70.1060 O.2   141  LEU141     -0.2867
    149  CB        20.8690   15.9140   67.9390 C.3   141  LEU141      0.0270
    150  CG        21.0010   16.4520   66.5190 C.3   141  LEU141      0.0019
    151  CD1       19.8510   17.3850   66.2310 C.3   141  LEU141      0.0001
    152  CD2       22.3340   17.1510   66.3180 C.3   141  LEU141      0.0001
    153  N         18.9760   12.8790   63.4070 N.3   151  ALA151     -0.1231
    154  CA        18.5610   14.0620   62.6530 C.3   151  ALA151      0.1694
    155  C         19.1780   14.1260   61.2540 C.2   151  ALA151      0.2592
    156  O         19.8760   13.2060   60.8250 O.2   151  ALA151     -0.2718
    157  CB        18.9040   15.3150   63.4260 C.3   151  ALA151      0.0304
    158  N         18.9010   15.2270   60.5600 N.am  152  ASP152     -0.1974
    159  CA        19.4300   15.5000   59.2230 C.3   152  ASP152      0.1709
    160  C         19.0430   14.4170   58.2170 C.2   152  ASP152      0.2293
    161  O         19.8530   13.5520   57.8680 O.2   152  ASP152     -0.2864
    162  CB        20.9500   15.6640   59.2800 C.3   152  ASP152      0.1436
    163  CG        21.5460   16.1650   57.9680 C.2   152  ASP152      0.3671
    164  OD1       20.7820   16.5560   57.0520 O.co2 152  ASP152     -0.2456
    165  OD2       22.7930   16.1750   57.8680 O.co2 152  ASP152     -0.2456
    166  N         20.0700   13.7890   53.0490 N.3   155  ILE155     -0.1245
    167  CA        20.4870   12.7640   52.1010 C.3   155  ILE155      0.1561
    168  C         19.3540   11.7860   51.8150 C.2   155  ILE155      0.2260
    169  O         19.1240   11.4030   50.6640 O.2   155  ILE155     -0.2867
    170  CB        21.7170   11.9850   52.6190 C.3   155  ILE155      0.0252
    171  CG1       22.9330   12.9030   52.6750 C.3   155  ILE155      0.0019
    172  CG2       22.0220   10.7930   51.7380 C.3   155  ILE155      0.0019
    173  CD1       23.1850   13.6260   51.3840 C.3   155  ILE155      0.0001
@<TRIPOS>BOND
     1    39    38    1
     2    36    38   ar
     3    36    34   ar
     4    38    37   ar
     5    34    33   ar
     6    37    35   ar
     7    33    35   ar
     8    33    32    1
     9   169   168    2
    10    32    29    1
    11    26    25    1
    12   173   171    1
    13   172   170    1
    14   168   167    1
    15    24    23    2
    16   167   170    1
    17   167   166    1
    18    29    28    1
    19    29    30    1
    20    25    27    1
    21    25    22    1
    22    23    28   am
    23    23    22    1
    24   170   171    1
    25    31    30    2
    26    30    40   am
    27    22    21    1
    28    40    41    1
    29    21    19   am
    30    41    42    1
    31    19    20    2
    32    19    18    1
    33   130   129   ar
    34   131   129   ar
    35   129   128    1
    36   128   125    1
    37   124   125    1
    38    18    17    1
    39    42    43    2
    40   125   126    1
    41   164   163   ar
    42    17    15   am
    43    64    63    1
    44    63    62    1
    45   161   160    2
    46   165   163   ar
    47   163   162    1
    48   126   127    2
    49    15    16    2
    50    15    14    1
    51   160   159    1
    52    59    58    2
    53    62    61    1
    54    58    57    1
    55    61    60    1
    56   144   142   am
    57    14    13    1
    58   159   162    1
    59   159   158    1
    60    60    57    1
    61   142   143    2
    62   142   141    1
    63    57    56    1
    64    13    11   am
    65   158   155   am
    66   156   155    2
    67    44    45    1
    68    12    11    2
    69   155   154    1
    70    11    10    1
    71   141   138    1
    72    50    48    1
    73    79    78    1
    74   136   133    1
    75    45    48    1
    76    45    46    1
    77    48    49    1
    78   154   153    1
    79   154   157    1
    80   138   137    1
    81   138   139    1
    82    10     9    1
    83   137   134   am
    84   134   133    1
    85   134   135    2
    86    46    47    2
    87   133   132    1
    88    78    77    1
    89   140   139    2
    90     9     3   am
    91    70    69    1
    92    76    77    1
    93    76    73    1
    94    72    73    1
    95    54    53    2
    96    68    67    2
    97     3     4    2
    98     3     2    1
    99    73    74    1
   100    53    52    1
   101     1     2    1
   102    69    71    1
   103    69    66    1
   104    67    66    1
   105     2     5    1
   106    65    66    1
   107   151   150    1
   108   115   114    1
   109   122   121   ar
   110   152   150    1
   111   114   111    1
   112     5     6    1
   113    55    52    1
   114   150   149    1
   115    52    51    1
   116    74    75    2
   117    74    80   am
   118   123   121   ar
   119   121   120    1
   120    80    81    1
   121     6     7    1
   122     6     8    1
   123   145   146    1
   124   116   117    1
   125   111   110    1
   126   111   112    1
   127   149   146    1
   128    83    82    2
   129   117   120    1
   130   117   118    1
   131   110   108   am
   132   146   147    1
   133   112   113    2
   134    81    82    1
   135    81    84    1
   136    82    89   am
   137    84    85    1
   138   108   107    1
   139   108   109    2
   140   107   106    1
   141   118   119    2
   142   147   148    2
   143    87    86   ar
   144    89    90    1
   145   105   104    1
   146    90    93    1
   147    90    91    1
   148    85    86    1
   149   104   101    1
   150   100    91   am
   151   100   101    1
   152    95    97   ar
   153    95    94   ar
   154    86    88   ar
   155    93    94    1
   156   103   102    2
   157    97    99   ar
   158    91    92    2
   159   101   102    1
   160    94    96   ar
   161    99    98   ar
   162    96    98   ar
