@<TRIPOS>MOLECULE
tmp/6cqfA00.pdb
 142 132 0 0 0
SMALL
GASTEIGER

@<TRIPOS>ATOM
      1  N        -43.4860  -10.8500  -21.8510 N.3    16  GLN16      -0.1245
      2  CA       -43.7420  -11.3690  -20.5100 C.3    16  GLN16       0.1566
      3  C        -42.6860  -10.9110  -19.5160 C.2    16  GLN16       0.2260
      4  O        -41.5930  -10.4940  -19.8990 O.2    16  GLN16      -0.2867
      5  CB       -43.8140  -12.9020  -20.5190 C.3    16  GLN16       0.0367
      6  CG       -42.5210  -13.5970  -20.9330 C.3    16  GLN16       0.0905
      7  CD       -42.6040  -15.1140  -20.8170 C.2    16  GLN16       0.2608
      8  OE1      -42.1200  -15.8170  -21.8380 O.2    16  GLN16      -0.2717
      9  NE2      -43.1020  -15.6440  -19.8240 N.am   16  GLN16      -0.0878
     10  N        -39.9870  -11.6380  -16.9510 N.3    18  LEU18      -0.1231
     11  CA       -39.0720  -12.7040  -16.5720 C.3    18  LEU18       0.1693
     12  C        -38.8750  -12.7660  -15.0570 C.2    18  LEU18       0.2593
     13  O        -38.6640  -13.8430  -14.4940 O.2    18  LEU18      -0.2718
     14  CB       -37.7290  -12.5210  -17.2800 C.3    18  LEU18       0.0284
     15  CG       -37.8170  -12.5120  -18.8050 C.3    18  LEU18       0.0019
     16  CD1      -36.4450  -12.3180  -19.4250 C.3    18  LEU18       0.0001
     17  CD2      -38.4590  -13.7940  -19.3190 C.3    18  LEU18       0.0001
     18  N        -38.9500  -11.6100  -14.4030 N.am   19  GLY19      -0.1942
     19  CA       -38.7700  -11.5290  -12.9630 C.3    19  GLY19       0.2014
     20  C        -38.2660  -10.1620  -12.5470 C.2    19  GLY19       0.2639
     21  O        -38.3290   -9.2120  -13.3280 O.2    19  GLY19      -0.2714
     22  N        -37.7650  -10.0530  -11.3210 N.am   20  GLY20      -0.1954
     23  CA       -37.2260   -8.7950  -10.8370 C.3    20  GLY20       0.1869
     24  C        -36.1600   -8.9780   -9.7730 C.2    20  GLY20       0.2309
     25  O        -36.3570   -9.7240   -8.8160 O.2    20  GLY20      -0.2863
     26  N        -37.2140   -7.4860  -15.2560 N.3    26  VAL26      -0.1245
     27  CA       -36.6540   -7.9030  -16.5320 C.3    26  VAL26       0.1561
     28  C        -37.7720   -8.4380  -17.4210 C.2    26  VAL26       0.2260
     29  O        -38.5970   -9.2410  -16.9850 O.2    26  VAL26      -0.2867
     30  CB       -35.5600   -8.9720  -16.3430 C.3    26  VAL26       0.0252
     31  CG1      -35.0320   -9.4480  -17.6910 C.3    26  VAL26       0.0019
     32  CG2      -34.4350   -8.4190  -15.4880 C.3    26  VAL26       0.0019
     33  N        -33.8070   -8.9300  -24.3500 N.3    39  ALA39      -0.1245
     34  CA       -34.1000   -8.7790  -22.9390 C.3    39  ALA39       0.1562
     35  C        -34.0630   -7.3010  -22.5900 C.2    39  ALA39       0.2260
     36  O        -33.1590   -6.5750  -23.0060 O.2    39  ALA39      -0.2867
     37  CB       -33.1110   -9.5570  -22.0960 C.3    39  ALA39       0.0290
     38  N        -33.8920   -4.8920  -19.3660 N.3    41  LYS41      -0.1245
     39  CA       -33.7230   -4.6960  -17.9340 C.3    41  LYS41       0.1561
     40  C        -34.1910   -3.2950  -17.5770 C.2    41  LYS41       0.2260
     41  O        -33.5820   -2.3020  -17.9860 O.2    41  LYS41      -0.2867
     42  CB       -32.2690   -4.9010  -17.5220 C.3    41  LYS41       0.0271
     43  CG       -31.9950   -4.5770  -16.0690 C.3    41  LYS41       0.0035
     44  CD       -30.5340   -4.1910  -15.8670 C.3    41  LYS41       0.0206
     45  CE       -29.8150   -5.1570  -14.9410 C.3    41  LYS41       0.1093
     46  NZ       -28.4900   -4.6390  -14.4920 N.3    41  LYS41      -0.1314
     47  N        -22.6930  -10.9230  -22.9400 N.3    70  VAL70      -0.1245
     48  CA       -24.0250  -10.7030  -23.4800 C.3    70  VAL70       0.1561
     49  C        -24.0260   -9.4020  -24.3010 C.2    70  VAL70       0.2260
     50  O        -23.3310   -8.4360  -23.9700 O.2    70  VAL70      -0.2867
     51  CB       -25.0930  -10.6670  -22.3640 C.3    70  VAL70       0.0252
     52  CG1      -24.9800   -9.3970  -21.5240 C.3    70  VAL70       0.0019
     53  CG2      -26.4870  -10.8170  -22.9520 C.3    70  VAL70       0.0019
     54  N        -30.7720   -5.8620  -24.4000 N.3    86  MET86      -0.1230
     55  CA       -29.6950   -6.8110  -24.6440 C.3    86  MET86       0.1702
     56  C        -30.1530   -8.0420  -25.4280 C.2    86  MET86       0.2592
     57  O        -31.3480   -8.3090  -25.5400 O.2    86  MET86      -0.2718
     58  CB       -29.0840   -7.2560  -23.3150 C.3    86  MET86       0.0401
     59  CG       -28.2360   -6.2070  -22.6220 C.3    86  MET86       0.0596
     60  SD       -27.9340   -6.6100  -20.8910 S.3    86  MET86      -0.1393
     61  CE       -29.5670   -6.3400  -20.2100 C.3    86  MET86       0.0692
     62  N        -29.1850   -8.7780  -25.9690 N.am   87  GLU87      -0.1966
     63  CA       -29.4430  -10.0560  -26.6270 C.3    87  GLU87       0.1733
     64  C        -30.1350  -11.0040  -25.6540 C.2    87  GLU87       0.2616
     65  O        -29.7160  -11.1230  -24.5060 O.2    87  GLU87      -0.2715
     66  CB       -28.1320  -10.6720  -27.1330 C.3    87  GLU87       0.0429
     67  CG       -28.0510  -12.1930  -26.9880 C.3    87  GLU87       0.1163
     68  CD       -26.6210  -12.7180  -26.9100 C.2    87  GLU87       0.3649
     69  OE1      -25.6950  -11.9180  -26.6430 O.co2  87  GLU87      -0.2457
     70  OE2      -26.4270  -13.9400  -27.1090 O.co2  87  GLU87      -0.2457
     71  N        -31.1930  -11.6690  -26.1060 N.am   88  PHE88      -0.1960
     72  CA       -31.9830  -12.5280  -25.2240 C.3    88  PHE88       0.1771
     73  C        -31.4140  -13.9470  -25.1220 C.2    88  PHE88       0.2620
     74  O        -31.1130  -14.5870  -26.1320 O.2    88  PHE88      -0.2715
     75  CB       -33.4380  -12.5660  -25.7070 C.3    88  PHE88       0.0574
     76  CG       -34.3490  -13.4310  -24.8690 C.ar   88  PHE88      -0.0200
     77  CD1      -34.6570  -13.0810  -23.5640 C.ar   88  PHE88      -0.0042
     78  CD2      -34.9290  -14.5750  -25.4060 C.ar   88  PHE88      -0.0042
     79  CE1      -35.5060  -13.8670  -22.8010 C.ar   88  PHE88      -0.0003
     80  CE2      -35.7800  -15.3610  -24.6520 C.ar   88  PHE88      -0.0003
     81  CZ       -36.0670  -15.0060  -23.3470 C.ar   88  PHE88      -0.0000
     82  N        -31.2510  -14.4330  -23.8950 N.am   89  CYS89      -0.1954
     83  CA       -30.8220  -15.8160  -23.6940 C.3    89  CYS89       0.1843
     84  C        -31.9850  -16.6210  -23.1480 C.2    89  CYS89       0.2626
     85  O        -32.4320  -16.3960  -22.0250 O.2    89  CYS89      -0.2714
     86  CB       -29.6210  -15.8880  -22.7610 C.3    89  CYS89       0.0997
     87  SG       -28.2380  -14.8360  -23.2810 S.3    89  CYS89      -0.0797
     88  N        -32.4670  -17.5610  -23.9560 N.am   90  GLY90      -0.1940
     89  CA       -33.7110  -18.2600  -23.6870 C.3    90  GLY90       0.2014
     90  C        -33.7790  -19.0870  -22.4180 C.2    90  GLY90       0.2639
     91  O        -34.8510  -19.2110  -21.8190 O.2    90  GLY90      -0.2714
     92  N        -32.6530  -19.6560  -21.9980 N.am   91  ALA91      -0.1963
     93  CA       -32.6680  -20.5490  -20.8400 C.3    91  ALA91       0.1728
     94  C        -32.4750  -19.7960  -19.5260 C.2    91  ALA91       0.2616
     95  O        -32.7020  -20.3490  -18.4490 O.2    91  ALA91      -0.2715
     96  CB       -31.6050  -21.6330  -20.9860 C.3    91  ALA91       0.0334
     97  N        -32.0580  -18.5370  -19.6120 N.am   92  GLY92      -0.1955
     98  CA       -31.8450  -17.7340  -18.4200 C.3    92  GLY92       0.1869
     99  C        -30.4830  -17.9600  -17.8020 C.2    92  GLY92       0.2309
    100  O        -29.5190  -18.2850  -18.5020 O.2    92  GLY92      -0.2863
    101  N        -31.2430  -20.1820  -12.6440 N.3    96  ASP96      -0.1239
    102  CA       -32.5940  -20.5460  -13.0630 C.3    96  ASP96       0.1674
    103  C        -32.6290  -22.0070  -13.4600 C.2    96  ASP96       0.2266
    104  O        -33.6160  -22.7030  -13.2310 O.2    96  ASP96      -0.2867
    105  CB       -33.0650  -19.6940  -14.2380 C.3    96  ASP96       0.1410
    106  CG       -33.1320  -18.2320  -13.9040 C.2    96  ASP96       0.3668
    107  OD1      -33.5040  -17.8970  -12.7570 O.co2  96  ASP96      -0.2456
    108  OD2      -32.7980  -17.4220  -14.7950 O.co2  96  ASP96      -0.2456
    109  N        -26.0920  -16.7200  -11.0880 N.3   136  ALA136     -0.1231
    110  CA       -27.2090  -15.8730  -11.4950 C.3   136  ALA136      0.1694
    111  C        -26.8270  -14.9130  -12.6190 C.2   136  ALA136      0.2592
    112  O        -27.6910  -14.3410  -13.2850 O.2   136  ALA136     -0.2718
    113  CB       -27.7380  -15.0830  -10.2940 C.3   136  ALA136      0.0304
    114  N        -25.5300  -14.7210  -12.8260 N.am  137  ASN137     -0.1974
    115  CA       -25.0760  -13.7710  -13.8350 C.3   137  ASN137      0.1688
    116  C        -24.3780  -14.4590  -15.0090 C.2   137  ASN137      0.2292
    117  O        -23.7060  -13.8200  -15.8250 O.2   137  ASN137     -0.2864
    118  CB       -24.1520  -12.7240  -13.2050 C.3   137  ASN137      0.1181
    119  CG       -24.9130  -11.6870  -12.3850 C.2   137  ASN137      0.2629
    120  OD1      -26.0730  -11.3790  -12.6740 O.2   137  ASN137     -0.2716
    121  ND2      -24.2550  -11.1330  -11.3640 N.am  137  ASN137     -0.0877
    122  N        -25.4720  -16.4700  -18.2220 N.3   139  LEU139     -0.1245
    123  CA       -26.6550  -16.7420  -19.0270 C.3   139  LEU139      0.1561
    124  C        -26.4280  -17.8560  -20.0370 C.2   139  LEU139      0.2260
    125  O        -25.3360  -18.0030  -20.6000 O.2   139  LEU139     -0.2867
    126  CB       -27.0960  -15.4690  -19.7560 C.3   139  LEU139      0.0270
    127  CG       -27.2740  -14.2590  -18.8390 C.3   139  LEU139      0.0019
    128  CD1      -27.7090  -13.0350  -19.6180 C.3   139  LEU139      0.0001
    129  CD2      -28.2730  -14.5860  -17.7360 C.3   139  LEU139      0.0001
    130  N        -23.6490  -11.8830  -17.8070 N.3   149  ALA149     -0.1231
    131  CA       -24.6740  -10.8430  -17.7090 C.3   149  ALA149      0.1694
    132  C        -24.0420   -9.4670  -17.4750 C.2   149  ALA149      0.2592
    133  O        -22.8370   -9.3690  -17.2440 O.2   149  ALA149     -0.2718
    134  CB       -25.6590  -11.1710  -16.6000 C.3   149  ALA149      0.0304
    135  N        -24.8520   -8.4090  -17.5360 N.am  150  ASP150     -0.1974
    136  CA       -24.3260   -7.0420  -17.5040 C.3   150  ASP150      0.1709
    137  C        -23.6730   -6.7020  -16.1670 C.2   150  ASP150      0.2293
    138  O        -23.9710   -7.3030  -15.1330 O.2   150  ASP150     -0.2864
    139  CB       -25.4280   -6.0140  -17.8240 C.3   150  ASP150      0.1436
    140  CG       -26.3330   -5.7200  -16.6370 C.2   150  ASP150      0.3671
    141  OD1      -26.6230   -6.6440  -15.8470 O.co2 150  ASP150     -0.2456
    142  OD2      -26.7630   -4.5570  -16.4960 O.co2 150  ASP150     -0.2456
@<TRIPOS>BOND
     1    66    67    1
     2    66    63    1
     3    70    68   ar
     4    67    68    1
     5    68    69   ar
     6    63    62    1
     7    63    64    1
     8    74    73    2
     9    71    64   am
    10    71    72    1
    11    62    56   am
    12    75    72    1
    13    75    76    1
    14    64    65    2
    15    57    56    2
    16    56    55    1
    17    78    76   ar
    18    78    80   ar
    19    72    73    1
    20    73    82   am
    21    76    77   ar
    22    80    81   ar
    23    55    54    1
    24    55    58    1
    25    33    34    1
    26    49    50    2
    27    49    48    1
    28    88    89    1
    29    88    84   am
    30    82    83    1
    31    83    84    1
    32    83    86    1
    33    89    90    1
    34    77    79   ar
    35    48    47    1
    36    48    51    1
    37    81    79   ar
    38    58    59    1
    39    87    86    1
    40    84    85    2
    41    36    35    2
    42    53    51    1
    43    34    35    1
    44    34    37    1
    45    59    60    1
    46    90    92   am
    47    90    91    2
    48    51    52    1
    49    92    93    1
    50     1     2    1
    51     8     7    2
    52    96    93    1
    53     6     7    1
    54     6     5    1
    55    60    61    1
    56    93    94    1
    57     7     9   am
    58   125   124    2
    59     5     2    1
    60     2     3    1
    61   124   123    1
    62     4     3    2
    63   126   123    1
    64   126   127    1
    65   128   127    1
    66    97    94   am
    67    97    98    1
    68    94    95    2
    69    16    15    1
    70    38    39    1
    71    17    15    1
    72   123   122    1
    73   127   129    1
    74    15    14    1
    75   100    99    2
    76    98    99    1
    77    41    40    2
    78    39    40    1
    79    39    42    1
    80   139   136    1
    81   139   140    1
    82   130   131    1
    83   131   132    1
    84   131   134    1
    85    31    30    1
    86   135   136    1
    87   135   132   am
    88    42    43    1
    89   136   137    1
    90   132   133    2
    91    28    29    2
    92    28    27    1
    93    14    11    1
    94    10    11    1
    95   140   142   ar
    96   140   141   ar
    97    11    12    1
    98    27    30    1
    99    27    26    1
   100    30    32    1
   101   137   138    2
   102    43    44    1
   103    44    45    1
   104   117   116    2
   105    12    13    2
   106    12    18   am
   107   116   115    1
   108    45    46    1
   109   108   106   ar
   110    18    19    1
   111   105   106    1
   112   105   102    1
   113   106   107   ar
   114   115   118    1
   115   115   114    1
   116   103   104    2
   117   103   102    1
   118    21    20    2
   119   112   111    2
   120   118   119    1
   121   102   101    1
   122    19    20    1
   123   114   111   am
   124   120   119    2
   125   111   110    1
   126    20    22   am
   127   119   121   am
   128   110   109    1
   129   110   113    1
   130    22    23    1
   131    23    24    1
   132    24    25    2
