@<TRIPOS>MOLECULE
tmp/6cqhB00.pdb
 166 156 0 0 0
SMALL
GASTEIGER

@<TRIPOS>ATOM
      1  N        -36.2860    7.0210   52.1800 N.3    22  ILE22      -0.1231
      2  CA       -35.7420    5.6610   52.3630 C.3    22  ILE22       0.1692
      3  C        -35.0710    5.4670   53.7300 C.2    22  ILE22       0.2592
      4  O        -35.3390    4.4720   54.4100 O.2    22  ILE22      -0.2718
      5  CB       -34.8190    5.2180   51.1870 C.3    22  ILE22       0.0266
      6  CG1      -33.6990    6.2280   50.9070 C.3    22  ILE22       0.0019
      7  CG2      -35.6400    5.0090   49.9170 C.3    22  ILE22       0.0020
      8  CD1      -32.8140    5.8560   49.7370 C.3    22  ILE22       0.0001
      9  N        -34.2310    6.4190   54.1380 N.am   23  GLY23      -0.1957
     10  CA       -33.5640    6.3770   55.4480 C.3    23  GLY23       0.1869
     11  C        -33.1830    7.7610   55.9570 C.2    23  GLY23       0.2309
     12  O        -32.4690    8.5010   55.2730 O.2    23  GLY23      -0.2863
     13  N        -32.6860   11.1740   53.1220 N.3    30  ILE30      -0.1245
     14  CA       -32.4390   10.6560   51.7630 C.3    30  ILE30       0.1561
     15  C        -33.7480   10.1580   51.1270 C.2    30  ILE30       0.2260
     16  O        -34.5180    9.4590   51.7730 O.2    30  ILE30      -0.2867
     17  CB       -31.3790    9.5270   51.7650 C.3    30  ILE30       0.0252
     18  CG1      -30.0840   10.0050   52.4530 C.3    30  ILE30       0.0019
     19  CG2      -31.0860    9.0600   50.3380 C.3    30  ILE30       0.0019
     20  CD1      -29.1130    8.9000   52.8180 C.3    30  ILE30       0.0001
     21  N        -35.7930    8.7620   47.2060 N.3    32  LEU32      -0.1245
     22  CA       -35.6710    8.3280   45.8060 C.3    32  LEU32       0.1561
     23  C        -35.8100    9.5480   44.8930 C.2    32  LEU32       0.2260
     24  O        -36.3430   10.5820   45.3000 O.2    32  LEU32      -0.2867
     25  CB       -36.7160    7.2620   45.4440 C.3    32  LEU32       0.0270
     26  CG       -36.5880    5.8910   46.1290 C.3    32  LEU32       0.0019
     27  CD1      -37.7880    5.0040   45.8250 C.3    32  LEU32       0.0001
     28  CD2      -35.2960    5.1890   45.7330 C.3    32  LEU32       0.0001
     29  N        -30.9920    8.7660   43.9450 N.3    48  VAL48      -0.1245
     30  CA       -31.4560    9.2700   45.2210 C.3    48  VAL48       0.1561
     31  C        -31.0990   10.7340   45.3270 C.2    48  VAL48       0.2260
     32  O        -30.2110   11.2090   44.6190 O.2    48  VAL48      -0.2867
     33  CB       -30.8780    8.4850   46.4230 C.3    48  VAL48       0.0252
     34  CG1      -31.2380    7.0170   46.3120 C.3    48  VAL48       0.0019
     35  CG2      -29.3640    8.6670   46.5660 C.3    48  VAL48       0.0019
     36  N        -29.9820   13.4290   48.4140 N.3    50  LYS50      -0.1245
     37  CA       -29.5770   13.6780   49.8050 C.3    50  LYS50       0.1561
     38  C        -29.8320   15.1470   50.1040 C.2    50  LYS50       0.2260
     39  O        -29.5070   15.9820   49.2840 O.2    50  LYS50      -0.2867
     40  CB       -28.0990   13.3270   50.0030 C.3    50  LYS50       0.0271
     41  CG       -27.7420   11.9340   49.5000 C.3    50  LYS50       0.0035
     42  CD       -26.2730   11.5710   49.6940 C.3    50  LYS50       0.0206
     43  CE       -25.9170   11.3970   51.1580 C.3    50  LYS50       0.1093
     44  NZ       -24.6590   10.6090   51.3400 N.3    50  LYS50      -0.1314
     45  N        -19.1190   16.4040   51.7700 N.3    62  GLU62      -0.1245
     46  CA       -19.3540   15.3710   50.7730 C.3    62  GLU62       0.1567
     47  C        -19.3880   15.9370   49.3250 C.2    62  GLU62       0.2260
     48  O        -18.7960   15.3780   48.4050 O.2    62  GLU62      -0.2867
     49  CB       -20.6430   14.6230   51.1240 C.3    62  GLU62       0.0388
     50  CG       -20.8050   13.3260   50.3800 C.3    62  GLU62       0.1160
     51  CD       -21.8120   12.3680   50.9990 C.2    62  GLU62       0.3649
     52  OE1      -22.8200   12.7980   51.6190 O.co2  62  GLU62      -0.2457
     53  OE2      -21.5880   11.1450   50.8190 O.co2  62  GLU62      -0.2457
     54  N        -16.8650   15.1510   46.0590 N.3    66  TYR66      -0.1241
     55  CA       -17.3150   14.7130   44.7310 C.3    66  TYR66       0.1605
     56  C        -16.8630   15.6570   43.6040 C.2    66  TYR66       0.2264
     57  O        -16.4100   15.1910   42.5550 O.2    66  TYR66      -0.2867
     58  CB       -18.8270   14.4510   44.6950 C.3    66  TYR66       0.0534
     59  CG       -19.1940   13.0850   45.2570 C.ar   66  TYR66      -0.0201
     60  CD1      -18.9500   11.9200   44.5200 C.ar   66  TYR66      -0.0009
     61  CD2      -19.7770   12.9510   46.5180 C.ar   66  TYR66      -0.0009
     62  CE1      -19.2600   10.6700   45.0310 C.ar   66  TYR66       0.0417
     63  CE2      -20.0930   11.7040   47.0310 C.ar   66  TYR66       0.0417
     64  CZ       -19.8290   10.5680   46.2920 C.ar   66  TYR66       0.1957
     65  OH       -20.1520    9.3230   46.7800 O.3    66  TYR66      -0.2866
     66  N        -19.6050    5.9380   44.1800 N.3    90  PRO90      -0.2116
     67  CA       -20.9040    6.2880   43.5580 C.3    90  PRO90       0.1372
     68  C        -20.8360    7.3650   42.4850 C.2    90  PRO90       0.2244
     69  O        -19.9660    8.2350   42.5350 O.2    90  PRO90      -0.2868
     70  CB       -21.7350    6.8130   44.7410 C.3    90  PRO90       0.0268
     71  CG       -21.1310    6.2080   45.9340 C.3    90  PRO90       0.0207
     72  CD       -19.6770    6.0120   45.6490 C.3    90  PRO90       0.0892
     73  N        -27.4600   11.3210   43.6830 N.3   106  MET106     -0.1230
     74  CA       -26.5000   10.2310   43.6090 C.3   106  MET106      0.1702
     75  C        -27.1340    8.9920   43.0190 C.2   106  MET106      0.2592
     76  O        -28.3510    8.9190   42.8950 O.2   106  MET106     -0.2718
     77  CB       -26.0120    9.9110   45.0180 C.3   106  MET106      0.0401
     78  CG       -25.4380   11.0970   45.7910 C.3   106  MET106      0.0596
     79  SD       -24.0080   11.8720   45.0120 S.3   106  MET106     -0.1393
     80  CE       -22.8560   10.5050   44.9930 C.3   106  MET106      0.0692
     81  N        -26.3140    8.0050   42.6700 N.am  107  ASP107     -0.1960
     82  CA       -26.8310    6.6730   42.3470 C.3   107  ASP107      0.1840
     83  C        -27.8030    6.1460   43.4210 C.2   107  ASP107      0.2622
     84  O        -27.5850    6.3500   44.6220 O.2   107  ASP107     -0.2715
     85  CB       -25.6960    5.6390   42.2410 C.3   107  ASP107      0.1450
     86  CG       -24.9750    5.6540   40.8960 C.2   107  ASP107      0.3671
     87  OD1      -25.5750    6.0130   39.8470 O.co2 107  ASP107     -0.2456
     88  OD2      -23.7690    5.2910   40.9110 O.co2 107  ASP107     -0.2456
     89  N        -28.8520    5.4560   42.9690 N.am  108  ARG108     -0.1963
     90  CA       -29.6300    4.5780   43.8300 C.3   108  ARG108      0.1729
     91  C        -28.9590    3.1870   43.8080 C.2   108  ARG108      0.2616
     92  O        -28.6710    2.6370   42.7420 O.2   108  ARG108     -0.2715
     93  CB       -31.0950    4.5200   43.3700 C.3   108  ARG108      0.0348
     94  CG       -31.9950    3.6390   44.2190 C.3   108  ARG108      0.0492
     95  CD       -32.0630    2.2280   43.6650 C.3   108  ARG108      0.2205
     96  NE       -32.8690    1.3270   44.4840 N.pl3 108  ARG108     -0.0865
     97  CZ       -34.1910    1.2040   44.4270 C.cat 108  ARG108      0.5346
     98  NH1      -34.9280    1.9460   43.5970 N.pl3 108  ARG108      0.1354
     99  NH2      -34.7930    0.3290   45.2270 N.pl3 108  ARG108      0.1354
    100  N        -28.7180    2.6310   44.9890 N.am  109  PHE109     -0.1960
    101  CA       -28.1410    1.2940   45.1470 C.3   109  PHE109      0.1771
    102  C        -29.1910    0.2920   45.6120 C.2   109  PHE109      0.2620
    103  O        -30.3600    0.6420   45.8010 O.2   109  PHE109     -0.2715
    104  CB       -26.9650    1.3710   46.1380 C.3   109  PHE109      0.0574
    105  CG       -25.8190    2.1890   45.6250 C.ar  109  PHE109     -0.0200
    106  CD1      -25.0510    1.7260   44.5560 C.ar  109  PHE109     -0.0042
    107  CD2      -25.5340    3.4320   46.1650 C.ar  109  PHE109     -0.0042
    108  CE1      -24.0010    2.4770   44.0540 C.ar  109  PHE109     -0.0003
    109  CE2      -24.4850    4.1870   45.6730 C.ar  109  PHE109     -0.0003
    110  CZ       -23.7170    3.7110   44.6100 C.ar  109  PHE109     -0.0000
    111  N        -28.7750   -0.9640   45.7460 N.am  110  GLY110     -0.1940
    112  CA       -29.5920   -1.9970   46.3750 C.3   110  GLY110      0.2014
    113  C        -29.3760   -2.0000   47.8810 C.2   110  GLY110      0.2640
    114  O        -29.2760   -0.9420   48.5040 O.2   110  GLY110     -0.2714
    115  N        -29.2780   -3.1920   48.4630 N.am  111  SER111     -0.1935
    116  CA       -29.1310   -3.3350   49.9150 C.3   111  SER111      0.2055
    117  C        -27.7610   -2.8760   50.4250 C.2   111  SER111      0.2643
    118  O        -26.7840   -2.8610   49.6800 O.2   111  SER111     -0.2714
    119  CB       -29.3370   -4.7810   50.3330 C.3   111  SER111      0.2130
    120  OG       -29.1800   -4.8950   51.7340 O.3   111  SER111     -0.2179
    121  N        -27.7070   -2.5020   51.6980 N.am  112  ASP112     -0.1971
    122  CA       -26.4240   -2.3330   52.3830 C.3   112  ASP112      0.1709
    123  C        -25.9560   -3.7170   52.8480 C.2   112  ASP112      0.2293
    124  O        -26.7670   -4.6440   52.9540 O.2   112  ASP112     -0.2864
    125  CB       -26.5290   -1.3100   53.5300 C.3   112  ASP112      0.1436
    126  CG       -27.2400   -1.8460   54.7550 C.2   112  ASP112      0.3671
    127  OD1      -28.1430   -2.6770   54.6250 O.co2 112  ASP112     -0.2456
    128  OD2      -26.9140   -1.4200   55.8620 O.co2 112  ASP112     -0.2456
    129  N        -27.3620   -5.2270   56.6930 N.3   115  LYS115     -0.1245
    130  CA       -28.6280   -5.9510   56.6820 C.3   115  LYS115      0.1561
    131  C        -28.4140   -7.4110   56.2520 C.2   115  LYS115      0.2260
    132  O        -28.9470   -8.3170   56.8850 O.2   115  LYS115     -0.2867
    133  CB       -29.6410   -5.2500   55.7670 C.3   115  LYS115      0.0271
    134  CG       -31.0800   -5.7400   55.9140 C.3   115  LYS115      0.0035
    135  CD       -32.0880   -4.7630   55.2890 C.3   115  LYS115      0.0206
    136  CE       -32.6620   -5.2330   53.9600 C.3   115  LYS115      0.1093
    137  NZ       -33.9080   -6.0330   54.1440 N.3   115  LYS115     -0.1314
    138  N        -22.5940   -0.9920   56.9810 N.3   156  SER156     -0.1217
    139  CA       -23.7400   -0.0950   56.7120 C.3   156  SER156      0.1889
    140  C        -23.4270    1.0250   55.7040 C.2   156  SER156      0.2288
    141  O        -24.3550    1.6180   55.1570 O.2   156  SER156     -0.2866
    142  CB       -24.3120    0.5000   58.0140 C.3   156  SER156      0.2089
    143  OG       -23.3280    1.2380   58.7020 O.3   156  SER156     -0.2183
    144  N        -22.8170   -0.5780   50.0240 N.3   159  LEU159     -0.1245
    145  CA       -24.0580   -0.8900   49.3260 C.3   159  LEU159      0.1561
    146  C        -23.7930   -1.5910   47.9930 C.2   159  LEU159      0.2260
    147  O        -22.7970   -1.3140   47.3140 O.2   159  LEU159     -0.2867
    148  CB       -24.8540    0.3970   49.0920 C.3   159  LEU159      0.0270
    149  CG       -25.5810    1.0560   50.2800 C.3   159  LEU159      0.0019
    150  CD1      -24.6990    1.2910   51.5000 C.3   159  LEU159      0.0001
    151  CD2      -26.2260    2.3660   49.8390 C.3   159  LEU159      0.0001
    152  N        -20.1630    4.2260   50.4130 N.3   171  VAL171     -0.1231
    153  CA       -20.9150    5.4860   50.4650 C.3   171  VAL171      0.1692
    154  C        -20.5620    6.3380   51.7060 C.2   171  VAL171      0.2592
    155  O        -19.7920    5.9220   52.5700 O.2   171  VAL171     -0.2718
    156  CB       -22.4510    5.2440   50.3720 C.3   171  VAL171      0.0266
    157  CG1      -22.8080    4.4580   49.1180 C.3   171  VAL171      0.0020
    158  CG2      -23.0220    4.5180   51.5910 C.3   171  VAL171      0.0020
    159  N        -21.1360    7.5380   51.7450 N.am  172  ASP172     -0.1974
    160  CA       -21.0650    8.4770   52.8610 C.3   172  ASP172      0.1709
    161  C        -19.6470    9.0080   53.0430 C.2   172  ASP172      0.2293
    162  O        -18.8460    8.4370   53.7910 O.2   172  ASP172     -0.2864
    163  CB       -21.6280    7.8640   54.1560 C.3   172  ASP172      0.1436
    164  CG       -21.8800    8.9160   55.2570 C.2   172  ASP172      0.3671
    165  OD1      -21.3340   10.0470   55.1930 O.co2 172  ASP172     -0.2456
    166  OD2      -22.6240    8.5910   56.2010 O.co2 172  ASP172     -0.2456
@<TRIPOS>BOND
     1    87    86   ar
     2    86    88   ar
     3    86    85    1
     4    85    82    1
     5    82    81    1
     6    82    83    1
     7    68    69    2
     8    68    67    1
     9    57    56    2
    10    81    75   am
    11    92    91    2
    12    76    75    2
    13    89    83   am
    14    89    90    1
    15    75    74    1
    16    93    90    1
    17    93    94    1
    18    83    84    2
    19    67    66    1
    20    67    70    1
    21    98    97    1
    22    56    55    1
    23    74    73    1
    24    74    77    1
    25    95    94    1
    26    95    96    1
    27    91    90    1
    28    91   100   am
    29    29    30    1
    30   108   106   ar
    31   108   110   ar
    32    66    72    1
    33    97    96    2
    34    97    99    1
    35    60    62   ar
    36    60    59   ar
    37   106   105   ar
    38   110   109   ar
    39    32    31    2
    40    58    55    1
    41    58    59    1
    42    55    54    1
    43    70    71    1
    44    23    24    2
    45    23    22    1
    46   100   101    1
    47    80    79    1
    48    79    78    1
    49    77    78    1
    50    62    64   ar
    51   101   102    1
    52   101   104    1
    53    30    31    1
    54    30    33    1
    55    59    61   ar
    56    25    22    1
    57    25    26    1
    58   102   111   am
    59   102   103    2
    60   105   104    1
    61   105   107   ar
    62    72    71    1
    63   109   107   ar
    64    28    26    1
    65   111   112    1
    66    22    21    1
    67    27    26    1
    68    64    65    1
    69    64    63   ar
    70    34    33    1
    71   112   113    1
    72    33    35    1
    73    61    63   ar
    74   147   146    2
    75   113   115   am
    76   113   114    2
    77   146   145    1
    78    48    47    2
    79    36    37    1
    80   115   116    1
    81   148   145    1
    82   148   149    1
    83   157   156    1
    84    39    38    2
    85    47    46    1
    86   145   144    1
    87    41    42    1
    88    41    40    1
    89   118   117    2
    90    42    43    1
    91     8     6    1
    92    37    40    1
    93    37    38    1
    94   151   149    1
    95   116   119    1
    96   116   117    1
    97     7     5    1
    98   149   150    1
    99   119   120    1
   100    19    17    1
   101   156   153    1
   102   156   158    1
   103    50    51    1
   104    50    49    1
   105   152   153    1
   106   117   121   am
   107   153   154    1
   108    46    49    1
   109    46    45    1
   110    53    51   ar
   111     6     5    1
   112    51    52   ar
   113    15    14    1
   114    15    16    2
   115    43    44    1
   116     5     2    1
   117   121   122    1
   118   154   159   am
   119   154   155    2
   120   159   160    1
   121    14    17    1
   122    14    13    1
   123    17    18    1
   124     1     2    1
   125     2     3    1
   126   122   123    1
   127   122   125    1
   128    18    20    1
   129   123   124    2
   130   160   161    1
   131   160   163    1
   132   161   162    2
   133   125   126    1
   134     3     9   am
   135     3     4    2
   136   136   137    1
   137   136   135    1
   138     9    10    1
   139   163   164    1
   140   127   126   ar
   141   126   128   ar
   142   141   140    2
   143   165   164   ar
   144   164   166   ar
   145    12    11    2
   146   135   134    1
   147    10    11    1
   148   140   139    1
   149   133   134    1
   150   133   130    1
   151   131   130    1
   152   131   132    2
   153   130   129    1
   154   139   138    1
   155   139   142    1
   156   142   143    1
