@<TRIPOS>MOLECULE
tmp/6cqvB00.pdb
 193 192 0 0 0
SMALL
GASTEIGER

@<TRIPOS>ATOM
      1  N        -17.9560  -35.3170  357.3090 N.3    70  TYR70      -0.1241
      2  CA       -18.9460  -36.3380  357.0000 C.3    70  TYR70       0.1605
      3  C        -18.5880  -37.6470  357.6980 C.2    70  TYR70       0.2264
      4  O        -17.4200  -37.9230  357.9860 O.2    70  TYR70      -0.2867
      5  CB       -19.0240  -36.5300  355.4820 C.3    70  TYR70       0.0534
      6  CG       -19.8190  -37.7260  355.0060 C.ar   70  TYR70      -0.0201
      7  CD1      -21.1790  -37.6210  354.7420 C.ar   70  TYR70      -0.0009
      8  CD2      -19.2000  -38.9520  354.7850 C.ar   70  TYR70      -0.0009
      9  CE1      -21.9050  -38.7100  354.2930 C.ar   70  TYR70       0.0417
     10  CE2      -19.9160  -40.0440  354.3370 C.ar   70  TYR70       0.0417
     11  CZ       -21.2680  -39.9180  354.0930 C.ar   70  TYR70       0.1957
     12  OH       -21.9850  -41.0050  353.6470 O.3    70  TYR70      -0.2866
     13  N        -18.9230  -41.8490  357.6300 N.3    72  ASP72      -0.1239
     14  CA       -19.1760  -43.0220  356.8050 C.3    72  ASP72       0.1674
     15  C        -20.3030  -43.8570  357.4030 C.2    72  ASP72       0.2266
     16  O        -20.2510  -44.2410  358.5750 O.2    72  ASP72      -0.2867
     17  CB       -17.9000  -43.8570  356.6840 C.3    72  ASP72       0.1410
     18  CG       -18.0050  -44.9520  355.6340 C.2    72  ASP72       0.3668
     19  OD1      -17.0070  -45.6770  355.4400 O.co2  72  ASP72      -0.2456
     20  OD2      -19.0740  -45.0900  355.0020 O.co2  72  ASP72      -0.2456
     21  N        -21.7510  -46.5090  355.2690 N.3    74  LEU74      -0.1245
     22  CA       -21.9730  -47.5740  354.2930 C.3    74  LEU74       0.1561
     23  C        -22.2570  -48.9130  354.9610 C.2    74  LEU74       0.2260
     24  O        -23.0430  -49.7120  354.4390 O.2    74  LEU74      -0.2867
     25  CB       -20.7600  -47.6880  353.3690 C.3    74  LEU74       0.0270
     26  CG       -20.7600  -48.8240  352.3440 C.3    74  LEU74       0.0019
     27  CD1      -21.7390  -48.5310  351.2210 C.3    74  LEU74       0.0001
     28  CD2      -19.3620  -49.0390  351.7950 C.3    74  LEU74       0.0001
     29  N        -12.4000  -45.5420  361.2710 N.3    84  TRP84      -0.1241
     30  CA       -11.9920  -44.2510  360.7360 C.3    84  TRP84       0.1605
     31  C        -12.9700  -43.1340  361.0720 C.2    84  TRP84       0.2264
     32  O        -12.6560  -41.9640  360.8260 O.2    84  TRP84      -0.2867
     33  CB       -11.8300  -44.3370  359.2120 C.3    84  TRP84       0.0550
     34  CG       -11.1480  -45.5870  358.7450 C.ar   84  TRP84       0.0003
     35  CD1      -11.7340  -46.6670  358.1520 C.ar   84  TRP84       0.0946
     36  CD2       -9.7480  -45.8840  358.8260 C.ar   84  TRP84       0.0152
     37  NE1      -10.7870  -47.6200  357.8610 N.ar   84  TRP84      -0.2442
     38  CE2       -9.5600  -47.1640  358.2660 C.ar   84  TRP84       0.0810
     39  CE3       -8.6370  -45.1940  359.3180 C.ar   84  TRP84       0.0012
     40  CZ2       -8.3060  -47.7660  358.1830 C.ar   84  TRP84       0.0191
     41  CZ3       -7.3920  -45.7940  359.2350 C.ar   84  TRP84       0.0001
     42  CH2       -7.2380  -47.0670  358.6720 C.ar   84  TRP84       0.0015
     43  N         -4.9260  -39.1720  357.1920 N.3   118  GLY118     -0.1210
     44  CA        -5.6180  -39.1200  355.9250 C.3   118  GLY118      0.1956
     45  C         -7.1240  -39.0430  356.1020 C.2   118  GLY118      0.2612
     46  O         -7.6480  -38.8540  357.2010 O.2   118  GLY118     -0.2717
     47  N         -7.8280  -39.1960  354.9840 N.am  119  GLY119     -0.1956
     48  CA        -9.2730  -39.0990  354.9860 C.3   119  GLY119      0.1869
     49  C         -9.7930  -38.2630  353.8360 C.2   119  GLY119      0.2309
     50  O        -10.8340  -37.6090  353.9550 O.2   119  GLY119     -0.2863
     51  N        -11.3720  -34.5860  353.5380 N.3   122  TYR122     -0.1227
     52  CA       -12.7030  -34.2800  354.0410 C.3   122  TYR122      0.1736
     53  C        -13.0060  -34.9530  355.3720 C.2   122  TYR122      0.2596
     54  O        -14.1170  -34.7870  355.8900 O.2   122  TYR122     -0.2718
     55  CB       -13.7790  -34.6770  353.0160 C.3   122  TYR122      0.0548
     56  CG       -13.8670  -36.1650  352.7360 C.ar  122  TYR122     -0.0200
     57  CD1      -14.5930  -37.0150  353.5640 C.ar  122  TYR122     -0.0009
     58  CD2      -13.2340  -36.7170  351.6360 C.ar  122  TYR122     -0.0009
     59  CE1      -14.6690  -38.3720  353.3080 C.ar  122  TYR122      0.0417
     60  CE2      -13.3080  -38.0680  351.3740 C.ar  122  TYR122      0.0417
     61  CZ       -14.0250  -38.8890  352.2080 C.ar  122  TYR122      0.1957
     62  OH       -14.0880  -40.2330  351.9290 O.3   122  TYR122     -0.2866
     63  N        -12.0700  -35.7090  355.9380 N.am  123  SER123     -0.1938
     64  CA       -12.3530  -36.4660  357.1510 C.3   123  SER123      0.2055
     65  C        -11.0400  -36.8660  357.8100 C.2   123  SER123      0.2643
     66  O         -9.9510  -36.5910  357.2990 O.2   123  SER123     -0.2714
     67  CB       -13.2090  -37.6990  356.8510 C.3   123  SER123      0.2130
     68  OG       -12.4470  -38.6970  356.1970 O.3   123  SER123     -0.2179
     69  N        -11.1590  -37.5240  358.9540 N.am  124  GLY124     -0.1954
     70  CA       -10.0210  -37.9310  359.7520 C.3   124  GLY124      0.1869
     71  C        -10.0070  -37.2570  361.1140 C.2   124  GLY124      0.2309
     72  O        -10.7820  -36.3490  361.4050 O.2   124  GLY124     -0.2863
     73  N         -8.1230  -41.1800  366.5780 N.3   128  LEU128     -0.1245
     74  CA        -8.5120  -42.5460  366.2520 C.3   128  LEU128      0.1561
     75  C         -7.6100  -43.5450  366.9680 C.2   128  LEU128      0.2260
     76  O         -6.4090  -43.3120  367.1360 O.2   128  LEU128     -0.2867
     77  CB        -8.4570  -42.7700  364.7400 C.3   128  LEU128      0.0270
     78  CG        -9.3120  -41.8390  363.8780 C.3   128  LEU128      0.0019
     79  CD1       -9.3560  -42.3310  362.4400 C.3   128  LEU128      0.0001
     80  CD2      -10.7200  -41.7060  364.4480 C.3   128  LEU128      0.0001
     81  N         -4.2140  -44.5230  365.5600 N.3   131  TYR131     -0.1241
     82  CA        -3.1330  -43.5450  365.5680 C.3   131  TYR131      0.1605
     83  C         -2.5550  -43.3270  366.9660 C.2   131  TYR131      0.2264
     84  O         -1.9050  -42.3040  367.2070 O.2   131  TYR131     -0.2867
     85  CB        -3.6090  -42.2070  364.9960 C.3   131  TYR131      0.0534
     86  CG        -4.2420  -42.2690  363.6210 C.ar  131  TYR131     -0.0201
     87  CD1       -3.8620  -43.2440  362.6930 C.ar  131  TYR131     -0.0009
     88  CD2       -5.2220  -41.3430  363.2510 C.ar  131  TYR131     -0.0009
     89  CE1       -4.4440  -43.2990  361.4360 C.ar  131  TYR131      0.0417
     90  CE2       -5.8120  -41.3850  362.0010 C.ar  131  TYR131      0.0417
     91  CZ        -5.4200  -42.3670  361.0970 C.ar  131  TYR131      0.1957
     92  OH        -6.0030  -42.4160  359.8500 O.3   131  TYR131     -0.2866
     93  N         -0.4750  -40.8980  355.8760 N.3   200  GLU200     -0.1231
     94  CA        -1.0660  -41.9260  355.0370 C.3   200  GLU200      0.1699
     95  C         -2.1810  -41.3300  354.1930 C.2   200  GLU200      0.2592
     96  O         -2.9370  -40.4740  354.6610 O.2   200  GLU200     -0.2718
     97  CB        -1.6040  -43.0850  355.8850 C.3   200  GLU200      0.0402
     98  CG        -1.9700  -44.3320  355.1010 C.3   200  GLU200      0.1161
     99  CD        -3.4420  -44.3830  354.7500 C.2   200  GLU200      0.3649
    100  OE1       -3.8370  -45.2790  353.9770 O.co2 200  GLU200     -0.2457
    101  OE2       -4.2020  -43.5240  355.2440 O.co2 200  GLU200     -0.2457
    102  N         -2.2720  -41.7910  352.9420 N.am  201  SER201     -0.1952
    103  CA        -3.3030  -41.3560  351.9880 C.3   201  SER201      0.1924
    104  C         -3.2420  -39.8420  351.8450 C.2   201  SER201      0.2314
    105  O         -2.1800  -39.3170  351.4650 O.2   201  SER201     -0.2863
    106  CB        -4.6590  -41.9000  352.4310 C.3   201  SER201      0.2116
    107  OG        -5.5850  -41.9570  351.3560 O.3   201  SER201     -0.2180
    108  N        -20.8560  -33.4520  349.4490 N.3   279  TRP279     -0.1241
    109  CA       -20.6900  -34.4620  348.4120 C.3   279  TRP279      0.1605
    110  C        -21.4030  -34.1080  347.1110 C.2   279  TRP279      0.2264
    111  O        -21.0840  -34.6910  346.0690 O.2   279  TRP279     -0.2867
    112  CB       -21.1960  -35.7980  348.9510 C.3   279  TRP279      0.0550
    113  CG       -20.3220  -36.3850  350.0270 C.ar  279  TRP279      0.0003
    114  CD1      -20.4550  -36.2110  351.3720 C.ar  279  TRP279      0.0946
    115  CD2      -19.2340  -37.3040  349.8490 C.ar  279  TRP279      0.0152
    116  NE1      -19.4840  -36.9160  352.0400 N.ar  279  TRP279     -0.2442
    117  CE2      -18.7290  -37.6050  351.1290 C.ar  279  TRP279      0.0810
    118  CE3      -18.6300  -37.8870  348.7320 C.ar  279  TRP279      0.0012
    119  CZ2      -17.6490  -38.4630  351.3250 C.ar  279  TRP279      0.0191
    120  CZ3      -17.5570  -38.7390  348.9280 C.ar  279  TRP279      0.0001
    121  CH2      -17.0780  -39.0180  350.2150 C.ar  279  TRP279      0.0015
    122  N        -13.0110  -35.9710  345.7450 N.3   290  PHE290     -0.1241
    123  CA       -13.3990  -35.2380  346.9220 C.3   290  PHE290      0.1605
    124  C        -13.5880  -33.7950  346.5830 C.2   290  PHE290      0.2264
    125  O        -12.9120  -33.2640  345.7620 O.2   290  PHE290     -0.2867
    126  CB       -12.3210  -35.3920  347.9500 C.3   290  PHE290      0.0534
    127  CG       -11.6460  -36.7070  347.9210 C.ar  290  PHE290     -0.0203
    128  CD1      -12.3370  -37.8300  348.1670 C.ar  290  PHE290     -0.0042
    129  CD2      -10.3890  -36.7970  347.5450 C.ar  290  PHE290     -0.0042
    130  CE1      -11.7440  -39.0380  348.1170 C.ar  290  PHE290     -0.0003
    131  CE2       -9.7790  -37.9940  347.4940 C.ar  290  PHE290     -0.0003
    132  CZ       -10.4500  -39.1210  347.7790 C.ar  290  PHE290     -0.0000
    133  N        -10.4010  -51.5350  348.5550 N.3   330  TYR330     -0.1227
    134  CA       -11.2590  -50.9180  349.5650 C.3   330  TYR330      0.1736
    135  C        -12.1990  -49.8860  348.9510 C.2   330  TYR330      0.2595
    136  O        -13.3490  -49.7470  349.3840 O.2   330  TYR330     -0.2718
    137  CB       -10.4000  -50.2830  350.6620 C.3   330  TYR330      0.0548
    138  CG       -11.1040  -49.2080  351.4630 C.ar  330  TYR330     -0.0200
    139  CD1      -11.9230  -49.5380  352.5350 C.ar  330  TYR330     -0.0009
    140  CD2      -10.9420  -47.8630  351.1520 C.ar  330  TYR330     -0.0009
    141  CE1      -12.5660  -48.5590  353.2700 C.ar  330  TYR330      0.0417
    142  CE2      -11.5820  -46.8790  351.8790 C.ar  330  TYR330      0.0417
    143  CZ       -12.3920  -47.2330  352.9370 C.ar  330  TYR330      0.1957
    144  OH       -13.0320  -46.2590  353.6660 O.3   330  TYR330     -0.2866
    145  N        -11.7300  -49.1540  347.9400 N.am  331  PHE331     -0.1976
    146  CA       -12.5280  -48.0770  347.3670 C.3   331  PHE331      0.1639
    147  C        -13.6910  -48.5870  346.5280 C.2   331  PHE331      0.2290
    148  O        -14.6560  -47.8450  346.3160 O.2   331  PHE331     -0.2864
    149  CB       -11.6410  -47.1710  346.5160 C.3   331  PHE331      0.0560
    150  CG       -10.4720  -46.6000  347.2600 C.ar  331  PHE331     -0.0200
    151  CD1       -9.2060  -47.1380  347.1080 C.ar  331  PHE331     -0.0042
    152  CD2      -10.6390  -45.5210  348.1110 C.ar  331  PHE331     -0.0042
    153  CE1       -8.1290  -46.6130  347.7940 C.ar  331  PHE331     -0.0003
    154  CE2       -9.5670  -44.9910  348.7990 C.ar  331  PHE331     -0.0003
    155  CZ        -8.3090  -45.5380  348.6400 C.ar  331  PHE331     -0.0000
    156  N        -17.6070  -48.5550  347.4870 N.3   334  TYR334     -0.1241
    157  CA       -18.2760  -47.2740  347.6860 C.3   334  TYR334      0.1605
    158  C        -18.9180  -46.7420  346.4100 C.2   334  TYR334      0.2264
    159  O        -19.1070  -45.5290  346.2760 O.2   334  TYR334     -0.2867
    160  CB       -17.3050  -46.2420  348.2540 C.3   334  TYR334      0.0534
    161  CG       -16.9740  -46.4430  349.7150 C.ar  334  TYR334     -0.0201
    162  CD1      -17.7150  -45.8160  350.7110 C.ar  334  TYR334     -0.0009
    163  CD2      -15.9140  -47.2520  350.0980 C.ar  334  TYR334     -0.0009
    164  CE1      -17.4120  -45.9980  352.0500 C.ar  334  TYR334      0.0417
    165  CE2      -15.6030  -47.4370  351.4300 C.ar  334  TYR334      0.0417
    166  CZ       -16.3540  -46.8080  352.4010 C.ar  334  TYR334      0.1957
    167  OH       -16.0410  -46.9940  353.7280 O.3   334  TYR334     -0.2866
    168  N         -6.2470  -50.8150  351.3860 N.3   440  HIS440     -0.1226
    169  CA        -5.7940  -49.4770  351.7430 C.3   440  HIS440      0.1752
    170  C         -5.9830  -49.2100  353.2310 C.2   440  HIS440      0.2597
    171  O         -7.0540  -49.4580  353.7900 O.2   440  HIS440     -0.2718
    172  CB        -6.5770  -48.4540  350.9140 C.3   440  HIS440      0.0759
    173  CG        -6.1440  -47.0350  351.1140 C.ar  440  HIS440      0.0818
    174  ND1       -5.0200  -46.5070  350.5170 N.ar  440  HIS440     -0.2268
    175  CD2       -6.7000  -46.0260  351.8260 C.ar  440  HIS440      0.1154
    176  CE1       -4.8960  -45.2370  350.8620 C.ar  440  HIS440      0.1986
    177  NE2       -5.9030  -44.9210  351.6560 N.ar  440  HIS440     -0.2212
    178  N         -4.9220  -48.7200  353.8760 N.am  441  GLY441     -0.1942
    179  CA        -4.9970  -48.2340  355.2360 C.3   441  GLY441      0.2014
    180  C         -4.6510  -49.2300  356.3240 C.2   441  GLY441      0.2638
    181  O         -4.5740  -48.8340  357.4940 O.2   441  GLY441     -0.2714
    182  N         -4.4380  -50.4570  355.9540 N.am  442  TYR442     -0.1973
    183  CA        -4.2140  -51.5500  356.8490 C.3   442  TYR442      0.1639
    184  C         -2.8340  -51.8600  357.3180 C.2   442  TYR442      0.2290
    185  O         -2.6280  -52.7260  358.0980 O.2   442  TYR442     -0.2864
    186  CB        -5.1050  -52.7410  356.5160 C.3   442  TYR442      0.0560
    187  CG        -6.4980  -52.3340  356.7720 C.ar  442  TYR442     -0.0198
    188  CD1       -7.0250  -52.3800  358.0390 C.ar  442  TYR442     -0.0009
    189  CD2       -7.2550  -51.8200  355.7940 C.ar  442  TYR442     -0.0009
    190  CE1       -8.2720  -51.9530  358.2870 C.ar  442  TYR442      0.0417
    191  CE2       -8.4890  -51.3910  356.0520 C.ar  442  TYR442      0.0417
    192  CZ        -8.9780  -51.4550  357.2990 C.ar  442  TYR442      0.1957
    193  OH       -10.2160  -51.0220  357.5200 O.3   442  TYR442     -0.2866
@<TRIPOS>BOND
     1   122   123    1
     2   125   124    2
     3   111   110    2
     4   159   158    2
     5   148   147    2
     6   158   157    1
     7   149   150    1
     8   149   146    1
     9   147   146    1
    10   124   123    1
    11   123   126    1
    12   151   150   ar
    13   151   153   ar
    14   110   109    1
    15   150   152   ar
    16   146   145    1
    17   156   157    1
    18   131   129   ar
    19   131   132   ar
    20   129   127   ar
    21   157   160    1
    22   132   130   ar
    23   153   155   ar
    24   127   126    1
    25   127   128   ar
    26   145   135   am
    27   152   154   ar
    28   130   128   ar
    29   160   161    1
    30   109   112    1
    31   109   108    1
    32   133   134    1
    33   155   154   ar
    34   118   120   ar
    35   118   115   ar
    36   120   121   ar
    37   135   136    2
    38   135   134    1
    39   112   113    1
    40   134   137    1
    41   161   163   ar
    42   161   162   ar
    43   115   113   ar
    44   115   117   ar
    45   113   114   ar
    46   163   165   ar
    47   121   119   ar
    48   174   176   ar
    49   174   173   ar
    50   137   138    1
    51   162   164   ar
    52   176   177   ar
    53   172   173    1
    54   172   169    1
    55   173   175   ar
    56   117   119   ar
    57   117   116   ar
    58   140   138   ar
    59   140   142   ar
    60    27    26    1
    61   107   106    1
    62   114   116   ar
    63    60    58   ar
    64    60    61   ar
    65   168   169    1
    66   165   166   ar
    67   138   139   ar
    68   105   104    2
    69    58    56   ar
    70   177   175   ar
    71   169   170    1
    72    28    26    1
    73   104   103    1
    74   142   143   ar
    75    62    61    1
    76   103   106    1
    77   103   102    1
    78   164   166   ar
    79    61    59   ar
    80    26    25    1
    81   166   167    1
    82   139   141   ar
    83    56    55    1
    84    56    57   ar
    85   143   141   ar
    86   143   144    1
    87   102    95   am
    88    55    52    1
    89   170   171    2
    90   170   178   am
    91    59    57   ar
    92    25    22    1
    93    51    52    1
    94    12    11    1
    95    49    50    2
    96    49    48    1
    97   178   179    1
    98   100    99   ar
    99    52    53    1
   100    11     9   ar
   101    11    10   ar
   102    95    96    2
   103    95    94    1
   104     9     7   ar
   105    22    23    1
   106    22    21    1
   107    10     8   ar
   108    24    23    2
   109     7     6   ar
   110    99    98    1
   111    99   101   ar
   112     8     6   ar
   113    47    48    1
   114    47    45   am
   115    20    18   ar
   116     6     5    1
   117    94    93    1
   118    94    97    1
   119    98    97    1
   120   179   180    1
   121    53    54    2
   122    53    63   am
   123    19    18   ar
   124     5     2    1
   125    18    17    1
   126   189   191   ar
   127   189   187   ar
   128    44    45    1
   129    44    43    1
   130    63    64    1
   131   182   180   am
   132   182   183    1
   133   191   192   ar
   134    45    46    2
   135    68    67    1
   136   180   181    2
   137   186   187    1
   138   186   183    1
   139    17    14    1
   140   187   188   ar
   141    14    15    1
   142    14    13    1
   143   183   184    1
   144    67    64    1
   145     2     1    1
   146     2     3    1
   147    64    65    1
   148    66    65    2
   149   192   193    1
   150   192   190   ar
   151   184   185    2
   152    15    16    2
   153     3     4    2
   154    65    69   am
   155    37    35   ar
   156    37    38   ar
   157   188   190   ar
   158    35    34   ar
   159    40    38   ar
   160    40    42   ar
   161    38    36   ar
   162    42    41   ar
   163    34    36   ar
   164    34    33    1
   165    36    39   ar
   166    69    70    1
   167    33    30    1
   168    41    39   ar
   169    70    71    1
   170    92    91    1
   171    30    31    1
   172    30    29    1
   173    32    31    2
   174    91    89   ar
   175    91    90   ar
   176    71    72    2
   177    89    87   ar
   178    90    88   ar
   179    79    78    1
   180    87    86   ar
   181    88    86   ar
   182    86    85    1
   183    78    80    1
   184    78    77    1
   185    77    74    1
   186    85    82    1
   187    81    82    1
   188    82    83    1
   189    74    73    1
   190    74    75    1
   191    83    84    2
   192    75    76    2
