@<TRIPOS>MOLECULE
tmp/6cqyA03.pdb
 116 115 0 0 0
SMALL
GASTEIGER

@<TRIPOS>ATOM
      1  N         42.0950  -20.4870   28.4130 N.3    83  TRP83      -0.1241
      2  CA        43.3500  -21.1580   28.7230 C.3    83  TRP83       0.1605
      3  C         44.0200  -20.6210   29.9800 C.2    83  TRP83       0.2264
      4  O         45.0020  -21.2140   30.4400 O.2    83  TRP83      -0.2867
      5  CB        44.3260  -21.0350   27.5460 C.3    83  TRP83       0.0550
      6  CG        43.7430  -21.4180   26.2210 C.ar   83  TRP83       0.0003
      7  CD1       43.4590  -20.5840   25.1790 C.ar   83  TRP83       0.0946
      8  CD2       43.3710  -22.7340   25.7930 C.ar   83  TRP83       0.0152
      9  NE1       42.9350  -21.2980   24.1290 N.ar   83  TRP83      -0.2442
     10  CE2       42.8710  -22.6210   24.4800 C.ar   83  TRP83       0.0810
     11  CE3       43.4130  -23.9970   26.3920 C.ar   83  TRP83       0.0012
     12  CZ2       42.4160  -23.7210   23.7570 C.ar   83  TRP83       0.0191
     13  CZ3       42.9610  -25.0880   25.6720 C.ar   83  TRP83       0.0001
     14  CH2       42.4690  -24.9430   24.3690 C.ar   83  TRP83       0.0015
     15  N         48.5350  -29.0750   27.6940 N.3   117  GLY117     -0.1210
     16  CA        49.5870  -28.3100   27.0660 C.3   117  GLY117      0.1956
     17  C         49.6140  -26.8710   27.5500 C.2   117  GLY117      0.2612
     18  O         48.9720  -26.4940   28.5330 O.2   117  GLY117     -0.2717
     19  N         50.3750  -26.0530   26.8290 N.am  118  GLY118     -0.1942
     20  CA        50.5550  -24.6650   27.2020 C.3   118  GLY118      0.2014
     21  C         52.0070  -24.2420   27.1430 C.2   118  GLY118      0.2639
     22  O         52.4610  -23.4320   27.9570 O.2   118  GLY118     -0.2714
     23  N         52.7480  -24.8040   26.1880 N.am  119  GLY119     -0.1954
     24  CA        54.1300  -24.4200   25.9610 C.3   119  GLY119      0.1869
     25  C         55.0730  -24.6930   27.1090 C.2   119  GLY119      0.2309
     26  O         56.1290  -24.0600   27.1900 O.2   119  GLY119     -0.2863
     27  N         54.8570  -23.6610   29.9170 N.3   121  TYR121     -0.1227
     28  CA        54.8350  -22.5170   30.8150 C.3   121  TYR121      0.1736
     29  C         53.4650  -22.2470   31.4170 C.2   121  TYR121      0.2596
     30  O         53.3520  -21.3620   32.2730 O.2   121  TYR121     -0.2718
     31  CB        55.3140  -21.2450   30.0920 C.3   121  TYR121      0.0548
     32  CG        54.3290  -20.6880   29.0820 C.ar  121  TYR121     -0.0200
     33  CD1       53.3300  -19.7980   29.4690 C.ar  121  TYR121     -0.0009
     34  CD2       54.4040  -21.0420   27.7420 C.ar  121  TYR121     -0.0009
     35  CE1       52.4290  -19.2930   28.5540 C.ar  121  TYR121      0.0417
     36  CE2       53.5080  -20.5370   26.8190 C.ar  121  TYR121      0.0417
     37  CZ        52.5230  -19.6630   27.2310 C.ar  121  TYR121      0.1957
     38  OH        51.6290  -19.1580   26.3170 O.3   121  TYR121     -0.2866
     39  N         52.4280  -22.9650   30.9970 N.am  122  SER122     -0.1952
     40  CA        51.0660  -22.6620   31.4130 C.3   122  SER122      0.1924
     41  C         50.2280  -23.9280   31.3020 C.2   122  SER122      0.2314
     42  O         50.7000  -24.9750   30.8510 O.2   122  SER122     -0.2863
     43  CB        50.4720  -21.5320   30.5690 C.3   122  SER122      0.2116
     44  OG        50.3650  -21.9240   29.2100 O.3   122  SER122     -0.2180
     45  N         38.8070  -29.3300   29.8440 N.3   130  TYR130     -0.1241
     46  CA        39.3420  -30.6270   30.2330 C.3   130  TYR130      0.1605
     47  C         38.4230  -31.3700   31.1960 C.2   130  TYR130      0.2264
     48  O         38.8450  -32.3620   31.7990 O.2   130  TYR130     -0.2867
     49  CB        40.7320  -30.4690   30.8580 C.3   130  TYR130      0.0534
     50  CG        41.7340  -29.6910   30.0250 C.ar  130  TYR130     -0.0201
     51  CD1       41.6890  -29.7040   28.6350 C.ar  130  TYR130     -0.0009
     52  CD2       42.7350  -28.9480   30.6380 C.ar  130  TYR130     -0.0009
     53  CE1       42.6110  -28.9910   27.8820 C.ar  130  TYR130      0.0417
     54  CE2       43.6580  -28.2350   29.8970 C.ar  130  TYR130      0.0417
     55  CZ        43.5940  -28.2600   28.5220 C.ar  130  TYR130      0.1957
     56  OH        44.5150  -27.5470   27.7870 O.3   130  TYR130     -0.2866
     57  N         47.7630  -32.7360   24.4470 N.3   199  GLU199     -0.1231
     58  CA        47.7270  -31.8190   23.3210 C.3   199  GLU199      0.1699
     59  C         48.8320  -30.7860   23.4750 C.2   199  GLU199      0.2592
     60  O         49.1150  -30.3310   24.5880 O.2   199  GLU199     -0.2718
     61  CB        46.3510  -31.1460   23.2150 C.3   199  GLU199      0.0402
     62  CG        46.1490  -30.3070   21.9710 C.3   199  GLU199      0.1161
     63  CD        46.5200  -28.8600   22.1970 C.2   199  GLU199      0.3649
     64  OE1       46.5130  -28.0810   21.2210 O.co2 199  GLU199     -0.2457
     65  OE2       46.8190  -28.5060   23.3570 O.co2 199  GLU199     -0.2457
     66  N         49.4650  -30.4390   22.3520 N.am  200  SER200     -0.1952
     67  CA        50.5210  -29.4220   22.2890 C.3   200  SER200      0.1924
     68  C         51.6720  -29.8680   23.1820 C.2   200  SER200      0.2314
     69  O         52.2060  -30.9680   22.9600 O.2   200  SER200     -0.2863
     70  CB        49.9090  -28.0610   22.6210 C.3   200  SER200      0.2116
     71  OG        50.8480  -27.0170   22.4270 O.3   200  SER200     -0.2180
     72  N         47.0650  -19.3820   15.3650 N.3   331  TYR331     -0.1227
     73  CA        46.9290  -18.9430   16.7530 C.3   331  TYR331      0.1736
     74  C         48.1700  -18.2010   17.2330 C.2   331  TYR331      0.2595
     75  O         48.0700  -17.2440   18.0090 O.2   331  TYR331     -0.2718
     76  CB        46.6420  -20.1500   17.6470 C.3   331  TYR331      0.0548
     77  CG        46.5590  -19.8450   19.1250 C.ar  331  TYR331     -0.0200
     78  CD1       45.5260  -19.0750   19.6400 C.ar  331  TYR331     -0.0009
     79  CD2       47.5030  -20.3490   20.0090 C.ar  331  TYR331     -0.0009
     80  CE1       45.4430  -18.8030   20.9920 C.ar  331  TYR331      0.0417
     81  CE2       47.4280  -20.0830   21.3620 C.ar  331  TYR331      0.0417
     82  CZ        46.3960  -19.3100   21.8480 C.ar  331  TYR331      0.1957
     83  OH        46.3160  -19.0420   23.1940 O.3   331  TYR331     -0.2866
     84  N         49.3450  -18.6130   16.7650 N.am  332  PHE332     -0.1976
     85  CA        50.5930  -18.0630   17.2720 C.3   332  PHE332      0.1639
     86  C         50.9890  -16.7610   16.5910 C.2   332  PHE332      0.2290
     87  O         51.7900  -16.0050   17.1520 O.2   332  PHE332     -0.2864
     88  CB        51.6960  -19.1110   17.1230 C.3   332  PHE332      0.0560
     89  CG        51.3900  -20.3910   17.8410 C.ar  332  PHE332     -0.0200
     90  CD1       50.6920  -21.4080   17.2090 C.ar  332  PHE332     -0.0042
     91  CD2       51.7660  -20.5610   19.1620 C.ar  332  PHE332     -0.0042
     92  CE1       50.3870  -22.5770   17.8790 C.ar  332  PHE332     -0.0003
     93  CE2       51.4710  -21.7290   19.8360 C.ar  332  PHE332     -0.0003
     94  CZ        50.7790  -22.7390   19.1960 C.ar  332  PHE332     -0.0000
     95  N         44.9650  -23.8260   16.6660 N.3   441  HIS441     -0.1226
     96  CA        45.6210  -24.7260   17.6040 C.3   441  HIS441      0.1752
     97  C         44.7840  -24.9140   18.8630 C.2   441  HIS441      0.2596
     98  O         44.4500  -23.9440   19.5500 O.2   441  HIS441     -0.2718
     99  CB        46.9960  -24.1480   17.9510 C.3   441  HIS441      0.0759
    100  CG        47.8540  -25.0490   18.7820 C.ar  441  HIS441      0.0818
    101  ND1       48.4580  -26.1800   18.2760 N.ar  441  HIS441     -0.2268
    102  CD2       48.2310  -24.9700   20.0800 C.ar  441  HIS441      0.1154
    103  CE1       49.1600  -26.7650   19.2300 C.ar  441  HIS441      0.1986
    104  NE2       49.0390  -26.0500   20.3340 N.ar  441  HIS441     -0.2212
    105  N         44.4270  -26.1650   19.1500 N.am  442  GLY442     -0.1957
    106  CA        43.7970  -26.5230   20.4030 C.3   442  GLY442      0.1869
    107  C         42.2870  -26.5950   20.4030 C.2   442  GLY442      0.2309
    108  O         41.7030  -26.8720   21.4580 O.2   442  GLY442     -0.2863
    109  N         40.0420  -29.9560   21.1730 N.3   445  ILE445     -0.1245
    110  CA        40.0020  -30.5150   22.5250 C.3   445  ILE445      0.1561
    111  C         38.5750  -30.5440   23.0550 C.2   445  ILE445      0.2260
    112  O         38.1190  -31.5550   23.6040 O.2   445  ILE445     -0.2867
    113  CB        40.9250  -29.7170   23.4630 C.3   445  ILE445      0.0252
    114  CG1       42.3820  -29.8110   23.0080 C.3   445  ILE445      0.0019
    115  CG2       40.7800  -30.2060   24.8960 C.3   445  ILE445      0.0019
    116  CD1       43.3190  -28.9350   23.8140 C.3   445  ILE445      0.0001
@<TRIPOS>BOND
     1    72    73    1
     2    86    87    2
     3    86    85    1
     4    95    96    1
     5    73    74    1
     6    73    76    1
     7    84    74   am
     8    84    85    1
     9    88    85    1
    10    88    89    1
    11    90    89   ar
    12    90    92   ar
    13    74    75    2
    14    96    99    1
    15    96    97    1
    16    76    77    1
    17    89    91   ar
    18    92    94   ar
    19    99   100    1
    20   101   100   ar
    21   101   103   ar
    22   100   102   ar
    23    97   105   am
    24    97    98    2
    25    77    78   ar
    26    77    79   ar
    27   105   106    1
    28    91    93   ar
    29    94    93   ar
    30   103   104   ar
    31    78    80   ar
    32    79    81   ar
    33   102   104   ar
    34   106   107    1
    35   107   108    2
    36    80    82   ar
    37   109   110    1
    38    64    63   ar
    39    81    82   ar
    40    82    83    1
    41    62    63    1
    42    62    61    1
    43    63    65   ar
    44    67    66    1
    45    67    70    1
    46    67    68    1
    47    66    59   am
    48    71    70    1
    49   110   111    1
    50   110   113    1
    51    69    68    2
    52   114   113    1
    53   114   116    1
    54   111   112    2
    55    61    58    1
    56    58    59    1
    57    58    57    1
    58   113   115    1
    59    59    60    2
    60    12    14   ar
    61    12    10   ar
    62     9    10   ar
    63     9     7   ar
    64    14    13   ar
    65    10     8   ar
    66     7     6   ar
    67    13    11   ar
    68     8     6   ar
    69     8    11   ar
    70    24    23    1
    71    24    25    1
    72    23    21   am
    73     6     5    1
    74    38    37    1
    75    36    37   ar
    76    36    34   ar
    77    19    20    1
    78    19    17   am
    79    16    17    1
    80    16    15    1
    81    25    26    2
    82    21    20    1
    83    21    22    2
    84    37    35   ar
    85     5     2    1
    86    17    18    2
    87    34    32   ar
    88    56    55    1
    89    53    55   ar
    90    53    51   ar
    91     1     2    1
    92    55    54   ar
    93    35    33   ar
    94    51    50   ar
    95     2     3    1
    96    32    33   ar
    97    32    31    1
    98    44    43    1
    99    45    46    1
   100    54    52   ar
   101    27    28    1
   102     3     4    2
   103    50    52   ar
   104    50    49    1
   105    31    28    1
   106    46    49    1
   107    46    47    1
   108    43    40    1
   109    28    29    1
   110    42    41    2
   111    39    40    1
   112    39    29   am
   113    47    48    2
   114    41    40    1
   115    29    30    2
