@<TRIPOS>MOLECULE
tmp/6cr0A00.pdb
 97 93 0 0 0
SMALL
GASTEIGER

@<TRIPOS>ATOM
      1  N         96.8900   63.8080   97.0820 N.3    80  LEU80      -0.1245
      2  CA        98.1690   64.4460   96.7640 C.3    80  LEU80       0.1561
      3  C         99.3670   63.6740   97.3110 C.2    80  LEU80       0.2260
      4  O        100.3730   63.5220   96.6120 O.2    80  LEU80      -0.2867
      5  CB        98.1830   65.8860   97.3010 C.3    80  LEU80       0.0270
      6  CG        97.2340   66.8270   96.5650 C.3    80  LEU80       0.0019
      7  CD1       97.2000   68.1660   97.2740 C.3    80  LEU80       0.0001
      8  CD2       97.6560   67.0140   95.1260 C.3    80  LEU80       0.0001
      9  N        100.5850   60.8590   95.1500 N.3    83  LEU83      -0.1245
     10  CA       101.1590   61.1700   93.8380 C.3    83  LEU83       0.1561
     11  C        102.4370   60.3920   93.6010 C.2    83  LEU83       0.2260
     12  O        103.3520   60.3750   94.4360 O.2    83  LEU83      -0.2867
     13  CB       101.4210   62.6600   93.7370 C.3    83  LEU83       0.0270
     14  CG       101.9270   63.1530   92.3950 C.3    83  LEU83       0.0019
     15  CD1      100.8690   62.9910   91.2980 C.3    83  LEU83       0.0001
     16  CD2      102.3320   64.6050   92.5360 C.3    83  LEU83       0.0001
     17  N        105.2440   63.2160   88.5500 N.3    86  ALA86      -0.1245
     18  CA       104.8490   64.5330   88.0690 C.3    86  ALA86       0.1562
     19  C        105.6860   64.8380   86.8390 C.2    86  ALA86       0.2260
     20  O        106.9040   64.6050   86.8360 O.2    86  ALA86      -0.2867
     21  CB       105.0480   65.6220   89.1280 C.3    86  ALA86       0.0290
     22  N        108.1340   65.1090   92.7390 N.3   100  PRO100     -0.2116
     23  CA       107.1210   66.0400   93.2530 C.3   100  PRO100      0.1372
     24  C        107.6630   67.1000   94.1850 C.2   100  PRO100      0.2244
     25  O        107.2490   68.2590   94.0850 O.2   100  PRO100     -0.2868
     26  CB       106.1330   65.1000   93.9510 C.3   100  PRO100      0.0268
     27  CG       106.2330   63.8420   93.1420 C.3   100  PRO100      0.0207
     28  CD       107.6630   63.7110   92.7880 C.3   100  PRO100      0.0892
     29  N        109.3080   69.6730   92.1380 N.3   103  PHE103     -0.1227
     30  CA       108.3120   70.4000   91.3550 C.3   103  PHE103      0.1736
     31  C        107.6220   71.4310   92.2240 C.2   103  PHE103      0.2595
     32  O        107.5100   72.6060   91.8430 O.2   103  PHE103     -0.2718
     33  CB       107.3010   69.4160   90.7620 C.3   103  PHE103      0.0547
     34  CG       106.6930   69.8670   89.4640 C.ar  103  PHE103     -0.0202
     35  CD1      106.5630   71.2030   89.1650 C.ar  103  PHE103     -0.0042
     36  CD2      106.2760   68.9390   88.5390 C.ar  103  PHE103     -0.0042
     37  CE1      106.0230   71.5940   87.9640 C.ar  103  PHE103     -0.0003
     38  CE2      105.7240   69.3270   87.3460 C.ar  103  PHE103     -0.0003
     39  CZ       105.5800   70.6430   87.0700 C.ar  103  PHE103     -0.0000
     40  N        107.2020   71.0170   93.4250 N.am  104  ASP104     -0.1974
     41  CA       106.5560   71.9350   94.3660 C.3   104  ASP104      0.1709
     42  C        107.4800   73.0880   94.7420 C.2   104  ASP104      0.2293
     43  O        107.0440   74.2370   94.8170 O.2   104  ASP104     -0.2864
     44  CB       106.1270   71.1920   95.6330 C.3   104  ASP104      0.1436
     45  CG       104.9920   70.2380   95.4060 C.2   104  ASP104      0.3671
     46  OD1      104.3480   70.2810   94.3400 O.co2 104  ASP104     -0.2456
     47  OD2      104.7330   69.4160   96.3090 O.co2 104  ASP104     -0.2456
     48  N        107.8400   75.4250   91.5550 N.3   107  TYR107     -0.1227
     49  CA       106.5590   76.0930   91.2870 C.3   107  TYR107      0.1736
     50  C        106.2190   77.1350   92.3590 C.2   107  TYR107      0.2596
     51  O        105.8840   78.2850   92.0360 O.2   107  TYR107     -0.2718
     52  CB       105.4500   75.0390   91.1580 C.3   107  TYR107      0.0548
     53  CG       104.0590   75.6030   90.8890 C.ar  107  TYR107     -0.0200
     54  CD1      103.7460   76.2130   89.6670 C.ar  107  TYR107     -0.0009
     55  CD2      103.0710   75.5160   91.8460 C.ar  107  TYR107     -0.0009
     56  CE1      102.4790   76.7360   89.4340 C.ar  107  TYR107      0.0417
     57  CE2      101.7920   76.0230   91.6140 C.ar  107  TYR107      0.0417
     58  CZ       101.5090   76.6360   90.4110 C.ar  107  TYR107      0.1957
     59  OH       100.2550   77.1330   90.1830 O.3   107  TYR107     -0.2866
     60  N        106.3000   76.7680   93.6410 N.am  108  THR108     -0.1953
     61  CA       105.9230   77.7260   94.6700 C.3   108  THR108      0.1897
     62  C        106.9020   78.8920   94.7570 C.2   108  THR108      0.2313
     63  O        106.4860   80.0230   95.0290 O.2   108  THR108     -0.2863
     64  CB       105.7820   77.0580   96.0460 C.3   108  THR108      0.1794
     65  OG1      107.0150   76.4560   96.4450 O.3   108  THR108     -0.2208
     66  CG2      104.6520   76.0190   96.0640 C.3   108  THR108      0.0378
     67  N         94.3260   73.0310   94.5200 N.3   198  LYS198     -0.1245
     68  CA        94.4830   71.5950   94.3090 C.3   198  LYS198      0.1561
     69  C         93.9770   70.6910   95.4200 C.2   198  LYS198      0.2260
     70  O         93.7170   69.5190   95.1360 O.2   198  LYS198     -0.2867
     71  CB        95.9580   71.2550   94.0630 C.3   198  LYS198      0.0271
     72  CG        96.8810   71.4120   95.2560 C.3   198  LYS198      0.0035
     73  CD        98.3490   71.1130   94.9440 C.3   198  LYS198      0.0206
     74  CE        99.2240   71.4030   96.1250 C.3   198  LYS198      0.1093
     75  NZ       100.6510   71.1340   95.8140 N.3   198  LYS198     -0.1314
     76  N        100.4670   63.5000   87.6910 N.3   301  PHE301     -0.1241
     77  CA       100.1100   64.8670   87.3600 C.3   301  PHE301      0.1605
     78  C        101.0280   65.3670   86.2620 C.2   301  PHE301      0.2264
     79  O        102.2420   65.1730   86.3370 O.2   301  PHE301     -0.2867
     80  CB       100.2440   65.8080   88.5640 C.3   301  PHE301      0.0534
     81  CG       100.0180   67.2430   88.2090 C.ar  301  PHE301     -0.0203
     82  CD1       98.7370   67.7240   88.0260 C.ar  301  PHE301     -0.0042
     83  CD2      101.0790   68.0940   88.0180 C.ar  301  PHE301     -0.0042
     84  CE1       98.5250   69.0510   87.6720 C.ar  301  PHE301     -0.0003
     85  CE2      100.8770   69.4060   87.6700 C.ar  301  PHE301     -0.0003
     86  CZ        99.6110   69.8850   87.4960 C.ar  301  PHE301     -0.0000
     87  N        101.6920   68.9940   83.8940 N.3   303  PHE303     -0.1241
     88  CA       101.4960   70.3560   83.4420 C.3   303  PHE303      0.1605
     89  C        102.0480   70.4290   82.0320 C.2   303  PHE303      0.2264
     90  O        103.1930   70.0280   81.8110 O.2   303  PHE303     -0.2867
     91  CB       102.3100   71.3430   84.2940 C.3   303  PHE303      0.0534
     92  CG       101.5320   72.3330   85.1200 C.ar  303  PHE303     -0.0203
     93  CD1      100.2130   72.6480   84.9000 C.ar  303  PHE303     -0.0042
     94  CD2      102.1910   72.9720   86.1460 C.ar  303  PHE303     -0.0042
     95  CE1       99.5670   73.5760   85.6680 C.ar  303  PHE303     -0.0003
     96  CE2      101.5510   73.8990   86.9280 C.ar  303  PHE303     -0.0003
     97  CZ       100.2310   74.2090   86.6840 C.ar  303  PHE303     -0.0000
@<TRIPOS>BOND
     1    90    89    2
     2    89    88    1
     3    88    87    1
     4    88    91    1
     5    91    92    1
     6    93    92   ar
     7    93    95   ar
     8    92    94   ar
     9    95    97   ar
    10    94    96   ar
    11    78    79    2
    12    78    77    1
    13    97    96   ar
    14    20    19    2
    15    19    18    1
    16    39    38   ar
    17    39    37   ar
    18    38    36   ar
    19    77    76    1
    20    77    80    1
    21    86    85   ar
    22    86    84   ar
    23    85    83   ar
    24    84    82   ar
    25    37    35   ar
    26    83    81   ar
    27    82    81   ar
    28    18    17    1
    29    18    21    1
    30    81    80    1
    31    36    34   ar
    32    35    34   ar
    33    56    54   ar
    34    56    58   ar
    35    34    33    1
    36    54    53   ar
    37    59    58    1
    38    58    57   ar
    39    33    30    1
    40    53    52    1
    41    53    55   ar
    42    52    49    1
    43    49    48    1
    44    49    50    1
    45    15    14    1
    46    30    29    1
    47    30    31    1
    48    57    55   ar
    49    32    31    2
    50    51    50    2
    51    31    40   am
    52    50    60   am
    53    14    16    1
    54    14    13    1
    55    22    28    1
    56    22    23    1
    57    28    27    1
    58    27    26    1
    59    23    26    1
    60    23    24    1
    61    40    41    1
    62    11    10    1
    63    11    12    2
    64    60    61    1
    65    13    10    1
    66    10     9    1
    67    71    68    1
    68    71    72    1
    69    25    24    2
    70    68    67    1
    71    68    69    1
    72    46    45   ar
    73    41    42    1
    74    41    44    1
    75    61    62    1
    76    61    64    1
    77    42    43    2
    78    62    63    2
    79    73    72    1
    80    73    74    1
    81     8     6    1
    82    70    69    2
    83    45    44    1
    84    45    47   ar
    85    75    74    1
    86    64    66    1
    87    64    65    1
    88     6     7    1
    89     6     5    1
    90     4     3    2
    91     2     1    1
    92     2     5    1
    93     2     3    1
