@<TRIPOS>MOLECULE
tmp/6cr0A01.pdb
 111 105 0 0 0
SMALL
GASTEIGER

@<TRIPOS>ATOM
      1  N        107.8400   75.4250   91.5550 N.3   107  TYR107     -0.1241
      2  CA       106.5590   76.0930   91.2870 C.3   107  TYR107      0.1605
      3  C        106.2190   77.1350   92.3590 C.2   107  TYR107      0.2264
      4  O        105.8840   78.2850   92.0360 O.2   107  TYR107     -0.2867
      5  CB       105.4500   75.0390   91.1580 C.3   107  TYR107      0.0534
      6  CG       104.0590   75.6030   90.8890 C.ar  107  TYR107     -0.0201
      7  CD1      103.7460   76.2130   89.6670 C.ar  107  TYR107     -0.0009
      8  CD2      103.0710   75.5160   91.8460 C.ar  107  TYR107     -0.0009
      9  CE1      102.4790   76.7360   89.4340 C.ar  107  TYR107      0.0417
     10  CE2      101.7920   76.0230   91.6140 C.ar  107  TYR107      0.0417
     11  CZ       101.5090   76.6360   90.4110 C.ar  107  TYR107      0.1957
     12  OH       100.2550   77.1330   90.1830 O.3   107  TYR107     -0.2866
     13  N        100.2380   77.4020   84.2830 N.3   162  GLU162     -0.1245
     14  CA        99.2490   77.8430   85.2620 C.3   162  GLU162      0.1567
     15  C         98.4880   79.0620   84.7520 C.2   162  GLU162      0.2260
     16  O         97.2480   79.1150   84.8040 O.2   162  GLU162     -0.2867
     17  CB        99.9900   78.1320   86.5770 C.3   162  GLU162      0.0388
     18  CG        99.2690   78.9650   87.6210 C.3   162  GLU162      0.1160
     19  CD        98.2820   78.1760   88.4230 C.2   162  GLU162      0.3649
     20  OE1       97.9310   77.0480   88.0120 O.co2 162  GLU162     -0.2457
     21  OE2       97.8590   78.7300   89.4850 O.co2 162  GLU162     -0.2457
     22  N         96.1200   78.3420   81.8920 N.3   165  LEU165     -0.1231
     23  CA        94.8860   77.7640   82.4020 C.3   165  LEU165      0.1693
     24  C         93.9820   78.8350   83.0110 C.2   165  LEU165      0.2592
     25  O         92.7830   78.8860   82.7270 O.2   165  LEU165     -0.2718
     26  CB        95.2260   76.7030   83.4440 C.3   165  LEU165      0.0284
     27  CG        95.4660   75.3330   82.8690 C.3   165  LEU165      0.0019
     28  CD1       96.1980   74.5190   83.9060 C.3   165  LEU165      0.0001
     29  CD2       94.1250   74.7020   82.5380 C.3   165  LEU165      0.0001
     30  N         94.5260   79.7010   83.8750 N.am  166  TYR166     -0.1976
     31  CA        93.6610   80.7000   84.5190 C.3   166  TYR166      0.1639
     32  C         93.1100   81.7080   83.5380 C.2   166  TYR166      0.2290
     33  O         91.9930   82.2110   83.7230 O.2   166  TYR166     -0.2864
     34  CB        94.4110   81.4210   85.6620 C.3   166  TYR166      0.0560
     35  CG        94.3010   80.6780   86.9870 C.ar  166  TYR166     -0.0198
     36  CD1       94.9860   79.5030   87.2130 C.ar  166  TYR166     -0.0009
     37  CD2       93.4810   81.1520   87.9970 C.ar  166  TYR166     -0.0009
     38  CE1       94.8710   78.8020   88.4270 C.ar  166  TYR166      0.0417
     39  CE2       93.3680   80.4550   89.1840 C.ar  166  TYR166      0.0417
     40  CZ        94.0610   79.3040   89.3870 C.ar  166  TYR166      0.1957
     41  OH        93.9520   78.5980   90.5910 O.3   166  TYR166     -0.2866
     42  N         94.1120   75.7080   95.1510 N.3   197  GLU197     -0.1231
     43  CA        93.8030   75.3190   93.7810 C.3   197  GLU197      0.1699
     44  C         93.9250   73.8210   93.5340 C.2   197  GLU197      0.2592
     45  O         93.5560   73.3650   92.4340 O.2   197  GLU197     -0.2718
     46  CB        94.6800   76.0990   92.7710 C.3   197  GLU197      0.0402
     47  CG        96.1310   75.7950   92.8610 C.3   197  GLU197      0.1161
     48  CD        96.9900   76.6140   91.8870 C.2   197  GLU197      0.3649
     49  OE1       96.4230   77.3850   91.0840 O.co2 197  GLU197     -0.2457
     50  OE2       98.2330   76.4200   92.0050 O.co2 197  GLU197     -0.2457
     51  N         94.3260   73.0310   94.5200 N.am  198  LYS198     -0.1980
     52  CA        94.4830   71.5950   94.3090 C.3   198  LYS198      0.1596
     53  C         93.9770   70.6910   95.4200 C.2   198  LYS198      0.2287
     54  O         93.7170   69.5190   95.1360 O.2   198  LYS198     -0.2864
     55  CB        95.9580   71.2550   94.0630 C.3   198  LYS198      0.0298
     56  CG        96.8810   71.4120   95.2560 C.3   198  LYS198      0.0038
     57  CD        98.3490   71.1130   94.9440 C.3   198  LYS198      0.0206
     58  CE        99.2240   71.4030   96.1250 C.3   198  LYS198      0.1093
     59  NZ       100.6510   71.1340   95.8140 N.3   198  LYS198     -0.1314
     60  N        100.4670   63.5000   87.6910 N.3   301  PHE301     -0.1241
     61  CA       100.1100   64.8670   87.3600 C.3   301  PHE301      0.1605
     62  C        101.0280   65.3670   86.2620 C.2   301  PHE301      0.2264
     63  O        102.2420   65.1730   86.3370 O.2   301  PHE301     -0.2867
     64  CB       100.2440   65.8080   88.5640 C.3   301  PHE301      0.0534
     65  CG       100.0180   67.2430   88.2090 C.ar  301  PHE301     -0.0203
     66  CD1       98.7370   67.7240   88.0260 C.ar  301  PHE301     -0.0042
     67  CD2      101.0790   68.0940   88.0180 C.ar  301  PHE301     -0.0042
     68  CE1       98.5250   69.0510   87.6720 C.ar  301  PHE301     -0.0003
     69  CE2      100.8770   69.4060   87.6700 C.ar  301  PHE301     -0.0003
     70  CZ        99.6110   69.8850   87.4960 C.ar  301  PHE301     -0.0000
     71  N        101.6920   68.9940   83.8940 N.3   303  PHE303     -0.1241
     72  CA       101.4960   70.3560   83.4420 C.3   303  PHE303      0.1605
     73  C        102.0480   70.4290   82.0320 C.2   303  PHE303      0.2264
     74  O        103.1930   70.0280   81.8110 O.2   303  PHE303     -0.2867
     75  CB       102.3100   71.3430   84.2940 C.3   303  PHE303      0.0534
     76  CG       101.5320   72.3330   85.1200 C.ar  303  PHE303     -0.0203
     77  CD1      100.2130   72.6480   84.9000 C.ar  303  PHE303     -0.0042
     78  CD2      102.1910   72.9720   86.1460 C.ar  303  PHE303     -0.0042
     79  CE1       99.5670   73.5760   85.6680 C.ar  303  PHE303     -0.0003
     80  CE2      101.5510   73.8990   86.9280 C.ar  303  PHE303     -0.0003
     81  CZ       100.2310   74.2090   86.6840 C.ar  303  PHE303     -0.0000
     82  N         96.5810   70.8420   82.0560 N.3   312  ALA312     -0.1245
     83  CA        96.6590   70.0740   83.2940 C.3   312  ALA312      0.1562
     84  C         96.0520   68.6970   83.0550 C.2   312  ALA312      0.2260
     85  O         94.9540   68.5890   82.4980 O.2   312  ALA312     -0.2867
     86  CB        95.9230   70.7540   84.4560 C.3   312  ALA312      0.0290
     87  N         95.2960   65.4670   85.3640 N.3   314  GLN314     -0.1245
     88  CA        95.2070   64.9240   86.7110 C.3   314  GLN314      0.1566
     89  C         94.6730   63.4990   86.6780 C.2   314  GLN314      0.2260
     90  O         94.0130   63.0750   85.7280 O.2   314  GLN314     -0.2867
     91  CB        94.2650   65.7820   87.5620 C.3   314  GLN314      0.0367
     92  CG        94.7090   67.2270   87.6910 C.3   314  GLN314      0.0905
     93  CD        93.6760   68.0550   88.3880 C.2   314  GLN314      0.2608
     94  OE1       93.7560   68.2770   89.5970 O.2   314  GLN314     -0.2717
     95  NE2       92.6870   68.5120   87.6410 N.am  314  GLN314     -0.0878
     96  N         91.6250   63.3080   84.2710 N.3   327  LYS327     -0.1245
     97  CA        90.8260   64.5270   84.2370 C.3   327  LYS327      0.1561
     98  C         91.7100   65.6190   83.6570 C.2   327  LYS327      0.2260
     99  O         92.7540   65.9410   84.2340 O.2   327  LYS327     -0.2867
    100  CB        90.3370   64.9100   85.6330 C.3   327  LYS327      0.0271
    101  CG        89.5630   66.2400   85.6880 C.3   327  LYS327      0.0035
    102  CD        89.1430   66.5780   87.1080 C.3   327  LYS327      0.0206
    103  CE        88.3000   67.8360   87.1160 C.3   327  LYS327      0.1093
    104  NZ        89.1880   69.0010   86.8490 N.3   327  LYS327     -0.1314
    105  N         92.2000   69.4790   81.9580 N.3   329  THR329     -0.1218
    106  CA        91.7100   70.8390   81.8080 C.3   329  THR329      0.1862
    107  C         92.4690   71.5200   80.6810 C.2   329  THR329      0.2287
    108  O         93.7050   71.5120   80.6410 O.2   329  THR329     -0.2866
    109  CB        91.8120   71.6030   83.1200 C.3   329  THR329      0.1770
    110  OG1       91.1750   70.8330   84.1510 O.3   329  THR329     -0.2211
    111  CG2       91.1090   72.9690   83.0000 C.3   329  THR329      0.0375
@<TRIPOS>BOND
     1   108   107    2
     2   107   106    1
     3   106   105    1
     4   106   109    1
     5    74    73    2
     6    22    23    1
     7    73    72    1
     8    82    83    1
     9    23    24    1
    10    23    26    1
    11    85    84    2
    12    29    27    1
    13    25    24    2
    14    27    26    1
    15    27    28    1
    16   111   109    1
    17    24    30   am
    18    84    83    1
    19   109   110    1
    20    83    86    1
    21    72    71    1
    22    72    75    1
    23    32    33    2
    24    32    31    1
    25    98    99    2
    26    98    97    1
    27    30    31    1
    28    97    96    1
    29    97   100    1
    30    13    14    1
    31    75    76    1
    32    31    34    1
    33    15    16    2
    34    15    14    1
    35    77    76   ar
    36    77    79   ar
    37    76    78   ar
    38    14    17    1
    39    87    88    1
    40   100   101    1
    41    34    35    1
    42    79    81   ar
    43   101   102    1
    44    90    89    2
    45    78    80   ar
    46    62    63    2
    47    62    61    1
    48    17    18    1
    49    89    88    1
    50    81    80   ar
    51    88    91    1
    52   104   103    1
    53    35    36   ar
    54    35    37   ar
    55   102   103    1
    56    36    38   ar
    57    61    60    1
    58    61    64    1
    59    70    69   ar
    60    70    68   ar
    61    91    92    1
    62    18    19    1
    63    95    93   am
    64    69    67   ar
    65    68    66   ar
    66    92    93    1
    67    37    39   ar
    68    20    19   ar
    69    67    65   ar
    70    66    65   ar
    71    65    64    1
    72    93    94    2
    73    19    21   ar
    74    38    40   ar
    75    39    40   ar
    76    40    41    1
    77     9     7   ar
    78     9    11   ar
    79     7     6   ar
    80    12    11    1
    81    11    10   ar
    82     6     5    1
    83     6     8   ar
    84    49    48   ar
    85     5     2    1
    86     2     1    1
    87     2     3    1
    88    10     8   ar
    89    48    50   ar
    90    48    47    1
    91     4     3    2
    92    45    44    2
    93    46    47    1
    94    46    43    1
    95    44    43    1
    96    44    51   am
    97    43    42    1
    98    55    52    1
    99    55    56    1
   100    52    51    1
   101    52    53    1
   102    57    56    1
   103    57    58    1
   104    54    53    2
   105    59    58    1
