@<TRIPOS>MOLECULE
tmp/6cr6D00.pdb
 142 135 0 0 0
SMALL
GASTEIGER

@<TRIPOS>ATOM
      1  N          2.4730   -2.9140   25.5210 N.3   140  ARG140     -0.1245
      2  CA         1.7210   -2.6610   24.3100 C.3   140  ARG140      0.1563
      3  C          0.2380   -2.6240   24.6340 C.2   140  ARG140      0.2260
      4  O         -0.2190   -3.1340   25.6600 O.2   140  ARG140     -0.2867
      5  CB         2.0550   -3.6990   23.2310 C.3   140  ARG140      0.0307
      6  CG         3.5500   -3.6580   22.8470 C.3   140  ARG140      0.0489
      7  CD         3.9360   -4.6110   21.7160 C.3   140  ARG140      0.2205
      8  NE         3.0680   -4.4400   20.5620 N.pl3 140  ARG140     -0.0865
      9  CZ         3.2430   -3.5080   19.6320 C.cat 140  ARG140      0.5346
     10  NH1        4.2570   -2.6580   19.7280 N.pl3 140  ARG140      0.1354
     11  NH2        2.4000   -3.4190   18.6160 N.pl3 140  ARG140      0.1354
     12  N         -1.4340    5.0170   12.5990 N.3   170  GLY170     -0.1210
     13  CA        -0.4290    4.0740   13.0710 C.3   170  GLY170      0.1956
     14  C         -0.7570    2.6020   12.8640 C.2   170  GLY170      0.2612
     15  O         -1.5450    2.2500   11.9770 O.2   170  GLY170     -0.2717
     16  N         -0.1410    1.7280   13.6700 N.am  171  SER171     -0.1952
     17  CA        -0.3960    0.2920   13.5490 C.3   171  SER171      0.1924
     18  C         -1.8750   -0.0440   13.7340 C.2   171  SER171      0.2314
     19  O         -2.3530   -1.0380   13.1800 O.2   171  SER171     -0.2863
     20  CB         0.4410   -0.4770   14.5700 C.3   171  SER171      0.2116
     21  OG         0.2240    0.0500   15.8800 O.3   171  SER171     -0.2180
     22  N         -3.4180   -0.0380   10.4650 N.3   174  ARG174     -0.1245
     23  CA        -2.8740   -1.1780    9.7240 C.3   174  ARG174      0.1563
     24  C         -3.3990   -2.5350   10.2090 C.2   174  ARG174      0.2260
     25  O         -2.9640   -3.5730    9.6900 O.2   174  ARG174     -0.2867
     26  CB        -1.3400   -1.1740    9.7780 C.3   174  ARG174      0.0307
     27  CG        -0.6890    0.0450    9.0680 C.3   174  ARG174      0.0489
     28  CD         0.7910   -0.1490    8.7620 C.3   174  ARG174      0.2205
     29  NE         1.5650   -0.7120    9.8770 N.pl3 174  ARG174     -0.0865
     30  CZ         2.1910   -0.0130   10.8270 C.cat 174  ARG174      0.5346
     31  NH1        2.1350    1.3140   10.8520 N.pl3 174  ARG174      0.1354
     32  NH2        2.8870   -0.6530   11.7620 N.pl3 174  ARG174      0.1354
     33  N         -1.0120   -2.1650   19.5780 N.3   179  SER179     -0.1202
     34  CA        -0.3000   -0.9570   19.1500 C.3   179  SER179      0.2020
     35  C          0.6360   -0.4510   20.2430 C.2   179  SER179      0.2619
     36  O          0.4190   -0.6910   21.4350 O.2   179  SER179     -0.2717
     37  CB        -1.2590    0.1810   18.7690 C.3   179  SER179      0.2103
     38  OG        -2.1050   -0.1810   17.6950 O.3   179  SER179     -0.2182
     39  N          1.6720    0.2730   19.8260 N.am  180  GLY180     -0.1942
     40  CA         2.6320    0.8340   20.7690 C.3   180  GLY180      0.2014
     41  C          2.1030    2.0900   21.4350 C.2   180  GLY180      0.2638
     42  O          2.3110    2.3130   22.6270 O.2   180  GLY180     -0.2714
     43  N          1.4130    2.9300   20.6700 N.am  181  ASP181     -0.1971
     44  CA         0.8360    4.1560   21.1900 C.3   181  ASP181      0.1709
     45  C         -0.4470    4.3990   20.4300 C.2   181  ASP181      0.2293
     46  O         -0.9170    3.5280   19.7010 O.2   181  ASP181     -0.2864
     47  CB         1.8170    5.3230   21.0590 C.3   181  ASP181      0.1436
     48  CG         2.1800    5.6460   19.5990 C.2   181  ASP181      0.3671
     49  OD1        1.5920    5.0820   18.6440 O.co2 181  ASP181     -0.2456
     50  OD2        3.0710    6.4950   19.4070 O.co2 181  ASP181     -0.2456
     51  N         -2.0040    7.0550   17.5910 N.3   183  ASP183     -0.1239
     52  CA        -1.7880    8.1490   16.6510 C.3   183  ASP183      0.1674
     53  C         -3.1170    8.6190   16.0970 C.2   183  ASP183      0.2266
     54  O         -3.8370    7.8410   15.4660 O.2   183  ASP183     -0.2867
     55  CB        -0.8690    7.7050   15.5340 C.3   183  ASP183      0.1410
     56  CG         0.3870    7.1010   16.0750 C.2   183  ASP183      0.3668
     57  OD1        1.1150    7.8500   16.7450 O.co2 183  ASP183     -0.2456
     58  OD2        0.6300    5.8960   15.8500 O.co2 183  ASP183     -0.2456
     59  N         -0.3070   10.6470   20.3260 N.3   247  ASP247     -0.1239
     60  CA         0.0760   11.7440   19.4410 C.3   247  ASP247      0.1674
     61  C         -1.1180   12.1900   18.6060 C.2   247  ASP247      0.2266
     62  O         -1.8840   11.3600   18.1080 O.2   247  ASP247     -0.2867
     63  CB         1.2130   11.3530   18.5020 C.3   247  ASP247      0.1410
     64  CG         2.4400   10.8540   19.2450 C.2   247  ASP247      0.3668
     65  OD1        2.7340   11.3240   20.3510 O.co2 247  ASP247     -0.2456
     66  OD2        3.1000    9.9460   18.7260 O.co2 247  ASP247     -0.2456
     67  N          0.9840    9.3660    5.5160 N.3   262  TYR262     -0.1227
     68  CA         2.1190    9.4930    6.4330 C.3   262  TYR262      0.1736
     69  C          1.8070    8.8550    7.7900 C.2   262  TYR262      0.2595
     70  O          2.5740    8.0180    8.2790 O.2   262  TYR262     -0.2718
     71  CB         2.5150   10.9670    6.6040 C.3   262  TYR262      0.0548
     72  CG         3.1600   11.2590    7.9420 C.ar  262  TYR262     -0.0200
     73  CD1        4.4620   10.8460    8.2140 C.ar  262  TYR262     -0.0009
     74  CD2        2.4590   11.9200    8.9580 C.ar  262  TYR262     -0.0009
     75  CE1        5.0470   11.0870    9.4760 C.ar  262  TYR262      0.0417
     76  CE2        3.0520   12.1640   10.2370 C.ar  262  TYR262      0.0417
     77  CZ         4.3390   11.7660   10.4660 C.ar  262  TYR262      0.1957
     78  OH         4.9320   12.0010   11.6970 O.3   262  TYR262     -0.2866
     79  N          0.6680    9.2050    8.3970 N.am  263  PHE263     -0.1962
     80  CA         0.4170    8.7680    9.7840 C.3   263  PHE263      0.1771
     81  C          0.0100    7.3060    9.8900 C.2   263  PHE263      0.2620
     82  O          0.0040    6.7730   10.9970 O.2   263  PHE263     -0.2715
     83  CB        -0.6580    9.6290   10.4720 C.3   263  PHE263      0.0574
     84  CG        -0.2750   10.1070   11.8880 C.ar  263  PHE263     -0.0200
     85  CD1        1.0330   10.0010   12.3560 C.ar  263  PHE263     -0.0042
     86  CD2       -1.2390   10.6360   12.7390 C.ar  263  PHE263     -0.0042
     87  CE1        1.3880   10.4580   13.6310 C.ar  263  PHE263     -0.0003
     88  CE2       -0.9130   11.0630   14.0250 C.ar  263  PHE263     -0.0003
     89  CZ         0.4070   10.9690   14.4770 C.ar  263  PHE263     -0.0000
     90  N         -0.3110    6.6370    8.7830 N.am  264  THR264     -0.1937
     91  CA        -0.5780    5.2010    8.8160 C.3   264  THR264      0.2028
     92  C          0.7050    4.3830    8.7160 C.2   264  THR264      0.2643
     93  O          0.7970    3.2940    9.3070 O.2   264  THR264     -0.2714
     94  CB        -1.5460    4.8320    7.6940 C.3   264  THR264      0.1808
     95  OG1       -2.8180    5.4240    7.9700 O.3   264  THR264     -0.2208
     96  CG2       -1.7110    3.3280    7.5720 C.3   264  THR264      0.0379
     97  N          1.7200    4.9120    8.0440 N.am  265  GLY265     -0.1939
     98  CA         3.0080    4.2350    7.9540 C.3   265  GLY265      0.2014
     99  C          2.9220    2.8610    7.3020 C.2   265  GLY265      0.2640
    100  O          2.0450    2.6580    6.4750 O.2   265  GLY265     -0.2714
    101  N          3.7720    1.9050    7.6880 N.am  266  SER266     -0.1935
    102  CA         4.7010    2.0120    8.8140 C.3   266  SER266      0.2055
    103  C          5.8570    2.9330    8.4820 C.2   266  SER266      0.2643
    104  O          5.9520    3.4160    7.3430 O.2   266  SER266     -0.2714
    105  CB         5.2320    0.6280    9.1800 C.3   266  SER266      0.2130
    106  OG         6.1070    0.1530    8.1570 O.3   266  SER266     -0.2179
    107  N          6.7360    3.1870    9.4600 N.am  267  ASP267     -0.1971
    108  CA         7.8290    4.1190    9.2010 C.3   267  ASP267      0.1709
    109  C          8.6970    3.6260    8.0550 C.2   267  ASP267      0.2293
    110  O          9.0700    4.4090    7.1710 O.2   267  ASP267     -0.2864
    111  CB         8.6710    4.3530   10.4630 C.3   267  ASP267      0.1436
    112  CG         9.2350    3.0650   11.0600 C.2   267  ASP267      0.3671
    113  OD1        8.7890    1.9470   10.6900 O.co2 267  ASP267     -0.2456
    114  OD2       10.1410    3.1840   11.9090 O.co2 267  ASP267     -0.2456
    115  N          6.9020    4.1220    4.7940 N.3   270  ASN270     -0.1225
    116  CA         6.9680    5.5140    4.3630 C.3   270  ASN270      0.1785
    117  C          8.3300    5.8390    3.7630 C.2   270  ASN270      0.2597
    118  O          8.4150    6.5800    2.7800 O.2   270  ASN270     -0.2718
    119  CB         6.6830    6.4640    5.5290 C.3   270  ASN270      0.1169
    120  CG         5.2110    6.5130    5.9120 C.2   270  ASN270      0.2627
    121  OD1        4.3870    5.8220    5.3220 O.2   270  ASN270     -0.2716
    122  ND2        4.8850    7.3160    6.9280 N.am  270  ASN270     -0.0877
    123  N          9.4050    5.3000    4.3540 N.am  271  LYS271     -0.1980
    124  CA        10.7460    5.6170    3.8790 C.3   271  LYS271      0.1596
    125  C         10.9930    5.0050    2.5060 C.2   271  LYS271      0.2287
    126  O         11.5680    5.6590    1.6270 O.2   271  LYS271     -0.2864
    127  CB        11.7960    5.1460    4.8960 C.3   271  LYS271      0.0298
    128  CG        13.1990    5.7400    4.6820 C.3   271  LYS271      0.0038
    129  CD        14.2640    5.1790    5.6500 C.3   271  LYS271      0.0206
    130  CE        15.0590    3.9870    5.0530 C.3   271  LYS271      0.1093
    131  NZ        16.2320    4.3620    4.1900 N.3   271  LYS271     -0.1314
    132  N          8.6490    6.9020   -0.0920 N.3   274  ARG274     -0.1245
    133  CA         9.2140    8.1980   -0.4230 C.3   274  ARG274      0.1563
    134  C         10.5030    8.0690   -1.2500 C.2   274  ARG274      0.2260
    135  O         10.7900    8.9330   -2.0900 O.2   274  ARG274     -0.2867
    136  CB         9.4380    8.9800    0.8700 C.3   274  ARG274      0.0307
    137  CG         8.1330    9.3170    1.5710 C.3   274  ARG274      0.0489
    138  CD         8.3260    9.8410    3.0040 C.3   274  ARG274      0.2205
    139  NE         7.0650   10.2710    3.6010 N.pl3 274  ARG274     -0.0865
    140  CZ         6.9660   11.1920    4.5590 C.cat 274  ARG274      0.5346
    141  NH1        8.0470   11.7900    5.0090 N.pl3 274  ARG274      0.1354
    142  NH2        5.7850   11.5330    5.0550 N.pl3 274  ARG274      0.1354
@<TRIPOS>BOND
     1   135   134    2
     2   134   133    1
     3   133   132    1
     4   133   136    1
     5   136   137    1
     6   137   138    1
     7   126   125    2
     8   125   124    1
     9   118   117    2
    10   138   139    1
    11   139   140    2
    12   117   123   am
    13   117   116    1
    14   124   123    1
    15   124   127    1
    16   131   130    1
    17   116   115    1
    18   116   119    1
    19   140   141    1
    20   140   142    1
    21   128   127    1
    22   128   129    1
    23   130   129    1
    24   121   120    2
    25    67    68    1
    26   119   120    1
    27   120   122   am
    28    68    71    1
    29    68    69    1
    30   100    99    2
    31    71    72    1
    32   110   109    2
    33    99   101   am
    34    99    98    1
    35   104   103    2
    36    96    94    1
    37   101   102    1
    38    94    95    1
    39    94    91    1
    40    69    70    2
    41    69    79   am
    42    72    73   ar
    43    72    74   ar
    44    98    97    1
    45    97    92   am
    46   109   108    1
    47   106   105    1
    48    73    75   ar
    49    79    80    1
    50   103   102    1
    51   103   107   am
    52    92    91    1
    53    92    93    2
    54    28    27    1
    55    28    29    1
    56    90    91    1
    57    90    81   am
    58   102   105    1
    59    74    76   ar
    60    27    26    1
    61   108   107    1
    62   108   111    1
    63    75    77   ar
    64    25    24    2
    65    23    26    1
    66    23    24    1
    67    23    22    1
    68    80    81    1
    69    80    83    1
    70    29    30    2
    71    81    82    2
    72    76    77   ar
    73   111   112    1
    74    77    78    1
    75    83    84    1
    76   113   112   ar
    77    30    31    1
    78    30    32    1
    79   112   114   ar
    80    84    85   ar
    81    84    86   ar
    82    15    14    2
    83    85    87   ar
    84    12    13    1
    85    86    88   ar
    86    14    13    1
    87    14    16   am
    88    19    18    2
    89    17    16    1
    90    17    18    1
    91    17    20    1
    92    87    89   ar
    93    88    89   ar
    94    20    21    1
    95    54    53    2
    96    55    56    1
    97    55    52    1
    98    58    56   ar
    99    56    57   ar
   100    53    52    1
   101    52    51    1
   102    38    37    1
   103    62    61    2
   104    63    64    1
   105    63    60    1
   106    61    60    1
   107    11     9    1
   108    49    48   ar
   109    66    64   ar
   110    37    34    1
   111    34    33    1
   112    34    35    1
   113    64    65   ar
   114    50    48   ar
   115    60    59    1
   116    48    47    1
   117     9    10    1
   118     9     8    2
   119    46    45    2
   120    39    35   am
   121    39    40    1
   122    35    36    2
   123    45    44    1
   124     8     7    1
   125    43    44    1
   126    43    41   am
   127    40    41    1
   128    47    44    1
   129    41    42    2
   130     7     6    1
   131     6     5    1
   132     5     2    1
   133     2     3    1
   134     2     1    1
   135     3     4    2
