@<TRIPOS>MOLECULE
tmp/6crqE01.pdb
 91 84 0 0 0
SMALL
GASTEIGER

@<TRIPOS>ATOM
      1  N        164.1170  134.3880  193.2280 N.3    99  CYS99      -0.1221
      2  CA       163.9030  132.9470  193.2320 C.3    99  CYS99       0.1808
      3  C        165.1370  132.0870  193.4620 C.2    99  CYS99       0.2602
      4  O        166.2660  132.5710  193.4640 O.2    99  CYS99      -0.2717
      5  CB       163.2460  132.5430  191.9340 C.3    99  CYS99       0.0970
      6  SG       164.1080  133.0590  190.4280 S.3    99  CYS99      -0.0800
      7  N        164.8620  130.7900  193.6460 N.am  100  THR100     -0.1939
      8  CA       165.8370  129.7160  193.8310 C.3   100  THR100      0.2028
      9  C        165.5340  128.5800  192.8570 C.2   100  THR100      0.2642
     10  O        164.5970  128.6790  192.0730 O.2   100  THR100     -0.2714
     11  CB       165.8190  129.1790  195.2700 C.3   100  THR100      0.1808
     12  OG1      164.5700  128.5180  195.5140 O.3   100  THR100     -0.2208
     13  CG2      165.9980  130.3150  196.2660 C.3   100  THR100      0.0379
     14  N        166.3410  127.5230  192.8850 N.am  101  ASN101     -0.1971
     15  CA       166.2250  126.4110  191.9390 C.3   101  ASN101      0.1688
     16  C        164.9320  125.6270  192.0950 C.2   101  ASN101      0.2292
     17  O        164.2860  125.6760  193.1410 O.2   101  ASN101     -0.2864
     18  CB       167.4060  125.4800  192.0630 C.3   101  ASN101      0.1181
     19  CG       168.6520  126.1110  191.5850 C.2   101  ASN101      0.2629
     20  OD1      169.1960  125.7440  190.5350 O.2   101  ASN101     -0.2716
     21  ND2      169.1240  127.0660  192.3410 N.am  101  ASN101     -0.0877
     22  N        173.0190  117.9120  189.6440 N.3   109  MET109     -0.1245
     23  CA       172.0330  118.9820  189.7450 C.3   109  MET109      0.1570
     24  C        172.1420  119.9600  188.5900 C.2   109  MET109      0.2261
     25  O        172.9340  120.9000  188.6350 O.2   109  MET109     -0.2867
     26  CB       172.1930  119.7360  191.0640 C.3   109  MET109      0.0387
     27  CG       171.1840  120.8710  191.2680 C.3   109  MET109      0.0595
     28  SD       171.3270  121.6680  192.8930 S.3   109  MET109     -0.1393
     29  CE       170.2250  123.0660  192.6980 C.3   109  MET109      0.0692
     30  N        171.3630  123.1040  186.5000 N.3   111  GLY111     -0.1225
     31  CA       170.9340  124.4500  186.8790 C.3   111  GLY111      0.1811
     32  C        170.0170  125.1000  185.8460 C.2   111  GLY111      0.2280
     33  O        169.8090  126.3100  185.8730 O.2   111  GLY111     -0.2866
     34  N        164.6180  126.9230  186.2860 N.3   114  LYS114     -0.1245
     35  CA       164.4470  127.9260  187.3190 C.3   114  LYS114      0.1561
     36  C        162.9630  128.1880  187.5160 C.2   114  LYS114      0.2260
     37  O        162.2370  128.4630  186.5610 O.2   114  LYS114     -0.2867
     38  CB       165.1660  129.2210  186.9370 C.3   114  LYS114      0.0271
     39  CG       166.6820  129.1300  186.9990 C.3   114  LYS114      0.0035
     40  CD       167.1550  128.7360  188.3880 C.3   114  LYS114      0.0206
     41  CE       168.6730  128.6870  188.4610 C.3   114  LYS114      0.1093
     42  NZ       169.2700  130.0490  188.5280 N.3   114  LYS114     -0.1314
     43  N        167.8800  128.9250  182.1600 N.3   137  ARG137     -0.1245
     44  CA       169.0540  129.6290  182.6620 C.3   137  ARG137      0.1563
     45  C        169.6760  130.5800  181.6440 C.2   137  ARG137      0.2260
     46  O        170.1430  131.6570  182.0030 O.2   137  ARG137     -0.2867
     47  CB       170.1080  128.6330  183.0960 C.3   137  ARG137      0.0307
     48  CG       171.3290  129.2360  183.7460 C.3   137  ARG137      0.0489
     49  CD       172.3280  128.1950  184.0950 C.3   137  ARG137      0.2205
     50  NE       172.2580  127.8180  185.4940 N.pl3 137  ARG137     -0.0865
     51  CZ       172.1520  128.6910  186.5140 C.cat 137  ARG137      0.5346
     52  NH1      172.0980  129.9790  186.2700 N.pl3 137  ARG137      0.1354
     53  NH2      172.1040  128.2530  187.7600 N.pl3 137  ARG137      0.1354
     54  N        171.9090  137.0490  187.0610 N.3   142  GLN142     -0.1245
     55  CA       171.7800  137.4690  188.4480 C.3   142  GLN142      0.1566
     56  C        172.0600  138.9520  188.5790 C.2   142  GLN142      0.2260
     57  O        172.9210  139.4900  187.8820 O.2   142  GLN142     -0.2867
     58  CB       172.7280  136.6680  189.3340 C.3   142  GLN142      0.0367
     59  CG       172.3720  135.2170  189.3910 C.3   142  GLN142      0.0905
     60  CD       173.3640  134.3710  190.1180 C.2   142  GLN142      0.2608
     61  OE1      174.5050  134.7780  190.3560 O.2   142  GLN142     -0.2717
     62  NE2      172.9480  133.1610  190.4710 N.am  142  GLN142     -0.0878
     63  N        172.3130  136.6170  195.2890 N.3   144  ASN144     -0.1225
     64  CA       172.2950  135.9390  193.9960 C.3   144  ASN144      0.1785
     65  C        170.8970  135.4560  193.6550 C.2   144  ASN144      0.2597
     66  O        170.6330  135.0260  192.5350 O.2   144  ASN144     -0.2718
     67  CB       173.2690  134.7780  193.9820 C.3   144  ASN144      0.1169
     68  CG       174.7060  135.2180  194.0050 C.2   144  ASN144      0.2627
     69  OD1      175.0370  136.3390  193.6030 O.2   144  ASN144     -0.2716
     70  ND2      175.5710  134.3500  194.4670 N.am  144  ASN144     -0.0877
     71  N        170.0010  135.5370  194.6350 N.am  145  LYS145     -0.1980
     72  CA       168.6080  135.1250  194.4610 C.3   145  LYS145      0.1596
     73  C        167.8310  136.0450  193.5260 C.2   145  LYS145      0.2287
     74  O        166.7940  135.6610  192.9840 O.2   145  LYS145     -0.2864
     75  CB       167.9030  135.0450  195.8100 C.3   145  LYS145      0.0298
     76  CG       168.3930  133.9160  196.6910 C.3   145  LYS145      0.0038
     77  CD       167.6640  133.8910  198.0260 C.3   145  LYS145      0.0206
     78  CE       168.1700  132.7590  198.9100 C.3   145  LYS145      0.1093
     79  NZ       167.5020  132.7510  200.2360 N.3   145  LYS145     -0.1314
     80  N        167.0560  137.9470  190.1440 N.3   147  TYR147     -0.1241
     81  CA       167.3140  137.7560  188.7210 C.3   147  TYR147      0.1605
     82  C        166.6380  138.7790  187.8370 C.2   147  TYR147      0.2264
     83  O        165.6940  139.4660  188.2350 O.2   147  TYR147     -0.2867
     84  CB       166.9010  136.3620  188.2440 C.3   147  TYR147      0.0534
     85  CG       167.7050  135.2580  188.7580 C.ar  147  TYR147     -0.0201
     86  CD1      167.4160  134.7270  189.9780 C.ar  147  TYR147     -0.0009
     87  CD2      168.7280  134.7490  187.9910 C.ar  147  TYR147     -0.0009
     88  CE1      168.1490  133.6880  190.4560 C.ar  147  TYR147      0.0417
     89  CE2      169.4650  133.7060  188.4590 C.ar  147  TYR147      0.0417
     90  CZ       169.1800  133.1750  189.6940 C.ar  147  TYR147      0.1957
     91  OH       169.9130  132.1330  190.1830 O.3   147  TYR147     -0.2866
@<TRIPOS>BOND
     1    45    46    2
     2    45    44    1
     3    43    44    1
     4    44    47    1
     5    47    48    1
     6    48    49    1
     7    49    50    1
     8    50    51    2
     9    32    33    2
    10    32    31    1
    11    52    51    1
    12    34    35    1
    13    30    31    1
    14    51    53    1
    15    37    36    2
    16    38    39    1
    17    38    35    1
    18    39    40    1
    19    54    55    1
    20    35    36    1
    21    82    83    2
    22    82    81    1
    23    57    56    2
    24    87    89   ar
    25    87    85   ar
    26    84    81    1
    27    84    85    1
    28    40    41    1
    29    55    56    1
    30    55    58    1
    31    89    90   ar
    32    41    42    1
    33    24    25    2
    34    24    23    1
    35    81    80    1
    36    85    86   ar
    37    58    59    1
    38    59    60    1
    39    22    23    1
    40    90    91    1
    41    90    88   ar
    42    23    26    1
    43    86    88   ar
    44    60    61    2
    45    60    62   am
    46     6     5    1
    47    20    19    2
    48    26    27    1
    49    27    28    1
    50    19    18    1
    51    19    21   am
    52     5     2    1
    53    15    18    1
    54    15    16    1
    55    15    14    1
    56    10     9    2
    57    16    17    2
    58    66    65    2
    59    29    28    1
    60     9    14   am
    61     9     8    1
    62    74    73    2
    63     1     2    1
    64     2     3    1
    65     3     4    2
    66     3     7   am
    67    73    72    1
    68    69    68    2
    69     7     8    1
    70    65    64    1
    71    65    71   am
    72     8    11    1
    73    67    64    1
    74    67    68    1
    75    64    63    1
    76    68    70   am
    77    72    71    1
    78    72    75    1
    79    11    12    1
    80    11    13    1
    81    75    76    1
    82    76    77    1
    83    77    78    1
    84    78    79    1
