@<TRIPOS>MOLECULE
tmp/6cs8A00.pdb
 82 77 0 0 0
SMALL
GASTEIGER

@<TRIPOS>ATOM
      1  N        -24.4590   -5.2860   41.3010 N.3   113  THR113     -0.1203
      2  CA       -25.4050   -6.1280   40.5680 C.3   113  THR113      0.1994
      3  C        -26.1140   -5.3370   39.4770 C.2   113  THR113      0.2618
      4  O        -26.3010   -5.8260   38.3640 O.2   113  THR113     -0.2717
      5  CB       -26.3660   -6.7360   41.5840 C.3   113  THR113      0.1784
      6  OG1      -25.5780   -7.5300   42.4910 O.3   113  THR113     -0.2211
      7  CG2      -27.4530   -7.5890   40.9360 C.3   113  THR113      0.0376
      8  N        -26.4670   -4.1030   39.7660 N.am  114  THR114     -0.1952
      9  CA       -26.9570   -3.1860   38.7450 C.3   114  THR114      0.1897
     10  C        -25.9870   -3.0680   37.5810 C.2   114  THR114      0.2313
     11  O        -26.3950   -3.0490   36.4150 O.2   114  THR114     -0.2863
     12  CB       -27.1920   -1.8140   39.3860 C.3   114  THR114      0.1794
     13  OG1      -28.1360   -1.9570   40.4490 O.3   114  THR114     -0.2208
     14  CG2      -27.7120   -0.8210   38.3810 C.3   114  THR114      0.0378
     15  N        -26.0100   -6.0140   35.2240 N.3   117  GLY117     -0.1210
     16  CA       -27.1290   -6.0020   34.3010 C.3   117  GLY117      0.1956
     17  C        -26.9440   -5.0060   33.1770 C.2   117  GLY117      0.2611
     18  O        -27.2150   -5.3180   32.0070 O.2   117  GLY117     -0.2717
     19  N        -26.5220   -3.7800   33.5150 N.am  118  LYS118     -0.1979
     20  CA       -26.3290   -2.7790   32.4740 C.3   118  LYS118      0.1596
     21  C        -25.2380   -3.2000   31.5030 C.2   118  LYS118      0.2287
     22  O        -25.4090   -3.0700   30.2870 O.2   118  LYS118     -0.2864
     23  CB       -26.0100   -1.4090   33.0700 C.3   118  LYS118      0.0298
     24  CG       -27.1820   -0.8250   33.8160 C.3   118  LYS118      0.0038
     25  CD       -26.8160    0.5310   34.3410 C.3   118  LYS118      0.0206
     26  CE       -27.9310    1.1730   35.1450 C.3   118  LYS118      0.1093
     27  NZ       -27.6570    2.6330   35.4520 N.3   118  LYS118     -0.1314
     28  N        -30.4720  -12.8800   46.3660 N.3   142  ALA142     -0.1245
     29  CA       -29.6790  -12.2320   45.3240 C.3   142  ALA142      0.1562
     30  C        -29.5510  -13.1230   44.0990 C.2   142  ALA142      0.2260
     31  O        -29.6480  -12.6650   42.9470 O.2   142  ALA142     -0.2867
     32  CB       -28.2790  -11.9260   45.8570 C.3   142  ALA142      0.0290
     33  N        -32.9690  -13.3620   42.3190 N.3   145  GLN145     -0.1231
     34  CA       -33.2450  -12.1020   41.5550 C.3   145  GLN145      0.1698
     35  C        -32.4040  -12.1020   40.2360 C.2   145  GLN145      0.2592
     36  O        -32.8830  -11.7630   39.1410 O.2   145  GLN145     -0.2718
     37  CB       -32.9690  -10.7710   42.3190 C.3   145  GLN145      0.0381
     38  CG       -33.7180  -10.6640   43.6420 C.3   145  GLN145      0.0905
     39  CD       -33.4860   -9.3260   44.3430 C.2   145  GLN145      0.2608
     40  OE1      -32.6970   -8.5090   43.8730 O.2   145  GLN145     -0.2717
     41  NE2      -34.1640   -9.1000   45.4690 N.am  145  GLN145     -0.0878
     42  N        -31.1200  -12.4360   40.3610 N.am  146  LEU146     -0.1980
     43  CA       -30.2370  -12.4930   39.1450 C.3   146  LEU146      0.1596
     44  C        -30.8420  -13.4660   38.0790 C.2   146  LEU146      0.2287
     45  O        -30.8910  -13.2010   36.8710 O.2   146  LEU146     -0.2864
     46  CB       -28.7490  -12.9090   39.4140 C.3   146  LEU146      0.0297
     47  CG       -27.7490  -12.7010   38.2660 C.3   146  LEU146      0.0022
     48  CD1      -27.7420  -11.2420   37.8070 C.3   146  LEU146      0.0001
     49  CD2      -26.3390  -13.1600   38.6480 C.3   146  LEU146      0.0001
     50  N        -33.8550  -11.9030   36.6580 N.3   149  TRP149     -0.1241
     51  CA       -33.3940  -10.8670   35.6660 C.3   149  TRP149      0.1605
     52  C        -32.9270  -11.5290   34.3100 C.2   149  TRP149      0.2264
     53  O        -33.2210  -11.0520   33.2030 O.2   149  TRP149     -0.2867
     54  CB       -32.2480   -9.9450   36.1760 C.3   149  TRP149      0.0550
     55  CG       -31.8480   -8.8470   35.2570 C.ar  149  TRP149      0.0003
     56  CD1      -32.2980   -7.5570   35.2600 C.ar  149  TRP149      0.0946
     57  CD2      -30.8770   -8.9270   34.2130 C.ar  149  TRP149      0.0152
     58  NE1      -31.6730   -6.8380   34.2790 N.ar  149  TRP149     -0.2442
     59  CE2      -30.7960   -7.6570   33.6190 C.ar  149  TRP149      0.0810
     60  CE3      -30.0720   -9.9540   33.7180 C.ar  149  TRP149      0.0012
     61  CZ2      -29.9490   -7.3890   32.5570 C.ar  149  TRP149      0.0191
     62  CZ3      -29.2330   -9.6850   32.6690 C.ar  149  TRP149      0.0001
     63  CH2      -29.1770   -8.4150   32.0970 C.ar  149  TRP149      0.0015
     64  N        -35.9560  -12.7330   32.3340 N.3   152  ARG152     -0.1245
     65  CA       -36.6240  -11.5730   31.7620 C.3   152  ARG152      0.1563
     66  C        -35.9410  -11.0670   30.4590 C.2   152  ARG152      0.2260
     67  O        -36.6800  -10.7860   29.5150 O.2   152  ARG152     -0.2867
     68  CB       -36.6780  -10.4390   32.7890 C.3   152  ARG152      0.0307
     69  CG       -37.5510  -10.7380   33.9970 C.3   152  ARG152      0.0489
     70  CD       -37.6440   -9.5940   34.9940 C.3   152  ARG152      0.2205
     71  NE       -38.4360   -9.9530   36.1670 N.pl3 152  ARG152     -0.0865
     72  CZ       -38.5770   -9.1810   37.2350 C.cat 152  ARG152      0.5346
     73  NH1      -37.9820   -7.9960   37.2830 N.pl3 152  ARG152      0.1354
     74  NH2      -39.3160   -9.5890   38.2580 N.pl3 152  ARG152      0.1354
     75  N        -29.7080    2.2060   31.4000 N.3   283  ILE283     -0.1245
     76  CA       -28.6170    1.3860   30.8710 C.3   283  ILE283      0.1561
     77  C        -27.5260    2.2820   30.3040 C.2   283  ILE283      0.2260
     78  O        -26.3360    2.1070   30.5950 O.2   283  ILE283     -0.2867
     79  CB       -29.1580    0.3990   29.8190 C.3   283  ILE283      0.0252
     80  CG1      -30.0780   -0.6470   30.4720 C.3   283  ILE283      0.0019
     81  CG2      -28.0330   -0.2850   29.0560 C.3   283  ILE283      0.0019
     82  CD1      -30.7750   -1.5270   29.4750 C.3   283  ILE283      0.0001
@<TRIPOS>BOND
     1    81    79    1
     2    82    80    1
     3    67    66    2
     4    79    80    1
     5    79    76    1
     6    22    21    2
     7    77    78    2
     8    77    76    1
     9    66    65    1
    10    76    75    1
    11    21    20    1
    12    65    64    1
    13    65    68    1
    14    18    17    2
    15    63    61   ar
    16    63    62   ar
    17    20    23    1
    18    20    19    1
    19    61    59   ar
    20    62    60   ar
    21    68    69    1
    22    23    24    1
    23    17    19   am
    24    17    16    1
    25    53    52    2
    26    59    57   ar
    27    59    58   ar
    28    60    57   ar
    29    24    25    1
    30    69    70    1
    31    57    55   ar
    32    58    56   ar
    33    16    15    1
    34    52    51    1
    35    25    26    1
    36    70    71    1
    37    26    27    1
    38    55    56   ar
    39    55    54    1
    40    51    54    1
    41    51    50    1
    42    71    72    2
    43    11    10    2
    44    45    44    2
    45    72    73    1
    46    72    74    1
    47    10     9    1
    48    48    47    1
    49    44    43    1
    50    47    49    1
    51    47    46    1
    52     4     3    2
    53    14    12    1
    54     9    12    1
    55     9     8    1
    56    36    35    2
    57    43    46    1
    58    43    42    1
    59    12    13    1
    60     3     8   am
    61     3     2    1
    62    35    42   am
    63    35    34    1
    64     2     1    1
    65     2     5    1
    66     7     5    1
    67    34    37    1
    68    34    33    1
    69     5     6    1
    70    37    38    1
    71    31    30    2
    72    38    39    1
    73    40    39    2
    74    30    29    1
    75    39    41   am
    76    29    32    1
    77    29    28    1
