@<TRIPOS>MOLECULE
tmp/6cscA00.pdb
 150 142 0 0 0
SMALL
GASTEIGER

@<TRIPOS>ATOM
      1  N         29.6550   35.1810   -3.4240 N.3    46  ARG46      -0.1245
      2  CA        29.8190   36.5820   -3.7450 C.3    46  ARG46       0.1563
      3  C         28.6100   37.2270   -4.2970 C.2    46  ARG46       0.2260
      4  O         28.1360   36.8260   -5.3550 O.2    46  ARG46      -0.2867
      5  CB        31.0630   37.0680   -4.4880 C.3    46  ARG46       0.0307
      6  CG        31.7050   38.0210   -3.5080 C.3    46  ARG46       0.0489
      7  CD        31.9050   37.3080   -2.1300 C.3    46  ARG46       0.2205
      8  NE        32.9560   36.2840   -2.1640 N.pl3  46  ARG46      -0.0865
      9  CZ        34.1230   36.7370   -2.4990 C.cat  46  ARG46       0.5346
     10  NH1       34.2950   38.0400   -2.6530 N.pl3  46  ARG46       0.1354
     11  NH2       35.1470   35.9390   -2.6820 N.pl3  46  ARG46       0.1354
     12  N         43.9190   35.5320    4.2650 N.3   273  LEU273     -0.1245
     13  CA        43.0240   36.3440    3.4370 C.3   273  LEU273      0.1561
     14  C         42.0950   37.1480    4.3130 C.2   273  LEU273      0.2260
     15  O         41.3500   37.9690    3.8440 O.2   273  LEU273     -0.2867
     16  CB        42.1770   35.4980    2.4410 C.3   273  LEU273      0.0270
     17  CG        43.0000   34.8110    1.3470 C.3   273  LEU273      0.0019
     18  CD1       42.1240   34.4480    0.1840 C.3   273  LEU273      0.0001
     19  CD2       44.0540   35.8020    0.9090 C.3   273  LEU273      0.0001
     20  N         52.8720   41.7680   -8.0020 N.3   309  LEU309     -0.1245
     21  CA        51.7960   41.2540   -8.8330 C.3   309  LEU309      0.1561
     22  C         52.3360   40.1350   -9.7610 C.2   309  LEU309      0.2260
     23  O         51.8090   39.0110   -9.7550 O.2   309  LEU309     -0.2867
     24  CB        51.0830   42.4070   -9.5920 C.3   309  LEU309      0.0270
     25  CG        50.4060   43.4490   -8.6870 C.3   309  LEU309      0.0019
     26  CD1       49.7570   44.5220   -9.5690 C.3   309  LEU309      0.0001
     27  CD2       49.3080   42.8310   -7.8200 C.3   309  LEU309      0.0001
     28  N         51.6440   37.4190   -6.6070 N.3   313  ARG313     -0.1231
     29  CA        51.2380   37.7370   -5.2440 C.3   313  ARG313      0.1694
     30  C         50.2720   38.9120   -5.1590 C.2   313  ARG313      0.2592
     31  O         50.2260   39.7350   -6.0710 O.2   313  ARG313     -0.2718
     32  CB        52.4630   37.9940   -4.3860 C.3   313  ARG313      0.0321
     33  CG        53.0960   36.6960   -3.8920 C.3   313  ARG313      0.0489
     34  CD        54.6070   36.6860   -4.0940 C.3   313  ARG313      0.2205
     35  NE        55.3010   37.4870   -3.0830 N.pl3 313  ARG313     -0.0865
     36  CZ        56.0480   38.5750   -3.3350 C.cat 313  ARG313      0.5346
     37  NH1       56.2510   39.0410   -4.5800 N.pl3 313  ARG313      0.1354
     38  NH2       56.6170   39.2150   -2.3040 N.pl3 313  ARG313      0.1354
     39  N         49.4930   38.9990   -4.0680 N.am  314  VAL314     -0.1966
     40  CA        48.5650   40.1310   -3.9080 C.3   314  VAL314      0.1727
     41  C         49.1510   41.2300   -3.0470 C.2   314  VAL314      0.2616
     42  O         49.9920   40.9550   -2.2050 O.2   314  VAL314     -0.2715
     43  CB        47.1890   39.7750   -3.3690 C.3   314  VAL314      0.0290
     44  CG1       46.4190   38.8540   -4.2990 C.3   314  VAL314      0.0023
     45  CG2       47.3230   39.1340   -2.0050 C.3   314  VAL314      0.0023
     46  N         48.7310   42.4720   -3.2910 N.am  315  VAL315     -0.1977
     47  CA        49.1810   43.5700   -2.4790 C.3   315  VAL315      0.1596
     48  C         48.4030   43.4640   -1.1690 C.2   315  VAL315      0.2287
     49  O         47.1750   43.3770   -1.1620 O.2   315  VAL315     -0.2864
     50  CB        48.8850   44.8860   -3.1530 C.3   315  VAL315      0.0276
     51  CG1       49.3990   46.0340   -2.3100 C.3   315  VAL315      0.0022
     52  CG2       49.5220   44.9020   -4.5230 C.3   315  VAL315      0.0022
     53  N         44.7650   45.6370    0.6510 N.3   318  TYR318     -0.1227
     54  CA        44.0310   46.2970   -0.4230 C.3   318  TYR318      0.1736
     55  C         42.9170   45.3770   -0.9610 C.2   318  TYR318      0.2596
     56  O         43.0380   44.1580   -0.9360 O.2   318  TYR318     -0.2718
     57  CB        45.0130   46.7030   -1.5710 C.3   318  TYR318      0.0548
     58  CG        45.6450   48.0540   -1.3040 C.ar  318  TYR318     -0.0200
     59  CD1       46.7480   48.1470   -0.4550 C.ar  318  TYR318     -0.0009
     60  CD2       45.1120   49.2380   -1.8290 C.ar  318  TYR318     -0.0009
     61  CE1       47.2950   49.3970   -0.1690 C.ar  318  TYR318      0.0417
     62  CE2       45.6620   50.4990   -1.5660 C.ar  318  TYR318      0.0417
     63  CZ        46.7750   50.5650   -0.7290 C.ar  318  TYR318      0.1957
     64  OH        47.3790   51.7570   -0.4410 O.3   318  TYR318     -0.2866
     65  N         41.8340   45.9290   -1.4970 N.am  319  GLY319     -0.1942
     66  CA        40.7680   45.0460   -1.9940 C.3   319  GLY319      0.2014
     67  C         39.8670   44.6620   -0.8060 C.2   319  GLY319      0.2639
     68  O         40.2490   44.9430    0.3370 O.2   319  GLY319     -0.2714
     69  N         38.6830   44.0780   -1.0800 N.am  320  HIS320     -0.1959
     70  CA        37.6620   43.6950   -0.0940 C.3   320  HIS320      0.1787
     71  C         36.5220   42.9820   -0.8000 C.2   320  HIS320      0.2620
     72  O         36.2480   43.2350   -1.9610 O.2   320  HIS320     -0.2715
     73  CB        37.0510   44.9090    0.6510 C.3   320  HIS320      0.0785
     74  CG        36.3870   44.5500    1.9440 C.ar  320  HIS320      0.0821
     75  ND1       35.0150   44.2490    2.0180 N.ar  320  HIS320     -0.2267
     76  CD2       36.8980   44.5420    3.2240 C.ar  320  HIS320      0.1154
     77  CE1       34.7370   44.0270    3.3040 C.ar  320  HIS320      0.1986
     78  NE2       35.8240   44.2280    4.0590 N.ar  320  HIS320     -0.2212
     79  N         35.8480   42.0690   -0.1160 N.am  321  ALA321     -0.1977
     80  CA        34.8180   41.3290   -0.7910 C.3   321  ALA321      0.1597
     81  C         33.6210   42.1750   -1.0930 C.2   321  ALA321      0.2287
     82  O         32.9200   41.9190   -2.0660 O.2   321  ALA321     -0.2864
     83  CB        34.4650   40.0170   -0.0650 C.3   321  ALA321      0.0319
     84  N         33.6310   48.7640   -2.0070 N.3   324  ARG324     -0.1245
     85  CA        33.9800   49.1900   -3.3500 C.3   324  ARG324      0.1563
     86  C         34.7820   50.5160   -3.3460 C.2   324  ARG324      0.2260
     87  O         35.1230   51.0560   -4.3790 O.2   324  ARG324     -0.2867
     88  CB        32.7010   49.2930   -4.1700 C.3   324  ARG324      0.0307
     89  CG        32.1640   47.9200   -4.5330 C.3   324  ARG324      0.0489
     90  CD        33.2740   46.9880   -4.9730 C.3   324  ARG324      0.2205
     91  NE        32.9130   45.5650   -5.1580 N.pl3 324  ARG324     -0.0865
     92  CZ        33.5600   44.5110   -4.6130 C.cat 324  ARG324      0.5346
     93  NH1       34.5520   44.6460   -3.7490 N.pl3 324  ARG324      0.1354
     94  NH2       33.1740   43.2730   -4.8890 N.pl3 324  ARG324      0.1354
     95  N         46.4130   48.8770   -9.4200 N.3   361  LEU361     -0.1245
     96  CA        45.4090   47.8570   -9.3300 C.3   361  LEU361      0.1561
     97  C         44.3360   48.0510  -10.3930 C.2   361  LEU361      0.2260
     98  O         43.8020   47.0930  -10.9760 O.2   361  LEU361     -0.2867
     99  CB        44.8280   47.8330   -7.9260 C.3   361  LEU361      0.0270
    100  CG        45.7950   47.2030   -6.9190 C.3   361  LEU361      0.0019
    101  CD1       45.1320   47.0890   -5.5370 C.3   361  LEU361      0.0001
    102  CD2       46.1710   45.7970   -7.4040 C.3   361  LEU361      0.0001
    103  N         45.9060   46.9640  -13.5410 N.3   364  GLN364     -0.1245
    104  CA        45.9750   45.5320  -13.6940 C.3   364  GLN364      0.1566
    105  C         44.6310   44.8710  -14.0380 C.2   364  GLN364      0.2260
    106  O         44.5570   43.7510  -14.5410 O.2   364  GLN364     -0.2867
    107  CB        46.7380   44.9160  -12.5490 C.3   364  GLN364      0.0367
    108  CG        46.7450   43.4040  -12.6280 C.3   364  GLN364      0.0905
    109  CD        46.7320   42.8240  -11.2270 C.2   364  GLN364      0.2608
    110  OE1       45.9200   43.2730  -10.3810 O.2   364  GLN364     -0.2717
    111  NE2       47.5130   41.7500  -11.0360 N.am  364  GLN364     -0.0878
    112  N         42.2320   43.5610  -12.2820 N.3   366  LYS366     -0.1231
    113  CA        41.7010   42.3680  -11.6270 C.3   366  LYS366      0.1693
    114  C         40.7450   42.6030  -10.4660 C.2   366  LYS366      0.2592
    115  O         39.5980   42.1110  -10.4250 O.2   366  LYS366     -0.2718
    116  CB        42.7990   41.4240  -11.2630 C.3   366  LYS366      0.0285
    117  CG        43.3280   40.7560  -12.5190 C.3   366  LYS366      0.0035
    118  CD        44.5190   39.8480  -12.2880 C.3   366  LYS366      0.0206
    119  CE        44.1850   38.3730  -12.0760 C.3   366  LYS366      0.1093
    120  NZ        45.3880   37.5680  -11.8120 N.3   366  LYS366     -0.1314
    121  N         41.2230   43.3770   -9.5140 N.am  367  ALA367     -0.1966
    122  CA        40.4720   43.6730   -8.3100 C.3   367  ALA367      0.1728
    123  C         39.1570   44.4870   -8.4480 C.2   367  ALA367      0.2616
    124  O         39.1190   45.6170   -8.9390 O.2   367  ALA367     -0.2715
    125  CB        41.4450   44.2840   -7.3230 C.3   367  ALA367      0.0334
    126  N         38.0530   43.9560   -7.9320 N.am  368  LYS368     -0.1963
    127  CA        36.8050   44.7230   -7.9480 C.3   368  LYS368      0.1728
    128  C         36.9650   46.0350   -7.1380 C.2   368  LYS368      0.2616
    129  O         36.2290   46.9960   -7.3680 O.2   368  LYS368     -0.2715
    130  CB        35.6820   43.9280   -7.2950 C.3   368  LYS368      0.0311
    131  CG        34.7830   43.2890   -8.3130 C.3   368  LYS368      0.0038
    132  CD        35.5670   42.3500   -9.1950 C.3   368  LYS368      0.0206
    133  CE        35.0500   40.9270   -9.0480 C.3   368  LYS368      0.1093
    134  NZ        33.8220   40.9010   -8.2460 N.3   368  LYS368     -0.1314
    135  N         37.8780   46.0220   -6.1230 N.am  369  ASN369     -0.1972
    136  CA        38.1820   47.1630   -5.2740 C.3   369  ASN369      0.1688
    137  C         39.7010   47.4070   -5.2450 C.2   369  ASN369      0.2292
    138  O         40.4870   46.6070   -4.7030 O.2   369  ASN369     -0.2864
    139  CB        37.6130   47.0050   -3.8320 C.3   369  ASN369      0.1181
    140  CG        37.9240   48.1490   -2.8750 C.2   369  ASN369      0.2629
    141  OD1       37.8940   49.3530   -3.2130 O.2   369  ASN369     -0.2716
    142  ND2       38.0750   47.7840   -1.6140 N.am  369  ASN369     -0.0877
    143  N         41.9840   48.6060    2.7680 N.3   373  ASN373     -0.1240
    144  CA        41.0910   48.1830    3.8050 C.3   373  ASN373      0.1653
    145  C         41.7190   48.4150    5.1700 C.2   373  ASN373      0.2266
    146  O         42.8840   48.8180    5.3010 O.2   373  ASN373     -0.2867
    147  CB        40.6250   46.7450    3.6350 C.3   373  ASN373      0.1155
    148  CG        41.7900   45.7870    3.7490 C.2   373  ASN373      0.2627
    149  OD1       42.5410   45.7900    4.7040 O.2   373  ASN373     -0.2716
    150  ND2       41.9050   44.8850    2.7900 N.am  373  ASN373     -0.0877
@<TRIPOS>BOND
     1   106   105    2
     2   105   104    1
     3   104   103    1
     4   104   107    1
     5   108   107    1
     6   108   109    1
     7   117   118    1
     8   117   116    1
     9   118   119    1
    10   112   113    1
    11   119   120    1
    12   113   116    1
    13   113   114    1
    14   109   111   am
    15   109   110    2
    16    98    97    2
    17   114   115    2
    18   114   121   am
    19    97    96    1
    20    22    23    2
    21    22    21    1
    22    24    21    1
    23    24    25    1
    24    26    25    1
    25   121   122    1
    26    95    96    1
    27    96    99    1
    28   132   133    1
    29   132   131    1
    30   133   134    1
    31   124   123    2
    32    21    20    1
    33    25    27    1
    34   123   122    1
    35   123   126   am
    36   131   130    1
    37   122   125    1
    38   127   126    1
    39   127   130    1
    40   127   128    1
    41    99   100    1
    42   102   100    1
    43   129   128    2
    44   128   135   am
    45   100   101    1
    46    28    29    1
    47   135   136    1
    48    31    30    2
    49     4     3    2
    50   136   137    1
    51   136   139    1
    52   137   138    2
    53    29    30    1
    54    29    32    1
    55    30    39   am
    56    91    90    1
    57    91    92    2
    58    90    89    1
    59    94    92    1
    60    92    93    1
    61    37    36    1
    62    89    88    1
    63    52    50    1
    64     5     2    1
    65     5     6    1
    66    32    33    1
    67    87    86    2
    68    44    43    1
    69     3     2    1
    70    88    85    1
    71    34    33    1
    72    34    35    1
    73    39    40    1
    74    40    43    1
    75    40    41    1
    76   139   140    1
    77     2     1    1
    78     6     7    1
    79    43    45    1
    80    85    86    1
    81    85    84    1
    82    36    35    2
    83    36    38    1
    84    46    41   am
    85    46    47    1
    86   141   140    2
    87    50    47    1
    88    50    51    1
    89    41    42    2
    90   140   142   am
    91    11     9    1
    92    10     9    1
    93     9     8    2
    94    47    48    1
    95     8     7    1
    96    82    81    2
    97    66    65    1
    98    66    67    1
    99    72    71    2
   100    60    62   ar
   101    60    58   ar
   102    57    58    1
   103    57    54    1
   104    62    63   ar
   105    65    55   am
   106    58    59   ar
   107    48    49    2
   108    81    80    1
   109    69    67   am
   110    69    70    1
   111    55    56    2
   112    55    54    1
   113    67    68    2
   114    71    79   am
   115    71    70    1
   116    80    79    1
   117    80    83    1
   118    63    64    1
   119    63    61   ar
   120    59    61   ar
   121    54    53    1
   122    70    73    1
   123    18    17    1
   124    73    74    1
   125    19    17    1
   126    17    16    1
   127    74    75   ar
   128    74    76   ar
   129    75    77   ar
   130    16    13    1
   131   143   144    1
   132   150   148   am
   133    76    78   ar
   134    77    78   ar
   135    13    12    1
   136    13    14    1
   137   147   148    1
   138   147   144    1
   139   148   149    2
   140   144   145    1
   141    15    14    2
   142   145   146    2
