@<TRIPOS>MOLECULE
tmp/6csrB00.pdb
 115 111 0 0 0
SMALL
GASTEIGER

@<TRIPOS>ATOM
      1  N          8.3670  -10.6820   61.3620 N.3    90  SER90      -0.1217
      2  CA         7.7570  -10.3040   60.0810 C.3    90  SER90       0.1889
      3  C          8.4100  -11.0280   58.8950 C.2    90  SER90       0.2288
      4  O          9.0150  -10.4170   58.0090 O.2    90  SER90      -0.2866
      5  CB         7.8250   -8.7850   59.8730 C.3    90  SER90       0.2089
      6  OG         7.3240   -8.0900   60.9950 O.3    90  SER90      -0.2183
      7  N         13.2090   -8.5850   49.4910 N.3   130  PRO130     -0.2116
      8  CA        14.1840   -7.5300   49.8210 C.3   130  PRO130      0.1372
      9  C         15.2760   -8.0120   50.7630 C.2   130  PRO130      0.2244
     10  O         15.2540   -9.1660   51.1990 O.2   130  PRO130     -0.2868
     11  CB        13.3190   -6.4520   50.4780 C.3   130  PRO130      0.0268
     12  CG        12.1440   -7.2550   51.0610 C.3   130  PRO130      0.0207
     13  CD        11.8660   -8.2900   50.0240 C.3   130  PRO130      0.0892
     14  N         17.4200   -5.4720   53.2380 N.3   132  HIS132     -0.1226
     15  CA        18.1850   -4.6250   54.1520 C.3   132  HIS132      0.1752
     16  C         17.8770   -4.8520   55.6350 C.2   132  HIS132      0.2596
     17  O         18.6480   -4.3730   56.4700 O.2   132  HIS132     -0.2718
     18  CB        18.0130   -3.1290   53.8080 C.3   132  HIS132      0.0759
     19  CG        16.6400   -2.5830   54.0470 C.ar  132  HIS132      0.0818
     20  ND1       16.4180   -1.2530   54.3370 N.ar  132  HIS132     -0.2268
     21  CD2       15.4200   -3.1710   54.0200 C.ar  132  HIS132      0.1154
     22  CE1       15.1200   -1.0470   54.4940 C.ar  132  HIS132      0.1986
     23  NE2       14.4930   -2.1950   54.3020 N.ar  132  HIS132     -0.2212
     24  N         16.8080   -5.5710   55.9880 N.am  133  HIS133     -0.1975
     25  CA        16.5770   -5.9240   57.3900 C.3   133  HIS133      0.1656
     26  C         17.2930   -7.2050   57.7950 C.2   133  HIS133      0.2291
     27  O         17.3780   -7.5000   58.9910 O.2   133  HIS133     -0.2864
     28  CB        15.0830   -6.1050   57.6870 C.3   133  HIS133      0.0771
     29  CG        14.2680   -4.8590   57.5550 C.ar  133  HIS133      0.0820
     30  ND1       14.5200   -3.7180   58.2860 N.ar  133  HIS133     -0.2267
     31  CD2       13.1850   -4.5840   56.7920 C.ar  133  HIS133      0.1154
     32  CE1       13.6360   -2.7900   57.9690 C.ar  133  HIS133      0.1986
     33  NE2       12.8110   -3.2920   57.0700 N.ar  133  HIS133     -0.2212
     34  N         11.7860   -8.7940   58.6710 N.3   141  GLY141     -0.1210
     35  CA        11.1690   -7.7390   57.8810 C.3   141  GLY141      0.1956
     36  C         11.1150   -8.0250   56.3930 C.2   141  GLY141      0.2612
     37  O         11.4510   -7.1590   55.5740 O.2   141  GLY141     -0.2717
     38  N         10.6960   -9.2450   56.0420 N.am  142  PHE142     -0.1962
     39  CA        10.4960   -9.7480   54.6700 C.3   142  PHE142      0.1771
     40  C         11.8200  -10.0740   53.9860 C.2   142  PHE142      0.2619
     41  O         11.8220  -10.3690   52.7730 O.2   142  PHE142     -0.2715
     42  CB         9.7170   -8.7820   53.7580 C.3   142  PHE142      0.0574
     43  CG         8.5220   -8.1220   54.4120 C.ar  142  PHE142     -0.0200
     44  CD1        7.8120   -8.7520   55.4240 C.ar  142  PHE142     -0.0042
     45  CD2        8.0990   -6.8680   53.9770 C.ar  142  PHE142     -0.0042
     46  CE1        6.7180   -8.1350   56.0270 C.ar  142  PHE142     -0.0003
     47  CE2        6.9950   -6.2420   54.5520 C.ar  142  PHE142     -0.0003
     48  CZ         6.3010   -6.8770   55.5830 C.ar  142  PHE142     -0.0000
     49  N         12.9420  -10.0130   54.7050 N.am  143  CYS143     -0.1968
     50  CA        14.2810  -10.1490   54.1410 C.3   143  CYS143      0.1712
     51  C         14.9640  -11.3860   54.7030 C.2   143  CYS143      0.2296
     52  O         14.9900  -11.5770   55.9220 O.2   143  CYS143     -0.2864
     53  CB        15.1490   -8.9220   54.4740 C.3   143  CYS143      0.0983
     54  SG        14.4690   -7.3280   54.0260 S.3   143  CYS143     -0.0798
     55  N         14.8040    3.4300   51.3030 N.3   171  ASP171     -0.1239
     56  CA        13.6310    2.7400   51.8200 C.3   171  ASP171      0.1674
     57  C         13.1540    3.4760   53.0640 C.2   171  ASP171      0.2266
     58  O         13.9630    4.0390   53.8000 O.2   171  ASP171     -0.2867
     59  CB        14.0150    1.2850   52.1330 C.3   171  ASP171      0.1410
     60  CG        12.8310    0.4230   52.5470 C.2   171  ASP171      0.3668
     61  OD1       12.2920    0.6260   53.6520 O.co2 171  ASP171     -0.2456
     62  OD2       12.4600   -0.4860   51.7740 O.co2 171  ASP171     -0.2456
     63  N         12.1130    2.4770   55.7670 N.3   173  HIS173     -0.1241
     64  CA        12.5030    1.8410   57.0190 C.3   173  HIS173      0.1621
     65  C         14.0160    1.8310   57.1720 C.2   173  HIS173      0.2264
     66  O         14.7620    1.7870   56.1930 O.2   173  HIS173     -0.2867
     67  CB        11.9800    0.4040   57.0980 C.3   173  HIS173      0.0745
     68  CG        10.5000    0.2940   56.9100 C.ar  173  HIS173      0.0817
     69  ND1        9.9210    0.0480   55.6810 N.ar  173  HIS173     -0.2268
     70  CD2        9.4820    0.4010   57.7940 C.ar  173  HIS173      0.1154
     71  CE1        8.6070    0.0030   55.8230 C.ar  173  HIS173      0.1986
     72  NE2        8.3140    0.2240   57.0940 N.ar  173  HIS173     -0.2212
     73  N          8.7060    0.6680   62.5510 N.3   202  PHE202     -0.1241
     74  CA         9.4810   -0.5310   62.2360 C.3   202  PHE202      0.1605
     75  C         10.8470   -0.1400   61.6700 C.2   202  PHE202      0.2264
     76  O         10.9270    0.7570   60.8180 O.2   202  PHE202     -0.2867
     77  CB         8.7280   -1.4150   61.2290 C.3   202  PHE202      0.0534
     78  CG         9.3640   -2.7630   61.0190 C.ar  202  PHE202     -0.0203
     79  CD1        9.0390   -3.8310   61.8340 C.ar  202  PHE202     -0.0042
     80  CD2       10.3180   -2.9550   60.0260 C.ar  202  PHE202     -0.0042
     81  CE1        9.6440   -5.0750   61.6540 C.ar  202  PHE202     -0.0003
     82  CE2       10.9280   -4.1870   59.8480 C.ar  202  PHE202     -0.0003
     83  CZ        10.5830   -5.2500   60.6580 C.ar  202  PHE202     -0.0000
     84  N          8.8490    2.6150   49.4740 N.3   264  ASP264     -0.1239
     85  CA         7.7670    2.7460   50.4380 C.3   264  ASP264      0.1674
     86  C          7.7200    4.1080   51.1300 C.2   264  ASP264      0.2266
     87  O          6.8130    4.3390   51.9320 O.2   264  ASP264     -0.2867
     88  CB         7.8190    1.6100   51.4840 C.3   264  ASP264      0.1410
     89  CG         9.2300    1.2330   51.9190 C.2   264  ASP264      0.3668
     90  OD1       10.2110    1.9510   51.6340 O.co2 264  ASP264     -0.2456
     91  OD2        9.3410    0.1830   52.5980 O.co2 264  ASP264     -0.2456
     92  N          2.0150    1.6020   53.7020 N.3   271  LEU271     -0.1245
     93  CA         2.7130    1.4960   54.9790 C.3   271  LEU271      0.1561
     94  C          3.5060    2.7400   55.3600 C.2   271  LEU271      0.2260
     95  O          3.4670    3.1540   56.5230 O.2   271  LEU271     -0.2867
     96  CB         3.6570    0.2830   54.9600 C.3   271  LEU271      0.0270
     97  CG         3.0010   -1.0770   54.7430 C.3   271  LEU271      0.0019
     98  CD1        4.0550   -2.1770   54.6560 C.3   271  LEU271      0.0001
     99  CD2        2.0020   -1.3630   55.8490 C.3   271  LEU271      0.0001
    100  N         11.9610   -2.3680   49.7070 N.3   302  GLY302     -0.1225
    101  CA        10.5280   -2.3670   49.9480 C.3   302  GLY302      0.1811
    102  C          9.7750   -1.4410   49.0130 C.2   302  GLY302      0.2280
    103  O         10.2840   -1.0010   47.9800 O.2   302  GLY302     -0.2866
    104  N          5.2400   -0.7790   48.4020 N.3   304  TYR304     -0.1241
    105  CA         4.1030   -1.6960   48.3450 C.3   304  TYR304      0.1605
    106  C          2.8880   -1.1870   47.5840 C.2   304  TYR304      0.2264
    107  O          1.9450   -1.9670   47.3950 O.2   304  TYR304     -0.2867
    108  CB         3.6910   -2.0980   49.7750 C.3   304  TYR304      0.0534
    109  CG         4.9090   -2.6210   50.4660 C.ar  304  TYR304     -0.0201
    110  CD1        5.3940   -3.8840   50.1600 C.ar  304  TYR304     -0.0009
    111  CD2        5.6500   -1.8140   51.3320 C.ar  304  TYR304     -0.0009
    112  CE1        6.5470   -4.3680   50.7380 C.ar  304  TYR304      0.0417
    113  CE2        6.8150   -2.2800   51.9110 C.ar  304  TYR304      0.0417
    114  CZ         7.2540   -3.5630   51.6140 C.ar  304  TYR304      0.1957
    115  OH         8.4090   -4.0430   52.1720 O.3   304  TYR304     -0.2866
@<TRIPOS>BOND
     1   107   106    2
     2   106   105    1
     3   103   102    2
     4   105   104    1
     5   105   108    1
     6   102   101    1
     7    84    85    1
     8     7     8    1
     9     7    13    1
    10   100   101    1
    11   108   109    1
    12     8    11    1
    13     8     9    1
    14    13    12    1
    15   110   109   ar
    16   110   112   ar
    17    85    86    1
    18    85    88    1
    19   109   111   ar
    20    11    12    1
    21   112   114   ar
    22     9    10    2
    23    86    87    2
    24    55    56    1
    25   111   113   ar
    26    88    89    1
    27   114   113   ar
    28   114   115    1
    29    90    89   ar
    30    62    60   ar
    31    56    59    1
    32    56    57    1
    33    89    91   ar
    34    59    60    1
    35    60    61   ar
    36    41    40    2
    37    57    58    2
    38    14    15    1
    39    92    93    1
    40    42    43    1
    41    42    39    1
    42    18    19    1
    43    18    15    1
    44    45    43   ar
    45    45    47   ar
    46    40    39    1
    47    40    49   am
    48    21    19   ar
    49    21    23   ar
    50    54    53    1
    51    19    20   ar
    52    50    53    1
    53    50    51    1
    54    50    49    1
    55    15    16    1
    56    23    22   ar
    57    20    22   ar
    58    43    44   ar
    59    47    48   ar
    60    98    97    1
    61    39    38    1
    62    51    52    2
    63    97    96    1
    64    97    99    1
    65    96    93    1
    66    93    94    1
    67    94    95    2
    68    44    46   ar
    69    37    36    2
    70    48    46   ar
    71    16    24   am
    72    16    17    2
    73    69    71   ar
    74    69    68   ar
    75    63    64    1
    76    71    72   ar
    77    24    25    1
    78    38    36   am
    79    66    65    2
    80    36    35    1
    81    31    33   ar
    82    31    29   ar
    83    68    67    1
    84    68    70   ar
    85    64    67    1
    86    64    65    1
    87    33    32   ar
    88    72    70   ar
    89    25    28    1
    90    25    26    1
    91    29    28    1
    92    29    30   ar
    93    26    27    2
    94    35    34    1
    95    32    30   ar
    96     4     3    2
    97     3     2    1
    98    82    80   ar
    99    82    83   ar
   100     5     2    1
   101     5     6    1
   102    80    78   ar
   103     2     1    1
   104    83    81   ar
   105    76    75    2
   106    78    77    1
   107    78    79   ar
   108    77    74    1
   109    81    79   ar
   110    75    74    1
   111    74    73    1
