@<TRIPOS>MOLECULE
tmp/6cssB00.pdb
 115 111 0 0 0
SMALL
GASTEIGER

@<TRIPOS>ATOM
      1  N         45.7970  -10.7070   35.7060 N.3    91  SER91      -0.1217
      2  CA        45.1640  -10.3300   34.4370 C.3    91  SER91       0.1889
      3  C         45.8070  -11.0410   33.2410 C.2    91  SER91       0.2288
      4  O         46.3680  -10.4150   32.3350 O.2    91  SER91      -0.2866
      5  CB        45.1920   -8.8080   34.2480 C.3    91  SER91       0.2089
      6  OG        44.5400   -8.1480   35.3220 O.3    91  SER91      -0.2183
      7  N         50.6310   -8.5020   23.7660 N.3   131  PRO131     -0.2116
      8  CA        51.6020   -7.4550   24.1200 C.3   131  PRO131      0.1372
      9  C         52.6820   -7.9540   25.0680 C.2   131  PRO131      0.2244
     10  O         52.6810   -9.1300   25.4510 O.2   131  PRO131     -0.2868
     11  CB        50.7300   -6.3790   24.7760 C.3   131  PRO131      0.0268
     12  CG        49.5470   -7.1340   25.3200 C.3   131  PRO131      0.0207
     13  CD        49.2890   -8.2230   24.3110 C.3   131  PRO131      0.0892
     14  N         54.8360   -5.4270   27.5430 N.3   133  HIS133     -0.1226
     15  CA        55.5840   -4.5740   28.4690 C.3   133  HIS133      0.1752
     16  C         55.2610   -4.8130   29.9420 C.2   133  HIS133      0.2596
     17  O         56.0120   -4.3300   30.7970 O.2   133  HIS133     -0.2718
     18  CB        55.3970   -3.0920   28.1200 C.3   133  HIS133      0.0759
     19  CG        54.0150   -2.5630   28.3470 C.ar  133  HIS133      0.0818
     20  ND1       53.7800   -1.2420   28.6640 N.ar  133  HIS133     -0.2268
     21  CD2       52.7990   -3.1560   28.2810 C.ar  133  HIS133      0.1154
     22  CE1       52.4800   -1.0460   28.7930 C.ar  133  HIS133      0.1986
     23  NE2       51.8620   -2.1910   28.5630 N.ar  133  HIS133     -0.2212
     24  N         54.2050   -5.5580   30.2690 N.am  134  HIS134     -0.1975
     25  CA        53.9600   -5.9250   31.6610 C.3   134  HIS134      0.1656
     26  C         54.6840   -7.1950   32.0820 C.2   134  HIS134      0.2291
     27  O         54.7260   -7.4930   33.2810 O.2   134  HIS134     -0.2864
     28  CB        52.4630   -6.1090   31.9230 C.3   134  HIS134      0.0771
     29  CG        51.6760   -4.8440   31.8340 C.ar  134  HIS134      0.0820
     30  ND1       51.9440   -3.7460   32.6220 N.ar  134  HIS134     -0.2267
     31  CD2       50.6220   -4.5040   31.0580 C.ar  134  HIS134      0.1154
     32  CE1       51.0950   -2.7780   32.3260 C.ar  134  HIS134      0.1986
     33  NE2       50.2840   -3.2120   31.3800 N.ar  134  HIS134     -0.2212
     34  N         49.2580   -8.8160   32.9770 N.3   142  GLY142     -0.1210
     35  CA        48.5700   -7.8140   32.1850 C.3   142  GLY142      0.1956
     36  C         48.5190   -8.0920   30.6980 C.2   142  GLY142      0.2612
     37  O         48.8940   -7.2360   29.8900 O.2   142  GLY142     -0.2717
     38  N         48.0670   -9.2910   30.3300 N.am  143  PHE143     -0.1962
     39  CA        47.9100   -9.7680   28.9560 C.3   143  PHE143      0.1771
     40  C         49.2510  -10.0780   28.2900 C.2   143  PHE143      0.2619
     41  O         49.2700  -10.4080   27.0920 O.2   143  PHE143     -0.2715
     42  CB        47.1360   -8.7840   28.0560 C.3   143  PHE143      0.0574
     43  CG        45.8940   -8.1820   28.6900 C.ar  143  PHE143     -0.0200
     44  CD1       45.2080   -8.8310   29.7040 C.ar  143  PHE143     -0.0042
     45  CD2       45.4070   -6.9600   28.2390 C.ar  143  PHE143     -0.0042
     46  CE1       44.0720   -8.2660   30.2740 C.ar  143  PHE143     -0.0003
     47  CE2       44.2700   -6.3910   28.7990 C.ar  143  PHE143     -0.0003
     48  CZ        43.6020   -7.0470   29.8170 C.ar  143  PHE143     -0.0000
     49  N         50.3670   -9.9980   29.0150 N.am  144  CYS144     -0.1968
     50  CA        51.7080  -10.1450   28.4560 C.3   144  CYS144      0.1712
     51  C         52.3830  -11.3990   28.9980 C.2   144  CYS144      0.2296
     52  O         52.3720  -11.6390   30.2100 O.2   144  CYS144     -0.2864
     53  CB        52.5770   -8.9310   28.7900 C.3   144  CYS144      0.0983
     54  SG        51.8870   -7.3250   28.3620 S.3   144  CYS144     -0.0798
     55  N         52.1410    3.5340   25.7770 N.3   172  ASP172     -0.1239
     56  CA        50.9630    2.8440   26.2840 C.3   172  ASP172      0.1674
     57  C         50.4630    3.5680   27.5280 C.2   172  ASP172      0.2266
     58  O         51.2470    4.1410   28.2870 O.2   172  ASP172     -0.2867
     59  CB        51.3230    1.3860   26.5970 C.3   172  ASP172      0.1410
     60  CG        50.1210    0.5300   26.9350 C.2   172  ASP172      0.3668
     61  OD1       49.5620    0.6770   28.0420 O.co2 172  ASP172     -0.2456
     62  OD2       49.7430   -0.3210   26.1000 O.co2 172  ASP172     -0.2456
     63  N         49.4270    2.4690   30.1950 N.3   174  HIS174     -0.1241
     64  CA        49.8360    1.7960   31.4190 C.3   174  HIS174      0.1621
     65  C         51.3530    1.7900   31.5620 C.2   174  HIS174      0.2264
     66  O         52.0910    1.7830   30.5760 O.2   174  HIS174     -0.2867
     67  CB        49.3190    0.3560   31.4570 C.3   174  HIS174      0.0745
     68  CG        47.8380    0.2420   31.2870 C.ar  174  HIS174      0.0817
     69  ND1       47.2470   -0.0060   30.0670 N.ar  174  HIS174     -0.2268
     70  CD2       46.8260    0.3580   32.1800 C.ar  174  HIS174      0.1154
     71  CE1       45.9350   -0.0410   30.2150 C.ar  174  HIS174      0.1986
     72  NE2       45.6530    0.1760   31.4880 N.ar  174  HIS174     -0.2212
     73  N         45.9890    0.4610   36.9010 N.3   203  PHE203     -0.1241
     74  CA        46.7790   -0.7240   36.5940 C.3   203  PHE203      0.1605
     75  C         48.1430   -0.3070   36.0460 C.2   203  PHE203      0.2264
     76  O         48.2170    0.5990   35.2070 O.2   203  PHE203     -0.2867
     77  CB        46.0590   -1.6140   35.5740 C.3   203  PHE203      0.0534
     78  CG        46.7480   -2.9290   35.3350 C.ar  203  PHE203     -0.0203
     79  CD1       47.7040   -3.0570   34.3410 C.ar  203  PHE203     -0.0042
     80  CD2       46.4580   -4.0290   36.1270 C.ar  203  PHE203     -0.0042
     81  CE1       48.3510   -4.2620   34.1330 C.ar  203  PHE203     -0.0003
     82  CE2       47.1010   -5.2390   35.9230 C.ar  203  PHE203     -0.0003
     83  CZ        48.0470   -5.3550   34.9240 C.ar  203  PHE203     -0.0000
     84  N         46.1890    2.6800   23.9210 N.3   265  ASP265     -0.1239
     85  CA        45.0770    2.7690   24.8540 C.3   265  ASP265      0.1674
     86  C         45.0100    4.1080   25.5770 C.2   265  ASP265      0.2266
     87  O         44.0970    4.3140   26.3810 O.2   265  ASP265     -0.2867
     88  CB        45.1060    1.6100   25.8660 C.3   265  ASP265      0.1410
     89  CG        46.4970    1.2650   26.3620 C.2   265  ASP265      0.3668
     90  OD1       47.4720    1.9970   26.0770 O.co2 265  ASP265     -0.2456
     91  OD2       46.6050    0.2300   27.0590 O.co2 265  ASP265     -0.2456
     92  N         39.3880    1.3900   28.0580 N.3   272  LEU272     -0.1245
     93  CA        40.0760    1.2220   29.3320 C.3   272  LEU272      0.1561
     94  C         40.8720    2.4410   29.7730 C.2   272  LEU272      0.2260
     95  O         40.9110    2.7420   30.9670 O.2   272  LEU272     -0.2867
     96  CB        41.0230    0.0150   29.2670 C.3   272  LEU272      0.0270
     97  CG        40.4190   -1.3650   29.0040 C.3   272  LEU272      0.0019
     98  CD1       41.4900   -2.4400   29.1170 C.3   272  LEU272      0.0001
     99  CD2       39.2810   -1.6390   29.9730 C.3   272  LEU272      0.0001
    100  N         49.3560   -2.3160   24.0270 N.3   303  GLY303     -0.1225
    101  CA        47.9290   -2.3130   24.2760 C.3   303  GLY303      0.1811
    102  C         47.1560   -1.4380   23.3060 C.2   303  GLY303      0.2280
    103  O         47.6410   -1.0610   22.2350 O.2   303  GLY303     -0.2866
    104  N         42.6090   -0.7920   22.7400 N.3   305  TYR305     -0.1241
    105  CA        41.4770   -1.7100   22.7320 C.3   305  TYR305      0.1605
    106  C         40.2430   -1.2270   21.9860 C.2   305  TYR305      0.2264
    107  O         39.2910   -2.0070   21.8580 O.2   305  TYR305     -0.2867
    108  CB        41.1030   -2.0700   24.1770 C.3   305  TYR305      0.0534
    109  CG        42.3270   -2.5850   24.8730 C.ar  305  TYR305     -0.0201
    110  CD1       42.8170   -3.8520   24.5820 C.ar  305  TYR305     -0.0009
    111  CD2       43.0480   -1.7800   25.7510 C.ar  305  TYR305     -0.0009
    112  CE1       43.9600   -4.3250   25.1710 C.ar  305  TYR305      0.0417
    113  CE2       44.1970   -2.2450   26.3470 C.ar  305  TYR305      0.0417
    114  CZ        44.6470   -3.5220   26.0520 C.ar  305  TYR305      0.1957
    115  OH        45.7890   -4.0070   26.6360 O.3   305  TYR305     -0.2866
@<TRIPOS>BOND
     1   107   106    2
     2   106   105    1
     3   103   102    2
     4   105   104    1
     5   105   108    1
     6   102   101    1
     7     7     8    1
     8     7    13    1
     9    84    85    1
    10   100   101    1
    11     8    11    1
    12     8     9    1
    13   108   109    1
    14    13    12    1
    15   110   109   ar
    16   110   112   ar
    17    11    12    1
    18    85    86    1
    19    85    88    1
    20   109   111   ar
    21     9    10    2
    22   112   114   ar
    23    86    87    2
    24   111   113   ar
    25    55    56    1
    26    88    89    1
    27   114   113   ar
    28   114   115    1
    29    90    89   ar
    30    62    60   ar
    31    56    59    1
    32    56    57    1
    33    89    91   ar
    34    59    60    1
    35    60    61   ar
    36    41    40    2
    37    57    58    2
    38    14    15    1
    39    42    43    1
    40    42    39    1
    41    92    93    1
    42    18    19    1
    43    18    15    1
    44    45    43   ar
    45    45    47   ar
    46    21    19   ar
    47    21    23   ar
    48    40    39    1
    49    40    49   am
    50    19    20   ar
    51    54    53    1
    52    50    53    1
    53    50    51    1
    54    50    49    1
    55    15    16    1
    56    23    22   ar
    57    20    22   ar
    58    43    44   ar
    59    47    48   ar
    60    39    38    1
    61    51    52    2
    62    97    98    1
    63    97    96    1
    64    97    99    1
    65    96    93    1
    66    93    94    1
    67    44    46   ar
    68    94    95    2
    69    48    46   ar
    70    37    36    2
    71    16    24   am
    72    16    17    2
    73    69    71   ar
    74    69    68   ar
    75    63    64    1
    76    71    72   ar
    77    24    25    1
    78    38    36   am
    79    66    65    2
    80    36    35    1
    81    31    33   ar
    82    31    29   ar
    83    68    67    1
    84    68    70   ar
    85    33    32   ar
    86    64    67    1
    87    64    65    1
    88    72    70   ar
    89    25    28    1
    90    25    26    1
    91    29    28    1
    92    29    30   ar
    93    26    27    2
    94    35    34    1
    95    32    30   ar
    96     4     3    2
    97     3     2    1
    98    81    79   ar
    99    81    83   ar
   100     5     2    1
   101     5     6    1
   102    79    78   ar
   103     2     1    1
   104    83    82   ar
   105    76    75    2
   106    78    77    1
   107    78    80   ar
   108    77    74    1
   109    82    80   ar
   110    75    74    1
   111    74    73    1
