@<TRIPOS>MOLECULE
tmp/6cstA00.pdb
 87 83 0 0 0
SMALL
GASTEIGER

@<TRIPOS>ATOM
      1  N         20.6450   24.1800  178.1100 N.3    94  ASP94      -0.1225
      2  CA        19.2550   24.5700  177.8810 C.3    94  ASP94       0.1805
      3  C         18.4390   24.5410  179.1620 C.2    94  ASP94       0.2597
      4  O         18.3970   23.4990  179.8650 O.2    94  ASP94      -0.2718
      5  CB        18.6330   23.6900  176.8040 C.3    94  ASP94       0.1424
      6  CG        19.4440   23.7110  175.4960 C.2    94  ASP94       0.3668
      7  OD1       19.8830   24.8130  175.0910 O.co2  94  ASP94      -0.2456
      8  OD2       19.5740   22.6550  174.8140 O.co2  94  ASP94      -0.2456
      9  N         17.8040   25.6790  179.4550 N.am   95  ALA95      -0.1979
     10  CA        16.9290   25.8370  180.6290 C.3    95  ALA95       0.1597
     11  C         17.5350   25.1670  181.8850 C.2    95  ALA95       0.2287
     12  O         16.8340   24.5150  182.6260 O.2    95  ALA95      -0.2864
     13  CB        15.5510   25.2670  180.3120 C.3    95  ALA95       0.0319
     14  N         15.8020   22.0880  183.5130 N.3    99  ALA99      -0.1245
     15  CA        16.0970   20.8320  182.8430 C.3    99  ALA99       0.1562
     16  C         16.5790   19.7370  183.8140 C.2    99  ALA99       0.2260
     17  O         16.2130   18.5590  183.6900 O.2    99  ALA99      -0.2867
     18  CB        17.0910   21.0290  181.6850 C.3    99  ALA99       0.0290
     19  N         13.4160   18.6030  185.6900 N.3   102  MET102     -0.1245
     20  CA        12.5540   17.7670  184.8610 C.3   102  MET102      0.1570
     21  C         13.1690   16.3870  184.6660 C.2   102  MET102      0.2261
     22  O         12.4620   15.3970  184.5820 O.2   102  MET102     -0.2867
     23  CB        12.3190   18.3930  183.4780 C.3   102  MET102      0.0387
     24  CG        11.4480   19.6340  183.4870 C.3   102  MET102      0.0595
     25  SD        11.6300   20.5800  181.9580 S.3   102  MET102     -0.1393
     26  CE        10.7600   19.5740  180.8120 C.3   102  MET102      0.0692
     27  N          8.0930   16.7960  182.9070 N.3   109  LYS109     -0.1245
     28  CA         8.4800   16.9640  181.5330 C.3   109  LYS109      0.1561
     29  C          7.5260   17.6490  180.5680 C.2   109  LYS109      0.2260
     30  O          7.9540   18.4190  179.7740 O.2   109  LYS109     -0.2867
     31  CB         8.9470   15.6450  180.9700 C.3   109  LYS109      0.0271
     32  CG        10.1840   15.8010  180.1310 C.3   109  LYS109      0.0035
     33  CD        11.3870   15.1860  180.8090 C.3   109  LYS109      0.0206
     34  CE        12.4960   16.1920  181.0160 C.3   109  LYS109      0.1093
     35  NZ        13.3080   16.3970  179.8100 N.3   109  LYS109     -0.1314
     36  N         11.4120   26.6650  182.1160 N.3   125  ASN125     -0.1225
     37  CA        11.5230   25.7850  180.9930 C.3   125  ASN125      0.1785
     38  C         10.8280   26.3870  179.7550 C.2   125  ASN125      0.2597
     39  O         10.1810   27.4270  179.8110 O.2   125  ASN125     -0.2718
     40  CB        11.0790   24.3590  181.3240 C.3   125  ASN125      0.1169
     41  CG         9.5760   24.1740  181.3700 C.2   125  ASN125      0.2627
     42  OD1        8.8070   25.1320  181.3340 O.2   125  ASN125     -0.2716
     43  ND2        9.1580   22.9160  181.5420 N.am  125  ASN125     -0.0877
     44  N         11.0340   25.7350  178.6310 N.am  126  TYR126     -0.1962
     45  CA        10.6130   26.2780  177.3590 C.3   126  TYR126      0.1771
     46  C          9.1040   26.2890  177.2220 C.2   126  TYR126      0.2619
     47  O          8.5670   27.1910  176.5740 O.2   126  TYR126     -0.2715
     48  CB        11.3230   25.6100  176.1720 C.3   126  TYR126      0.0574
     49  CG        12.7190   26.2060  175.9860 C.ar  126  TYR126     -0.0198
     50  CD1       12.9400   27.2300  175.0640 C.ar  126  TYR126     -0.0009
     51  CD2       13.7830   25.7900  176.7610 C.ar  126  TYR126     -0.0009
     52  CE1       14.1900   27.8030  174.9040 C.ar  126  TYR126      0.0417
     53  CE2       15.0230   26.3530  176.6170 C.ar  126  TYR126      0.0417
     54  CZ        15.2280   27.3590  175.6860 C.ar  126  TYR126      0.1957
     55  OH        16.4730   27.9010  175.5410 O.3   126  TYR126     -0.2866
     56  N          8.4190   25.3220  177.8250 N.am  127  HIS127     -0.1973
     57  CA         6.9540   25.3730  177.8920 C.3   127  HIS127      0.1656
     58  C          6.4780   26.6390  178.5870 C.2   127  HIS127      0.2291
     59  O          5.6250   27.3430  178.0720 O.2   127  HIS127     -0.2864
     60  CB         6.3840   24.1570  178.6170 C.3   127  HIS127      0.0771
     61  CG         6.5480   22.8620  177.8860 C.ar  127  HIS127      0.0820
     62  ND1        6.4140   22.7450  176.5230 N.ar  127  HIS127     -0.2267
     63  CD2        6.8350   21.6130  178.3400 C.ar  127  HIS127      0.1154
     64  CE1        6.5860   21.4850  176.1600 C.ar  127  HIS127      0.1986
     65  NE2        6.8430   20.7760  177.2450 N.ar  127  HIS127     -0.2212
     66  N         20.4820   18.5940  177.5390 N.3   236  THR236     -0.1218
     67  CA        20.9710   19.1240  176.2760 C.3   236  THR236      0.1862
     68  C         21.6380   20.4660  176.4650 C.2   236  THR236      0.2287
     69  O         21.3090   21.2370  177.3920 O.2   236  THR236     -0.2866
     70  CB        19.8560   19.2730  175.2320 C.3   236  THR236      0.1770
     71  OG1       18.8950   20.2270  175.6850 O.3   236  THR236     -0.2211
     72  CG2       19.1600   17.9020  174.9770 C.3   236  THR236      0.0375
     73  N         16.2440   25.6460  171.9350 N.3   257  PRO257     -0.2102
     74  CA        17.0660   24.7180  172.6780 C.3   257  PRO257      0.1504
     75  C         17.5830   23.5940  171.7890 C.2   257  PRO257      0.2575
     76  O         17.0520   23.3690  170.7040 O.2   257  PRO257     -0.2718
     77  CB        16.0790   24.1730  173.7240 C.3   257  PRO257      0.0282
     78  CG        14.7580   24.1680  173.0000 C.3   257  PRO257      0.0208
     79  CD        14.7990   25.4050  172.1390 C.3   257  PRO257      0.0893
     80  N         18.5900   22.8750  172.2860 N.am  258  ASN258     -0.1975
     81  CA        19.1580   21.7070  171.6350 C.3   258  ASN258      0.1688
     82  C         19.5010   21.9540  170.1540 C.2   258  ASN258      0.2292
     83  O         19.1510   21.1750  169.2840 O.2   258  ASN258     -0.2864
     84  CB        18.2490   20.4800  171.8470 C.3   258  ASN258      0.1181
     85  CG        18.9440   19.1500  171.5590 C.2   258  ASN258      0.2629
     86  OD1       20.1520   19.0190  171.6190 O.2   258  ASN258     -0.2716
     87  ND2       18.1510   18.1480  171.2440 N.am  258  ASN258     -0.0877
@<TRIPOS>BOND
     1    83    82    2
     2    82    81    1
     3    76    75    2
     4    87    85   am
     5    85    86    2
     6    85    84    1
     7    81    84    1
     8    81    80    1
     9    75    80   am
    10    75    74    1
    11    73    79    1
    12    73    74    1
    13    79    78    1
    14    74    77    1
    15    78    77    1
    16     8     6   ar
    17    52    50   ar
    18    52    54   ar
    19    72    70    1
    20    50    49   ar
    21     7     6   ar
    22    70    71    1
    23    70    67    1
    24     6     5    1
    25    55    54    1
    26    54    53   ar
    27    49    48    1
    28    49    51   ar
    29    64    62   ar
    30    64    65   ar
    31    48    45    1
    32    67    68    1
    33    67    66    1
    34    68    69    2
    35    62    61   ar
    36    47    46    2
    37    53    51   ar
    38     5     2    1
    39    46    45    1
    40    46    56   am
    41    65    63   ar
    42    45    44    1
    43    56    57    1
    44     2     1    1
    45     2     3    1
    46    61    63   ar
    47    61    60    1
    48    57    58    1
    49    57    60    1
    50    59    58    2
    51    44    38   am
    52     3     9   am
    53     3     4    2
    54     9    10    1
    55    38    39    2
    56    38    37    1
    57    30    29    2
    58    35    34    1
    59    32    33    1
    60    32    31    1
    61    13    10    1
    62    29    28    1
    63    10    11    1
    64    33    34    1
    65    26    25    1
    66    31    28    1
    67    37    40    1
    68    37    36    1
    69    40    41    1
    70    42    41    2
    71    41    43   am
    72    28    27    1
    73    18    15    1
    74    11    12    2
    75    25    24    1
    76    15    14    1
    77    15    16    1
    78    23    24    1
    79    23    20    1
    80    17    16    2
    81    22    21    2
    82    21    20    1
    83    20    19    1
