@<TRIPOS>MOLECULE
tmp/6cstA04.pdb
 187 181 0 0 0
SMALL
GASTEIGER

@<TRIPOS>ATOM
      1  N         15.3960   36.6020  175.1780 N.3    10  LYS10      -0.1231
      2  CA        15.7810   35.2890  175.6560 C.3    10  LYS10       0.1693
      3  C         15.2850   34.2070  174.7240 C.2    10  LYS10       0.2591
      4  O         14.2600   34.3670  174.0980 O.2    10  LYS10      -0.2718
      5  CB        15.1060   35.0520  176.9920 C.3    10  LYS10       0.0285
      6  CG        15.9730   35.3420  178.1600 C.3    10  LYS10       0.0035
      7  CD        16.6090   34.0830  178.6630 C.3    10  LYS10       0.0206
      8  CE        18.0750   34.3160  179.0110 C.3    10  LYS10       0.1093
      9  NZ        18.7990   33.0410  179.1740 N.3    10  LYS10      -0.1314
     10  N         16.0000   33.0950  174.6450 N.am   11  ALA11      -0.1980
     11  CA        15.5600   32.0620  173.7110 C.3    11  ALA11       0.1597
     12  C         14.1670   31.5580  174.0900 C.2    11  ALA11       0.2287
     13  O         13.8520   31.4400  175.2930 O.2    11  ALA11      -0.2864
     14  CB        16.5270   30.8920  173.6900 C.3    11  ALA11       0.0319
     15  N         26.2450   26.3510  176.0420 N.3    92  ASP92      -0.1225
     16  CA        25.2830   26.9160  176.9870 C.3    92  ASP92       0.1805
     17  C         24.1450   25.9270  177.2200 C.2    92  ASP92       0.2598
     18  O         23.4010   25.6220  176.3010 O.2    92  ASP92      -0.2718
     19  CB        24.7290   28.2320  176.4370 C.3    92  ASP92       0.1424
     20  CG        23.8630   28.9670  177.4510 C.2    92  ASP92       0.3668
     21  OD1       22.9580   28.3880  178.0820 O.co2  92  ASP92      -0.2456
     22  OD2       24.1120   30.1510  177.6340 O.co2  92  ASP92      -0.2456
     23  N         24.0110   25.4320  178.4400 N.am   93  MET93      -0.1965
     24  CA        22.9670   24.4650  178.7810 C.3    93  MET93       0.1736
     25  C         21.5410   25.0390  178.5810 C.2    93  MET93       0.2616
     26  O         21.2650   26.2070  178.8930 O.2    93  MET93      -0.2715
     27  CB        23.1200   23.9620  180.2250 C.3    93  MET93       0.0427
     28  CG        24.4760   23.2910  180.5910 C.3    93  MET93       0.0599
     29  SD        24.8370   21.8310  179.6140 S.3    93  MET93      -0.1393
     30  CE        23.6170   20.6770  180.2370 C.3    93  MET93       0.0692
     31  N         20.6450   24.1800  178.1100 N.am   94  ASP94      -0.1957
     32  CA        19.2550   24.5700  177.8810 C.3    94  ASP94       0.1840
     33  C         18.4390   24.5410  179.1620 C.2    94  ASP94       0.2622
     34  O         18.3970   23.4990  179.8650 O.2    94  ASP94      -0.2715
     35  CB        18.6330   23.6900  176.8040 C.3    94  ASP94       0.1450
     36  CG        19.4440   23.7110  175.4960 C.2    94  ASP94       0.3671
     37  OD1       19.8830   24.8130  175.0910 O.co2  94  ASP94      -0.2456
     38  OD2       19.5740   22.6550  174.8140 O.co2  94  ASP94      -0.2456
     39  N         17.8040   25.6790  179.4550 N.am   95  ALA95      -0.1963
     40  CA        16.9290   25.8370  180.6290 C.3    95  ALA95       0.1728
     41  C         17.5350   25.1670  181.8850 C.2    95  ALA95       0.2616
     42  O         16.8340   24.5150  182.6260 O.2    95  ALA95      -0.2715
     43  CB        15.5510   25.2670  180.3120 C.3    95  ALA95       0.0334
     44  N         18.8310   25.3980  182.1150 N.am   96  PHE96      -0.1960
     45  CA        19.6610   24.5370  182.9530 C.3    96  PHE96       0.1771
     46  C         19.0050   24.0220  184.2420 C.2    96  PHE96       0.2619
     47  O         18.8160   22.8390  184.3930 O.2    96  PHE96      -0.2715
     48  CB        20.9910   25.2430  183.2910 C.3    96  PHE96       0.0574
     49  CG        21.9680   24.3730  184.0380 C.ar   96  PHE96      -0.0200
     50  CD1       22.1760   23.0420  183.6690 C.ar   96  PHE96      -0.0042
     51  CD2       22.7480   24.9010  185.0410 C.ar   96  PHE96      -0.0042
     52  CE1       23.0900   22.2520  184.3420 C.ar   96  PHE96      -0.0003
     53  CE2       23.6610   24.1170  185.7070 C.ar   96  PHE96      -0.0003
     54  CZ        23.8370   22.8100  185.3610 C.ar   96  PHE96      -0.0000
     55  N         18.6740   24.8950  185.1800 N.am   97  TYR97      -0.1974
     56  CA        18.1070   24.4120  186.4540 C.3    97  TYR97       0.1639
     57  C         16.8000   23.6540  186.2270 C.2    97  TYR97       0.2290
     58  O         16.5630   22.6320  186.8730 O.2    97  TYR97      -0.2864
     59  CB        17.8480   25.5470  187.4540 C.3    97  TYR97       0.0560
     60  CG        19.0510   26.3260  188.0140 C.ar   97  TYR97      -0.0198
     61  CD1       18.8350   27.3210  188.9660 C.ar   97  TYR97      -0.0009
     62  CD2       20.3640   26.0970  187.5930 C.ar   97  TYR97      -0.0009
     63  CE1       19.8670   28.0780  189.4700 C.ar   97  TYR97       0.0417
     64  CE2       21.4150   26.8390  188.1050 C.ar   97  TYR97       0.0417
     65  CZ        21.1530   27.8240  189.0330 C.ar   97  TYR97       0.1957
     66  OH        22.1510   28.5560  189.5460 O.3    97  TYR97      -0.2866
     67  N         10.7490   34.9910  193.5460 N.3   120  MET120     -0.1230
     68  CA        11.7340   35.1570  192.4730 C.3   120  MET120      0.1702
     69  C         12.0210   33.8550  191.7190 C.2   120  MET120      0.2592
     70  O         12.2060   32.8200  192.3400 O.2   120  MET120     -0.2718
     71  CB        13.0700   35.6740  193.0380 C.3   120  MET120      0.0401
     72  CG        14.1330   36.0450  191.9710 C.3   120  MET120      0.0596
     73  SD        13.5360   37.1670  190.7030 S.3   120  MET120     -0.1393
     74  CE        13.0100   38.5880  191.6750 C.3   120  MET120      0.0692
     75  N         12.0830   33.9190  190.3860 N.am  121  LEU121     -0.1966
     76  CA        12.4700   32.7730  189.5800 C.3   121  LEU121      0.1728
     77  C         13.8710   33.0010  189.0260 C.2   121  LEU121      0.2617
     78  O         14.2130   34.1170  188.6270 O.2   121  LEU121     -0.2715
     79  CB        11.4910   32.5500  188.4220 C.3   121  LEU121      0.0311
     80  CG        10.0420   32.3700  188.8060 C.3   121  LEU121      0.0022
     81  CD1        9.1920   32.3320  187.5480 C.3   121  LEU121      0.0001
     82  CD2        9.8640   31.1260  189.6530 C.3   121  LEU121      0.0001
     83  N         14.6530   31.9350  189.0330 N.am  122  SER122     -0.1936
     84  CA        16.0090   31.9310  188.4690 C.3   122  SER122      0.2055
     85  C         15.9960   31.4220  187.0270 C.2   122  SER122      0.2643
     86  O         16.8860   31.7700  186.2520 O.2   122  SER122     -0.2714
     87  CB        16.9020   31.0580  189.3410 C.3   122  SER122      0.2130
     88  OG        16.3960   29.7420  189.3520 O.3   122  SER122     -0.2179
     89  N         14.9930   30.6080  186.6740 N.am  123  THR123     -0.1950
     90  CA        14.7610   30.2350  185.3060 C.3   123  THR123      0.1897
     91  C         13.4170   29.5900  185.0430 C.2   123  THR123      0.2313
     92  O         12.6820   29.2850  185.9730 O.2   123  THR123     -0.2863
     93  CB        15.8490   29.3020  184.7410 C.3   123  THR123      0.1794
     94  OG1       15.8430   29.4230  183.3310 O.3   123  THR123     -0.2208
     95  CG2       15.6450   27.8490  185.0970 C.3   123  THR123      0.0378
     96  N         11.0340   25.7350  178.6310 N.3   126  TYR126     -0.1241
     97  CA        10.6130   26.2780  177.3590 C.3   126  TYR126      0.1605
     98  C          9.1040   26.2890  177.2220 C.2   126  TYR126      0.2264
     99  O          8.5670   27.1910  176.5740 O.2   126  TYR126     -0.2867
    100  CB        11.3230   25.6100  176.1720 C.3   126  TYR126      0.0534
    101  CG        12.7190   26.2060  175.9860 C.ar  126  TYR126     -0.0201
    102  CD1       12.9400   27.2300  175.0640 C.ar  126  TYR126     -0.0009
    103  CD2       13.7830   25.7900  176.7610 C.ar  126  TYR126     -0.0009
    104  CE1       14.1900   27.8030  174.9040 C.ar  126  TYR126      0.0417
    105  CE2       15.0230   26.3530  176.6170 C.ar  126  TYR126      0.0417
    106  CZ        15.2280   27.3590  175.6860 C.ar  126  TYR126      0.1957
    107  OH        16.4730   27.9010  175.5410 O.3   126  TYR126     -0.2866
    108  N          8.0570   29.4530  179.0260 N.3   129  ARG129     -0.1245
    109  CA         8.4380   30.6630  178.2910 C.3   129  ARG129      0.1563
    110  C          7.4090   31.1150  177.2650 C.2   129  ARG129      0.2260
    111  O          7.3760   32.2900  176.9150 O.2   129  ARG129     -0.2867
    112  CB         9.8190   30.4790  177.5900 C.3   129  ARG129      0.0307
    113  CG        10.9610   30.4110  178.5930 C.3   129  ARG129      0.0489
    114  CD        12.2980   30.1580  177.9330 C.3   129  ARG129      0.2205
    115  NE        13.2560   29.7600  178.9540 N.pl3 129  ARG129     -0.0865
    116  CZ        14.5920   29.7790  178.8610 C.cat 129  ARG129      0.5346
    117  NH1       15.3160   29.3240  179.8910 N.pl3 129  ARG129      0.1354
    118  NH2       15.2020   30.1950  177.7830 N.pl3 129  ARG129      0.1354
    119  N          9.7780   33.7180  182.9790 N.3   134  ARG134     -0.1231
    120  CA        11.2230   33.7100  182.7820 C.3   134  ARG134      0.1694
    121  C         12.0030   34.0900  184.0190 C.2   134  ARG134      0.2592
    122  O         11.4390   34.5850  185.0060 O.2   134  ARG134     -0.2718
    123  CB        11.6120   34.6610  181.6380 C.3   134  ARG134      0.0321
    124  CG        11.1210   36.0960  181.8080 C.3   134  ARG134      0.0489
    125  CD        12.0380   37.0800  181.0720 C.3   134  ARG134      0.2205
    126  NE        13.3460   37.1350  181.7380 N.pl3 134  ARG134     -0.0865
    127  CZ        14.4900   37.5760  181.2120 C.cat 134  ARG134      0.5346
    128  NH1       15.5820   37.5650  181.9650 N.pl3 134  ARG134      0.1354
    129  NH2       14.5580   38.0480  179.9600 N.pl3 134  ARG134      0.1354
    130  N         13.3150   33.8950  183.9270 N.am  135  ALA135     -0.1966
    131  CA        14.2400   34.3060  184.9890 C.3   135  ALA135      0.1728
    132  C         14.0360   35.7880  185.3320 C.2   135  ALA135      0.2616
    133  O         13.7280   36.6210  184.4570 O.2   135  ALA135     -0.2715
    134  CB        15.6900   34.0470  184.5640 C.3   135  ALA135      0.0334
    135  N         14.2090   36.0930  186.6150 N.am  136  ALA136     -0.1977
    136  CA        14.1210   37.4290  187.1820 C.3   136  ALA136      0.1597
    137  C         12.6870   37.9370  187.3820 C.2   136  ALA136      0.2287
    138  O         12.5080   39.0440  187.8360 O.2   136  ALA136     -0.2864
    139  CB        14.9850   38.4710  186.4280 C.3   136  ALA136      0.0319
    140  N         29.7000   30.5880  184.0760 N.3   181  SER181     -0.1202
    141  CA        28.8510   30.2920  185.2120 C.3   181  SER181      0.2020
    142  C         28.8450   28.7620  185.2860 C.2   181  SER181      0.2619
    143  O         29.6540   28.1070  184.6020 O.2   181  SER181     -0.2717
    144  CB        27.4510   30.8690  184.9420 C.3   181  SER181      0.2103
    145  OG        26.9530   30.4410  183.6700 O.3   181  SER181     -0.2182
    146  N         27.9180   28.1910  186.0430 N.am  182  LEU182     -0.1965
    147  CA        27.7370   26.7390  186.0300 C.3   182  LEU182      0.1728
    148  C         27.3450   26.2000  184.6530 C.2   182  LEU182      0.2616
    149  O         27.7610   25.0860  184.2910 O.2   182  LEU182     -0.2715
    150  CB        26.6510   26.2990  187.0290 C.3   182  LEU182      0.0311
    151  CG        26.9050   26.5470  188.4940 C.3   182  LEU182      0.0022
    152  CD1       25.7390   26.0030  189.2850 C.3   182  LEU182      0.0001
    153  CD2       28.2300   25.9390  188.9610 C.3   182  LEU182      0.0001
    154  N         26.5560   26.9670  183.8930 N.am  183  ASP183     -0.1957
    155  CA        25.9020   26.3900  182.7150 C.3   183  ASP183      0.1840
    156  C         26.5560   26.7310  181.3520 C.2   183  ASP183      0.2621
    157  O         26.0780   26.2660  180.3300 O.2   183  ASP183     -0.2715
    158  CB        24.3940   26.7290  182.7160 C.3   183  ASP183      0.1450
    159  CG        24.0060   27.7020  181.6480 C.2   183  ASP183      0.3671
    160  OD1       24.6380   28.7580  181.5710 O.co2 183  ASP183     -0.2456
    161  OD2       23.0870   27.3890  180.8620 O.co2 183  ASP183     -0.2456
    162  N         27.5830   27.5630  181.3220 N.am  184  GLU184     -0.1977
    163  CA        28.1800   27.9370  180.0410 C.3   184  GLU184      0.1602
    164  C         29.6730   28.0570  180.0720 C.2   184  GLU184      0.2287
    165  O         30.2930   28.2100  181.1430 O.2   184  GLU184     -0.2864
    166  CB        27.5550   29.2030  179.4630 C.3   184  GLU184      0.0415
    167  CG        27.8740   30.4960  180.1720 C.3   184  GLU184      0.1163
    168  CD        27.2900   31.6970  179.4520 C.2   184  GLU184      0.3649
    169  OE1       26.0410   31.8360  179.4820 O.co2 184  GLU184     -0.2457
    170  OE2       28.0780   32.4830  178.8340 O.co2 184  GLU184     -0.2457
    171  N         22.8110   31.0540  171.2600 N.3   253  ASP253     -0.1239
    172  CA        21.4160   31.2810  171.5950 C.3   253  ASP253      0.1674
    173  C         20.5300   31.1040  170.3700 C.2   253  ASP253      0.2266
    174  O         19.3240   30.8970  170.4970 O.2   253  ASP253     -0.2867
    175  CB        21.2180   32.6990  172.1550 C.3   253  ASP253      0.1410
    176  CG        20.5990   32.6860  173.5280 C.2   253  ASP253      0.3668
    177  OD1       21.2720   32.2370  174.4800 O.co2 253  ASP253     -0.2456
    178  OD2       19.4370   33.1290  173.6480 O.co2 253  ASP253     -0.2456
    179  N         18.6230   27.6190  169.9930 N.3   256  LYS256     -0.1245
    180  CA        18.1550   27.0890  171.2780 C.3   256  LYS256      0.1561
    181  C         16.6770   26.7000  171.2530 C.2   256  LYS256      0.2260
    182  O         15.9150   27.3710  170.6230 O.2   256  LYS256     -0.2867
    183  CB        18.3220   28.1520  172.3760 C.3   256  LYS256      0.0271
    184  CG        19.4550   27.8560  173.2730 C.3   256  LYS256      0.0035
    185  CD        19.6470   28.8990  174.3610 C.3   256  LYS256      0.0206
    186  CE        20.9380   28.5500  175.0940 C.3   256  LYS256      0.1093
    187  NZ        20.8310   27.3010  175.8970 N.3   256  LYS256     -0.1314
@<TRIPOS>BOND
     1   179   180    1
     2   173   174    2
     3   173   172    1
     4   182   181    2
     5   181   180    1
     6   171   172    1
     7   180   183    1
     8   172   175    1
     9   175   176    1
    10   183   184    1
    11   184   185    1
    12   176   178   ar
    13   176   177   ar
    14    14    11    1
    15    11    12    1
    16    11    10    1
    17    12    13    2
    18     4     3    2
    19   185   186    1
    20    10     3   am
    21     3     2    1
    22    38    36   ar
    23   104   102   ar
    24   104   106   ar
    25   102   101   ar
    26    37    36   ar
    27   186   187    1
    28     1     2    1
    29    36    35    1
    30   107   106    1
    31     2     5    1
    32   106   105   ar
    33   101   100    1
    34   101   103   ar
    35    15    16    1
    36   100    97    1
    37    18    17    2
    38    19    16    1
    39    19    20    1
    40    99    98    2
    41   105   103   ar
    42    35    32    1
    43   111   110    2
    44    16    17    1
    45     5     6    1
    46    17    23   am
    47    98    97    1
    48   110   109    1
    49    97    96    1
    50    20    22   ar
    51    20    21   ar
    52   112   109    1
    53   112   113    1
    54   118   116    1
    55    32    31    1
    56    32    33    1
    57   114   113    1
    58   114   115    1
    59    31    25   am
    60     6     7    1
    61   109   108    1
    62    23    24    1
    63    25    24    1
    64    25    26    2
    65     7     8    1
    66    24    27    1
    67   170   168   ar
    68   116   115    2
    69   116   117    1
    70     8     9    1
    71    33    39   am
    72    33    34    2
    73   168   169   ar
    74   168   167    1
    75    39    40    1
    76   166   163    1
    77   166   167    1
    78    29    30    1
    79    29    28    1
    80   129   127    1
    81   163   164    1
    82   163   162    1
    83   164   165    2
    84    27    28    1
    85    43    40    1
    86   157   156    2
    87    40    41    1
    88   161   159   ar
    89   125   126    1
    90   125   124    1
    91   127   126    2
    92   127   128    1
    93   162   156   am
    94   156   155    1
    95   160   159   ar
    96   123   124    1
    97   123   120    1
    98   159   158    1
    99    41    44   am
   100    41    42    2
   101    44    45    1
   102   155   158    1
   103   155   154    1
   104   120   119    1
   105   120   121    1
   106    45    48    1
   107    45    46    1
   108    48    49    1
   109    94    93    1
   110    50    49   ar
   111    50    52   ar
   112   145   144    1
   113   154   148   am
   114   130   121   am
   115   130   131    1
   116   121   122    2
   117    49    51   ar
   118   140   141    1
   119    46    47    2
   120    46    55   am
   121   149   148    2
   122    52    54   ar
   123   133   132    2
   124   134   131    1
   125   143   142    2
   126   148   147    1
   127    93    95    1
   128    93    90    1
   129   144   141    1
   130   131   132    1
   131    51    53   ar
   132    91    90    1
   133    91    92    2
   134    55    56    1
   135   141   142    1
   136   142   146   am
   137    90    89    1
   138   132   135   am
   139    54    53   ar
   140   147   146    1
   141   147   150    1
   142    57    56    1
   143    57    58    2
   144    86    85    2
   145   139   136    1
   146    56    59    1
   147   135   136    1
   148    89    85   am
   149    85    84    1
   150   150   151    1
   151   136   137    1
   152   137   138    2
   153    59    60    1
   154    81    80    1
   155    62    60   ar
   156    62    64   ar
   157    60    61   ar
   158    64    65   ar
   159    79    80    1
   160    79    76    1
   161    84    83    1
   162    84    87    1
   163   151   153    1
   164   151   152    1
   165    78    77    2
   166    80    82    1
   167    61    63   ar
   168    77    83   am
   169    77    76    1
   170    65    63   ar
   171    65    66    1
   172    87    88    1
   173    76    75    1
   174    75    69   am
   175    73    74    1
   176    73    72    1
   177    69    70    2
   178    69    68    1
   179    72    71    1
   180    68    71    1
   181    68    67    1
