@<TRIPOS>MOLECULE
tmp/6cswA00.pdb
 89 88 0 0 0
SMALL
GASTEIGER

@<TRIPOS>ATOM
      1  N         41.6000   -3.7020    0.0280 N.3     8  GLU8       -0.1231
      2  CA        41.2750   -5.0040   -0.5410 C.3     8  GLU8        0.1699
      3  C         39.7730   -5.1630   -0.7520 C.2     8  GLU8        0.2592
      4  O         38.9530   -4.4950   -0.1120 O.2     8  GLU8       -0.2718
      5  CB        41.8690   -6.1650    0.2860 C.3     8  GLU8        0.0402
      6  CG        41.1220   -6.6080    1.5290 C.3     8  GLU8        0.1161
      7  CD        41.6990   -7.9000    2.0880 C.2     8  GLU8        0.3649
      8  OE1       41.5850   -8.9370    1.4000 O.co2   8  GLU8       -0.2457
      9  OE2       42.2980   -7.8900    3.1880 O.co2   8  GLU8       -0.2457
     10  N         39.4410   -6.0720   -1.6570 N.am    9  ILE9       -0.1966
     11  CA        38.0780   -6.3550   -2.0350 C.3     9  ILE9        0.1727
     12  C         37.6490   -7.6100   -1.2940 C.2     9  ILE9        0.2616
     13  O         38.2810   -8.6550   -1.3980 O.2     9  ILE9       -0.2715
     14  CB        37.9620   -6.5590   -3.5740 C.3     9  ILE9        0.0290
     15  CG1       38.3150   -5.2570   -4.3100 C.3     9  ILE9        0.0022
     16  CG2       36.5550   -7.0470   -3.9770 C.3     9  ILE9        0.0023
     17  CD1       38.7160   -5.4470   -5.7570 C.3     9  ILE9        0.0001
     18  N         36.5680   -7.5060   -0.5510 N.am   10  ILE10      -0.1963
     19  CA        36.0250   -8.6510    0.1520 C.3    10  ILE10       0.1727
     20  C         34.6200   -8.9360   -0.3970 C.2    10  ILE10       0.2617
     21  O         33.8870   -8.0120   -0.7560 O.2    10  ILE10      -0.2715
     22  CB        36.0090   -8.4340    1.6950 C.3    10  ILE10       0.0290
     23  CG1       35.0410   -7.3370    2.1120 C.3    10  ILE10       0.0022
     24  CG2       37.4100   -8.0980    2.2220 C.3    10  ILE10       0.0023
     25  CD1       34.9650   -7.1360    3.6130 C.3    10  ILE10       0.0001
     26  N         34.2650  -10.2150   -0.4920 N.am   11  THR11      -0.1937
     27  CA        32.9440  -10.6110   -0.9590 C.3    11  THR11       0.2028
     28  C         32.2100  -11.3330    0.1610 C.2    11  THR11       0.2642
     29  O         32.7600  -12.2020    0.8220 O.2    11  THR11      -0.2714
     30  CB        32.9890  -11.4550   -2.2730 C.3    11  THR11       0.1808
     31  OG1       33.3800  -12.7960   -1.9870 O.3    11  THR11      -0.2208
     32  CG2       33.9790  -10.8800   -3.2460 C.3    11  THR11       0.0379
     33  N         30.9670  -10.9380    0.3730 N.am   12  ASP12      -0.1957
     34  CA        30.1240  -11.5060    1.4240 C.3    12  ASP12       0.1840
     35  C         29.4460  -12.7940    0.9580 C.2    12  ASP12       0.2621
     36  O         29.6300  -13.2220   -0.1790 O.2    12  ASP12      -0.2715
     37  CB        29.0980  -10.4650    1.9180 C.3    12  ASP12       0.1450
     38  CG        28.0500  -10.0830    0.8670 C.2    12  ASP12       0.3671
     39  OD1       27.6610  -10.9080    0.0070 O.co2  12  ASP12      -0.2456
     40  OD2       27.5830   -8.9340    0.9560 O.co2  12  ASP12      -0.2456
     41  N         28.6740  -13.3980    1.8530 N.am   13  MET13      -0.1977
     42  CA        28.0120  -14.6900    1.6220 C.3    13  MET13       0.1605
     43  C         27.0930  -14.7240    0.4220 C.2    13  MET13       0.2287
     44  O         26.8470  -15.7940   -0.1090 O.2    13  MET13      -0.2864
     45  CB        27.1280  -15.0710    2.8020 C.3    13  MET13       0.0413
     46  CG        27.7830  -15.8300    3.9360 C.3    13  MET13       0.0598
     47  SD        26.4660  -16.2770    5.1320 S.3    13  MET13      -0.1393
     48  CE        25.4570  -14.7800    5.2030 C.3    13  MET13       0.0692
     49  N         30.0780  -12.1560    6.3170 N.3    92  GLY92      -0.1210
     50  CA        30.7000  -13.4320    6.0190 C.3    92  GLY92       0.1956
     51  C         31.8280  -13.8150    6.9420 C.2    92  GLY92       0.2612
     52  O         31.9380  -13.3320    8.0630 O.2    92  GLY92      -0.2717
     53  N         32.6610  -14.7080    6.4500 N.am   93  LEU93      -0.1965
     54  CA        33.7450  -15.2630    7.2080 C.3    93  LEU93       0.1728
     55  C         35.0310  -14.9360    6.4640 C.2    93  LEU93       0.2616
     56  O         35.0920  -15.0590    5.2440 O.2    93  LEU93      -0.2715
     57  CB        33.5460  -16.7760    7.3660 C.3    93  LEU93       0.0311
     58  CG        32.2680  -17.1230    8.1320 C.3    93  LEU93       0.0022
     59  CD1       31.8480  -18.5570    7.9130 C.3    93  LEU93       0.0001
     60  CD2       32.4400  -16.8500    9.6240 C.3    93  LEU93       0.0001
     61  N         36.0520  -14.5370    7.2250 N.am   94  HIS94      -0.1959
     62  CA        37.3260  -14.0580    6.6930 C.3    94  HIS94       0.1787
     63  C         38.4400  -14.6960    7.5220 C.2    94  HIS94       0.2620
     64  O         38.5780  -14.4430    8.7190 O.2    94  HIS94      -0.2715
     65  CB        37.3520  -12.5290    6.7720 C.3    94  HIS94       0.0785
     66  CG        38.6450  -11.9110    6.3570 C.ar   94  HIS94       0.0821
     67  ND1       38.9890  -11.7160    5.0380 N.ar   94  HIS94      -0.2267
     68  CD2       39.6830  -11.4400    7.0910 C.ar   94  HIS94       0.1154
     69  CE1       40.1870  -11.1630    4.9740 C.ar   94  HIS94       0.1986
     70  NE2       40.6320  -10.9870    6.2060 N.ar   94  HIS94      -0.2212
     71  N         39.2040  -15.5750    6.8940 N.am   95  ASP95      -0.1971
     72  CA        40.3450  -16.1960    7.5440 C.3    95  ASP95       0.1709
     73  C         41.5940  -15.3730    7.2490 C.2    95  ASP95       0.2293
     74  O         41.8410  -15.0120    6.1010 O.2    95  ASP95      -0.2864
     75  CB        40.5120  -17.6570    7.0880 C.3    95  ASP95       0.1436
     76  CG        39.6140  -18.6340    7.8750 C.2    95  ASP95       0.3671
     77  OD1       38.6660  -18.1860    8.5840 O.co2  95  ASP95      -0.2456
     78  OD2       39.8480  -19.8610    7.7780 O.co2  95  ASP95      -0.2456
     79  N         32.8090  -10.9550    9.6320 N.3   103  PHE103     -0.1241
     80  CA        32.6130   -9.5550    9.3070 C.3   103  PHE103      0.1605
     81  C         31.1660   -9.2600    8.9580 C.2   103  PHE103      0.2264
     82  O         30.4290  -10.1410    8.5430 O.2   103  PHE103     -0.2867
     83  CB        33.5580   -9.0910    8.1820 C.3   103  PHE103      0.0534
     84  CG        33.2710   -9.6940    6.8190 C.ar  103  PHE103     -0.0203
     85  CD1       32.3680   -9.0920    5.9460 C.ar  103  PHE103     -0.0042
     86  CD2       33.9260  -10.8430    6.4020 C.ar  103  PHE103     -0.0042
     87  CE1       32.1240   -9.6360    4.6790 C.ar  103  PHE103     -0.0003
     88  CE2       33.6840  -11.3870    5.1430 C.ar  103  PHE103     -0.0003
     89  CZ        32.7810  -10.7860    4.2850 C.ar  103  PHE103     -0.0000
@<TRIPOS>BOND
     1    17    15    1
     2    15    14    1
     3    16    14    1
     4    14    11    1
     5    32    30    1
     6    30    31    1
     7    30    27    1
     8    11    10    1
     9    11    12    1
    10    10     3   am
    11    13    12    2
    12    12    18   am
    13    27    26    1
    14    27    28    1
    15    21    20    2
    16     3     2    1
    17     3     4    2
    18    18    19    1
    19     2     1    1
    20     2     5    1
    21    26    20   am
    22    20    19    1
    23    36    35    2
    24    44    43    2
    25    39    38   ar
    26    19    22    1
    27    28    33   am
    28    28    29    2
    29     5     6    1
    30    33    34    1
    31    43    42    1
    32    38    40   ar
    33    38    37    1
    34    35    34    1
    35    35    41   am
    36     8     7   ar
    37    34    37    1
    38     6     7    1
    39    42    41    1
    40    42    45    1
    41    22    23    1
    42    22    24    1
    43     7     9   ar
    44    23    25    1
    45    45    46    1
    46    46    47    1
    47    89    87   ar
    48    89    88   ar
    49    87    85   ar
    50    69    67   ar
    51    69    70   ar
    52    67    66   ar
    53    47    48    1
    54    88    86   ar
    55    56    55    2
    56    85    84   ar
    57    50    49    1
    58    50    51    1
    59    74    73    2
    60    70    68   ar
    61    66    65    1
    62    66    68   ar
    63    86    84   ar
    64    53    51   am
    65    53    54    1
    66    55    54    1
    67    55    61   am
    68    62    65    1
    69    62    61    1
    70    62    63    1
    71    84    83    1
    72    71    63   am
    73    71    72    1
    74    51    52    2
    75    75    72    1
    76    75    76    1
    77    54    57    1
    78    73    72    1
    79    57    58    1
    80    63    64    2
    81    78    76   ar
    82    76    77   ar
    83    59    58    1
    84    58    60    1
    85    83    80    1
    86    82    81    2
    87    81    80    1
    88    80    79    1
