@<TRIPOS>MOLECULE
tmp/6cswA01.pdb
 136 126 0 0 0
SMALL
GASTEIGER

@<TRIPOS>ATOM
      1  N          8.9920  -14.1740   33.4570 N.3   188  TYR188     -0.1241
      2  CA         9.6210  -13.2030   34.3400 C.3   188  TYR188      0.1605
      3  C         10.6140  -13.9790   35.1800 C.2   188  TYR188      0.2264
      4  O         10.2930  -14.4990   36.2280 O.2   188  TYR188     -0.2867
      5  CB         8.5670  -12.5850   35.2490 C.3   188  TYR188      0.0534
      6  CG         9.0770  -11.5080   36.1720 C.ar  188  TYR188     -0.0201
      7  CD1        9.2990  -10.2330   35.7100 C.ar  188  TYR188     -0.0009
      8  CD2        9.3160  -11.7660   37.5130 C.ar  188  TYR188     -0.0009
      9  CE1        9.7590   -9.2430   36.5470 C.ar  188  TYR188      0.0417
     10  CE2        9.7740  -10.7770   38.3620 C.ar  188  TYR188      0.0417
     11  CZ         9.9930   -9.5170   37.8680 C.ar  188  TYR188      0.1957
     12  OH        10.4520   -8.5260   38.6870 O.3   188  TYR188     -0.2866
     13  N         14.4900   -1.3030   36.2280 N.3   205  ILE205     -0.1231
     14  CA        14.3200   -1.9840   37.5090 C.3   205  ILE205      0.1692
     15  C         14.3210   -3.4810   37.2640 C.2   205  ILE205      0.2592
     16  O         14.9320   -4.2350   38.0320 O.2   205  ILE205     -0.2718
     17  CB        13.0250   -1.5400   38.2350 C.3   205  ILE205      0.0266
     18  CG1       13.2150   -0.1440   38.8080 C.3   205  ILE205      0.0019
     19  CG2       12.6540   -2.5040   39.3620 C.3   205  ILE205      0.0020
     20  CD1       11.9120    0.5700   39.0100 C.3   205  ILE205      0.0001
     21  N         13.6600   -3.9220   36.1950 N.am  206  ASP206     -0.1974
     22  CA        13.7080   -5.3390   35.8300 C.3   206  ASP206      0.1709
     23  C         15.1590   -5.8490   35.7890 C.2   206  ASP206      0.2293
     24  O         15.4980   -6.8610   36.4390 O.2   206  ASP206     -0.2864
     25  CB        13.0060   -5.5990   34.4960 C.3   206  ASP206      0.1436
     26  CG        11.4590   -5.5780   34.6100 C.2   206  ASP206      0.3671
     27  OD1       10.9100   -6.0510   35.6400 O.co2 206  ASP206     -0.2456
     28  OD2       10.8030   -5.0870   33.6590 O.co2 206  ASP206     -0.2456
     29  N         16.7730   -6.2300   39.0600 N.3   209  ASN209     -0.1240
     30  CA        16.2460   -7.3820   39.7730 C.3   209  ASN209      0.1653
     31  C         16.6610   -8.7050   39.1660 C.2   209  ASN209      0.2266
     32  O         16.1500   -9.7600   39.5650 O.2   209  ASN209     -0.2867
     33  CB        14.7170   -7.3280   39.8030 C.3   209  ASN209      0.1155
     34  CG        14.1790   -6.4530   40.9170 C.2   209  ASN209      0.2627
     35  OD1       14.7000   -6.4500   42.0400 O.2   209  ASN209     -0.2716
     36  ND2       13.1070   -5.7220   40.6160 N.am  209  ASN209     -0.0877
     37  N          8.7810   -2.9570   28.4990 N.3   216  ARG216     -0.1245
     38  CA         8.6440   -1.9100   29.5080 C.3   216  ARG216      0.1563
     39  C         10.0100   -1.3930   29.9710 C.2   216  ARG216      0.2260
     40  O         10.1870   -0.1990   30.1460 O.2   216  ARG216     -0.2867
     41  CB         7.7830   -2.3880   30.6780 C.3   216  ARG216      0.0307
     42  CG         8.4180   -3.4370   31.5840 C.3   216  ARG216      0.0489
     43  CD         7.4870   -3.7340   32.7350 C.3   216  ARG216      0.2205
     44  NE         8.0610   -4.5970   33.7530 N.pl3 216  ARG216     -0.0865
     45  CZ         7.4060   -4.9750   34.8560 C.cat 216  ARG216      0.5346
     46  NH1        6.1480   -4.5830   35.0710 N.pl3 216  ARG216      0.1354
     47  NH2        7.9910   -5.7670   35.7390 N.pl3 216  ARG216      0.1354
     48  N         11.3490    2.5020   30.0420 N.3   220  GLU220     -0.1245
     49  CA        11.8600    3.0370   31.2860 C.3   220  GLU220      0.1567
     50  C         13.2680    3.6360   31.0950 C.2   220  GLU220      0.2260
     51  O         13.5450    4.7510   31.5760 O.2   220  GLU220     -0.2867
     52  CB        11.8570    1.9440   32.3650 C.3   220  GLU220      0.0388
     53  CG        12.3980    2.3810   33.7280 C.3   220  GLU220      0.1160
     54  CD        12.4820    1.2450   34.7420 C.2   220  GLU220      0.3649
     55  OE1       12.0800    0.1020   34.4610 O.co2 220  GLU220     -0.2457
     56  OE2       12.9860    1.4750   35.8540 O.co2 220  GLU220     -0.2457
     57  N         14.6340    7.6350   31.7640 N.3   224  TYR224     -0.1241
     58  CA        15.7520    8.1410   32.5280 C.3   224  TYR224      0.1605
     59  C         16.6900    8.9990   31.6790 C.2   224  TYR224      0.2264
     60  O         17.2230   10.0050   32.1760 O.2   224  TYR224     -0.2867
     61  CB        16.5380    7.0000   33.1960 C.3   224  TYR224      0.0534
     62  CG        15.7570    6.1370   34.1640 C.ar  224  TYR224     -0.0201
     63  CD1       14.8380    6.6940   35.0710 C.ar  224  TYR224     -0.0009
     64  CD2       15.9550    4.7670   34.1990 C.ar  224  TYR224     -0.0009
     65  CE1       14.1270    5.9010   35.9540 C.ar  224  TYR224      0.0417
     66  CE2       15.2620    3.9570   35.0860 C.ar  224  TYR224      0.0417
     67  CZ        14.3460    4.5330   35.9650 C.ar  224  TYR224      0.1957
     68  OH        13.6610    3.7350   36.8560 O.3   224  TYR224     -0.2866
     69  N         13.2110    2.1850   42.3960 N.3   251  ILE251     -0.1245
     70  CA        11.9800    1.6010   42.9110 C.3   251  ILE251      0.1561
     71  C         11.1530    2.6350   43.6980 C.2   251  ILE251      0.2260
     72  O          9.9480    2.7400   43.5140 O.2   251  ILE251     -0.2867
     73  CB        12.2810    0.3440   43.7630 C.3   251  ILE251      0.0252
     74  CG1       12.7450   -0.8120   42.8460 C.3   251  ILE251      0.0019
     75  CG2       11.0800   -0.0560   44.6130 C.3   251  ILE251      0.0019
     76  CD1       13.2250   -2.0720   43.5510 C.3   251  ILE251      0.0001
     77  N          9.7110    5.2540   41.3370 N.3   254  ARG254     -0.1231
     78  CA         8.6580    4.7070   40.5210 C.3   254  ARG254      0.1694
     79  C          7.3550    4.7420   41.2950 C.2   254  ARG254      0.2591
     80  O          6.3090    5.0600   40.7540 O.2   254  ARG254     -0.2718
     81  CB         8.9960    3.2790   40.1630 C.3   254  ARG254      0.0321
     82  CG         7.8990    2.5610   39.4110 C.3   254  ARG254      0.0489
     83  CD         8.3640    1.1630   39.0900 C.3   254  ARG254      0.2205
     84  NE         7.3660    0.4090   38.3420 N.pl3 254  ARG254     -0.0865
     85  CZ         6.2670   -0.1310   38.8600 C.cat 254  ARG254      0.5346
     86  NH1        5.9840    0.0070   40.1550 N.pl3 254  ARG254      0.1354
     87  NH2        5.4260   -0.8000   38.0630 N.pl3 254  ARG254      0.1354
     88  N          7.4450    4.3870   42.5700 N.am  255  GLU255     -0.1979
     89  CA         6.3120    4.4070   43.4730 C.3   255  GLU255      0.1602
     90  C          5.7450    5.8200   43.6920 C.2   255  GLU255      0.2287
     91  O          4.5360    5.9670   43.8670 O.2   255  GLU255     -0.2864
     92  CB         6.6980    3.7530   44.8110 C.3   255  GLU255      0.0415
     93  CG         5.5680    2.9960   45.4660 C.3   255  GLU255      0.1163
     94  CD         4.9910    1.9300   44.5680 C.2   255  GLU255      0.3649
     95  OE1        5.7860    1.1520   44.0150 O.co2 255  GLU255     -0.2457
     96  OE2        3.7450    1.8730   44.4040 O.co2 255  GLU255     -0.2457
     97  N          6.1560    9.2560   41.5130 N.3   257  ILE257     -0.1245
     98  CA         6.7560   10.0020   40.3900 C.3   257  ILE257      0.1561
     99  C          6.8040   11.5160   40.6380 C.2   257  ILE257      0.2260
    100  O          7.7840   12.1680   40.2520 O.2   257  ILE257     -0.2867
    101  CB         6.1110    9.6100   39.0490 C.3   257  ILE257      0.0252
    102  CG1        6.6090    8.2260   38.6490 C.3   257  ILE257      0.0019
    103  CG2        6.4270   10.6000   37.9180 C.3   257  ILE257      0.0019
    104  CD1        5.6400    7.5260   37.7280 C.3   257  ILE257      0.0001
    105  N          6.2080    8.6120   32.2390 N.3   278  MET278     -0.1245
    106  CA         6.6010    7.6560   33.2890 C.3   278  MET278      0.1570
    107  C          5.4410    6.9910   34.0280 C.2   278  MET278      0.2261
    108  O          5.5290    5.8240   34.3880 O.2   278  MET278     -0.2867
    109  CB         7.5700    8.3030   34.2660 C.3   278  MET278      0.0387
    110  CG         8.9500    8.3610   33.6430 C.3   278  MET278      0.0595
    111  SD         9.9880    9.4500   34.5950 S.3   278  MET278     -0.1393
    112  CE        11.0930   10.0290   33.2950 C.3   278  MET278      0.0692
    113  N          4.3680    4.1970   31.5910 N.3   281  VAL281     -0.1231
    114  CA         5.2770    3.0700   31.5540 C.3   281  VAL281      0.1692
    115  C          5.1390    2.2400   32.8370 C.2   281  VAL281      0.2591
    116  O          5.1790    1.0160   32.7990 O.2   281  VAL281     -0.2718
    117  CB         6.7270    3.5430   31.3830 C.3   281  VAL281      0.0266
    118  CG1        7.6960    2.3750   31.5160 C.3   281  VAL281      0.0020
    119  CG2        6.9050    4.2310   30.0330 C.3   281  VAL281      0.0020
    120  N          4.9420    2.9240   33.9600 N.am  282  LYS282     -0.1980
    121  CA         4.7250    2.2800   35.2600 C.3   282  LYS282      0.1596
    122  C          3.5350    1.3250   35.2930 C.2   282  LYS282      0.2287
    123  O          3.5230    0.3570   36.0600 O.2   282  LYS282     -0.2864
    124  CB         4.5500    3.3650   36.3290 C.3   282  LYS282      0.0298
    125  CG         4.0490    2.9000   37.6850 C.3   282  LYS282      0.0038
    126  CD         3.9730    4.0970   38.6210 C.3   282  LYS282      0.0206
    127  CE         3.5000    3.7030   40.0070 C.3   282  LYS282      0.1093
    128  NZ         3.4920    4.9000   40.8950 N.3   282  LYS282     -0.1314
    129  N          2.6980   -0.6630   32.9120 N.3   284  LEU284     -0.1245
    130  CA         2.9390   -1.8300   32.0550 C.3   284  LEU284      0.1561
    131  C          3.2990   -3.0590   32.8870 C.2   284  LEU284      0.2260
    132  O          4.1280   -2.9740   33.8110 O.2   284  LEU284     -0.2867
    133  CB         4.0730   -1.5660   31.0320 C.3   284  LEU284      0.0270
    134  CG         3.8150   -0.5700   29.8850 C.3   284  LEU284      0.0019
    135  CD1        5.1030   -0.3250   29.1120 C.3   284  LEU284      0.0001
    136  CD2        2.6920   -1.0210   28.9570 C.3   284  LEU284      0.0001
@<TRIPOS>BOND
     1    37    38    1
     2   136   134    1
     3   135   134    1
     4    38    39    1
     5    38    41    1
     6   134   133    1
     7    39    40    2
     8   119   117    1
     9    48    49    1
    10    41    42    1
    11   133   130    1
    12    50    49    1
    13    50    51    2
    14    49    52    1
    15   117   118    1
    16   117   114    1
    17   114   113    1
    18   114   115    1
    19    42    43    1
    20    59    60    2
    21    59    58    1
    22    57    58    1
    23   130   131    1
    24   130   129    1
    25   105   106    1
    26    52    53    1
    27    58    61    1
    28    43    44    1
    29   116   115    2
    30   115   120   am
    31   131   132    2
    32    61    62    1
    33   106   107    1
    34   106   109    1
    35   112   111    1
    36     1     2    1
    37   110   109    1
    38   110   111    1
    39    28    26   ar
    40    53    54    1
    41    44    45    2
    42   120   121    1
    43   107   108    2
    44    62    64   ar
    45    62    63   ar
    46    64    66   ar
    47     2     3    1
    48     2     5    1
    49    55    54   ar
    50    25    26    1
    51    25    22    1
    52    26    27   ar
    53    54    56   ar
    54    45    46    1
    55    45    47    1
    56    63    65   ar
    57    66    67   ar
    58     3     4    2
    59     5     6    1
    60   121   122    1
    61   121   124    1
    62   122   123    2
    63     7     6   ar
    64     7     9   ar
    65    23    22    1
    66    23    24    2
    67    22    21    1
    68    65    67   ar
    69    67    68    1
    70     6     8   ar
    71    21    15   am
    72    13    14    1
    73   124   125    1
    74     9    11   ar
    75    15    14    1
    76    15    16    2
    77    14    17    1
    78     8    10   ar
    79   125   126    1
    80   104   102    1
    81    11    10   ar
    82    11    12    1
    83   103   101    1
    84    87    85    1
    85    17    18    1
    86    17    19    1
    87    84    85    2
    88    84    83    1
    89   126   127    1
    90   102   101    1
    91    18    20    1
    92    85    86    1
    93   101    98    1
    94    29    30    1
    95    83    82    1
    96    31    32    2
    97    31    30    1
    98    82    81    1
    99    30    33    1
   100    33    34    1
   101   127   128    1
   102    81    78    1
   103   100    99    2
   104    98    99    1
   105    98    97    1
   106    78    79    1
   107    78    77    1
   108    36    34   am
   109    80    79    2
   110    34    35    2
   111    79    88   am
   112    69    70    1
   113    88    89    1
   114    74    76    1
   115    74    73    1
   116    70    71    1
   117    70    73    1
   118    89    90    1
   119    89    92    1
   120    72    71    2
   121    90    91    2
   122    73    75    1
   123    95    94   ar
   124    96    94   ar
   125    94    93    1
   126    92    93    1
