@<TRIPOS>MOLECULE
tmp/6csxC06.pdb
 71 66 0 0 0
SMALL
GASTEIGER

@<TRIPOS>ATOM
      1  N        137.9520  146.1080   93.9020 N.3     1  MET1       -0.1231
      2  CA       136.8060  146.8260   94.4640 C.3     1  MET1        0.1687
      3  C        136.7040  148.3780   94.4000 C.2     1  MET1        0.2434
      4  O        135.6360  148.8710   94.7060 O.2     1  MET1       -0.2733
      5  CB       136.6390  146.4190   95.9340 C.3     1  MET1        0.0400
      6  CG       137.6970  146.9410   96.8780 C.3     1  MET1        0.0596
      7  SD       137.5220  146.2930   98.5480 S.3     1  MET1       -0.1393
      8  CE       136.0430  147.1270   99.0830 C.3     1  MET1        0.0692
      9  N        137.7420  149.1530   94.0260 N.am    2  PRO2       -0.2729
     10  CA       137.4620  150.5590   93.6830 C.3     2  PRO2        0.1401
     11  C        136.5670  150.7340   92.4780 C.2     2  PRO2        0.2269
     12  O        135.8660  151.7470   92.3870 O.2     2  PRO2       -0.2865
     13  CB       138.8500  151.1430   93.4200 C.3     2  PRO2        0.0296
     14  CG       139.7120  150.3810   94.2500 C.3     2  PRO2        0.0237
     15  CD       139.1910  148.9920   94.2540 C.3     2  PRO2        0.0939
     16  N        143.4430  150.9550   88.4290 N.3   436  GLY436     -0.1210
     17  CA       143.7620  149.6920   87.7870 C.3   436  GLY436      0.1956
     18  C        145.2310  149.3210   87.8130 C.2   436  GLY436      0.2611
     19  O        145.5630  148.1590   87.5610 O.2   436  GLY436     -0.2717
     20  N        146.1200  150.2760   88.0940 N.am  437  GLN437     -0.1979
     21  CA       147.5120  149.9240   88.3340 C.3   437  GLN437      0.1601
     22  C        147.8110  149.7150   89.8110 C.2   437  GLN437      0.2287
     23  O        148.5620  148.8000   90.1630 O.2   437  GLN437     -0.2864
     24  CB       148.4650  150.9970   87.7960 C.3   437  GLN437      0.0394
     25  CG       148.4740  151.1620   86.2980 C.3   437  GLN437      0.0908
     26  CD       147.5520  152.2580   85.8500 C.2   437  GLN437      0.2608
     27  OE1      147.2200  153.1510   86.6270 O.2   437  GLN437     -0.2717
     28  NE2      147.1180  152.1980   84.5960 N.am  437  GLN437     -0.0878
     29  N        145.9080  149.2720   92.8030 N.3   439  GLN439     -0.1231
     30  CA       145.2230  148.5460   93.8680 C.3   439  GLN439      0.1698
     31  C        146.2120  147.6880   94.6390 C.2   439  GLN439      0.2592
     32  O        146.2670  147.7390   95.8710 O.2   439  GLN439     -0.2718
     33  CB       144.0960  147.6780   93.3020 C.3   439  GLN439      0.0381
     34  CG       142.8740  148.4510   92.8490 C.3   439  GLN439      0.0905
     35  CD       141.8890  147.6110   92.0480 C.2   439  GLN439      0.2608
     36  OE1      142.0760  146.4100   91.8700 O.2   439  GLN439     -0.2717
     37  NE2      140.8720  148.2590   91.4990 N.am  439  GLN439     -0.0878
     38  N        147.0240  146.9150   93.9210 N.am  440  GLY440     -0.1957
     39  CA       147.9680  146.0060   94.5380 C.3   440  GLY440      0.1869
     40  C        149.2390  146.6520   95.0330 C.2   440  GLY440      0.2309
     41  O        150.0960  145.9470   95.5740 O.2   440  GLY440     -0.2863
     42  N        147.8920  148.3760   98.8610 N.3   443  VAL443     -0.1245
     43  CA       147.7900  147.2560   99.7850 C.3   443  VAL443      0.1561
     44  C        149.1690  146.6760  100.0530 C.2   443  VAL443      0.2260
     45  O        149.4610  146.2270  101.1680 O.2   443  VAL443     -0.2867
     46  CB       146.8220  146.2060   99.2100 C.3   443  VAL443      0.0252
     47  CG1      146.6610  145.0210  100.1420 C.3   443  VAL443      0.0019
     48  CG2      145.4820  146.8350   98.9370 C.3   443  VAL443      0.0019
     49  N        143.8920  151.8130  104.0330 N.3   482  VAL482     -0.1231
     50  CA       143.8010  151.0320  102.8040 C.3   482  VAL482      0.1692
     51  C        142.3750  151.0550  102.2820 C.2   482  VAL482      0.2591
     52  O        142.1060  151.5330  101.1760 O.2   482  VAL482     -0.2718
     53  CB       144.2800  149.5920  103.0370 C.3   482  VAL482      0.0266
     54  CG1      144.0450  148.7580  101.8000 C.3   482  VAL482      0.0020
     55  CG2      145.7280  149.5890  103.3780 C.3   482  VAL482      0.0020
     56  N        141.4330  150.5750  103.0870 N.am  483  LEU483     -0.1980
     57  CA       140.0580  150.4700  102.6270 C.3   483  LEU483      0.1596
     58  C        139.3010  151.7870  102.6940 C.2   483  LEU483      0.2287
     59  O        138.1090  151.8050  102.3960 O.2   483  LEU483     -0.2864
     60  CB       139.3260  149.3730  103.4100 C.3   483  LEU483      0.0297
     61  CG       139.1980  149.3820  104.9330 C.3   483  LEU483      0.0022
     62  CD1      137.9480  150.1020  105.4260 C.3   483  LEU483      0.0001
     63  CD2      139.2330  147.9550  105.4360 C.3   483  LEU483      0.0001
     64  N        140.5060  152.7540   98.9760 N.3   486  LEU486     -0.1245
     65  CA       139.8910  151.9290   97.9480 C.3   486  LEU486      0.1561
     66  C        138.4010  152.1740   97.8040 C.2   486  LEU486      0.2260
     67  O        137.8460  151.9400   96.7290 O.2   486  LEU486     -0.2867
     68  CB       140.1130  150.4470   98.2470 C.3   486  LEU486      0.0270
     69  CG       141.5660  149.9950   98.3030 C.3   486  LEU486      0.0019
     70  CD1      141.6260  148.5490   98.7340 C.3   486  LEU486      0.0001
     71  CD2      142.2850  150.2040   96.9830 C.3   486  LEU486      0.0001
@<TRIPOS>BOND
     1    28    26   am
     2    26    25    1
     3    26    27    2
     4    25    24    1
     5    19    18    2
     6    17    18    1
     7    17    16    1
     8    24    21    1
     9    18    20   am
    10    20    21    1
    11    21    22    1
    12    22    23    2
    13    37    35   am
    14    36    35    2
    15    35    34    1
    16    12    11    2
    17    11    10    1
    18    29    30    1
    19    34    33    1
    20    33    30    1
    21    13    10    1
    22    13    14    1
    23    10     9    1
    24    30    31    1
    25     1     2    1
    26    38    39    1
    27    38    31   am
    28     9    15    1
    29     9     3   am
    30    14    15    1
    31     3     2    1
    32     3     4    2
    33     2     5    1
    34    39    40    1
    35    31    32    2
    36    40    41    2
    37     5     6    1
    38    67    66    2
    39     6     7    1
    40    71    69    1
    41    66    65    1
    42    65    68    1
    43    65    64    1
    44    68    69    1
    45    69    70    1
    46     7     8    1
    47    42    43    1
    48    48    46    1
    49    46    43    1
    50    46    47    1
    51    43    44    1
    52    44    45    2
    53    52    51    2
    54    54    53    1
    55    51    50    1
    56    51    56   am
    57    59    58    2
    58    57    58    1
    59    57    56    1
    60    57    60    1
    61    50    53    1
    62    50    49    1
    63    53    55    1
    64    60    61    1
    65    61    62    1
    66    61    63    1
