@<TRIPOS>MOLECULE
tmp/6csxC05.pdb
 108 101 0 0 0
SMALL
GASTEIGER

@<TRIPOS>ATOM
      1  N        146.1200  150.2760   88.0940 N.3   437  GLN437     -0.1245
      2  CA       147.5120  149.9240   88.3340 C.3   437  GLN437      0.1566
      3  C        147.8110  149.7150   89.8110 C.2   437  GLN437      0.2260
      4  O        148.5620  148.8000   90.1630 O.2   437  GLN437     -0.2867
      5  CB       148.4650  150.9970   87.7960 C.3   437  GLN437      0.0367
      6  CG       148.4740  151.1620   86.2980 C.3   437  GLN437      0.0905
      7  CD       147.5520  152.2580   85.8500 C.2   437  GLN437      0.2608
      8  OE1      147.2200  153.1510   86.6270 O.2   437  GLN437     -0.2717
      9  NE2      147.1180  152.1980   84.5960 N.am  437  GLN437     -0.0878
     10  N        147.0240  146.9150   93.9210 N.3   440  GLY440     -0.1210
     11  CA       147.9680  146.0060   94.5380 C.3   440  GLY440      0.1956
     12  C        149.2390  146.6520   95.0330 C.2   440  GLY440      0.2611
     13  O        150.0960  145.9470   95.5740 O.2   440  GLY440     -0.2717
     14  N        149.3870  147.9620   94.8610 N.am  441  ALA441     -0.1979
     15  CA       150.5570  148.6490   95.3860 C.3   441  ALA441      0.1597
     16  C        150.2680  149.3490   96.7050 C.2   441  ALA441      0.2287
     17  O        151.1300  149.3770   97.5830 O.2   441  ALA441     -0.2864
     18  CB       151.0850  149.6530   94.3610 C.3   441  ALA441      0.0319
     19  N        147.8920  148.3760   98.8610 N.3   443  VAL443     -0.1231
     20  CA       147.7900  147.2560   99.7850 C.3   443  VAL443      0.1692
     21  C        149.1690  146.6760  100.0530 C.2   443  VAL443      0.2592
     22  O        149.4610  146.2270  101.1680 O.2   443  VAL443     -0.2718
     23  CB       146.8220  146.2060   99.2100 C.3   443  VAL443      0.0266
     24  CG1      146.6610  145.0210  100.1420 C.3   443  VAL443      0.0020
     25  CG2      145.4820  146.8350   98.9370 C.3   443  VAL443      0.0020
     26  N        150.0500  146.7080   99.0540 N.am  444  GLY444     -0.1957
     27  CA       151.3790  146.1580   99.2320 C.3   444  GLY444      0.1869
     28  C        152.2730  147.0010  100.1140 C.2   444  GLY444      0.2309
     29  O        153.1230  146.4610  100.8230 O.2   444  GLY444     -0.2863
     30  N        151.2450  146.6540  104.1000 N.3   447  MET447     -0.1230
     31  CA       151.6390  145.4460  104.8080 C.3   447  MET447      0.1702
     32  C        153.1380  145.3890  105.0390 C.2   447  MET447      0.2592
     33  O        153.5890  144.6990  105.9570 O.2   447  MET447     -0.2718
     34  CB       151.1760  144.1960  104.0560 C.3   447  MET447      0.0401
     35  CG       149.6730  143.9820  104.1000 C.3   447  MET447      0.0596
     36  SD       149.1460  142.4160  103.3850 S.3   447  MET447     -0.1393
     37  CE       149.2580  142.7710  101.6390 C.3   447  MET447      0.0692
     38  N        153.9180  146.0950  104.2210 N.am  448  VAL448     -0.1980
     39  CA       155.3160  146.3330  104.5530 C.3   448  VAL448      0.1595
     40  C        155.4130  147.2750  105.7400 C.2   448  VAL448      0.2287
     41  O        156.1700  147.0380  106.6880 O.2   448  VAL448     -0.2864
     42  CB       156.0630  146.8990  103.3320 C.3   448  VAL448      0.0276
     43  CG1      157.4800  147.2680  103.6980 C.3   448  VAL448      0.0022
     44  CG2      156.0520  145.9130  102.2100 C.3   448  VAL448      0.0022
     45  N        153.9860  145.4650  114.0780 N.3   454  VAL454     -0.1245
     46  CA       153.4490  144.1740  114.4980 C.3   454  VAL454      0.1561
     47  C        154.4080  143.4260  115.4330 C.2   454  VAL454      0.2260
     48  O        153.9210  142.8620  116.4230 O.2   454  VAL454     -0.2867
     49  CB       153.0320  143.3420  113.2720 C.3   454  VAL454      0.0252
     50  CG1      152.5290  141.9680  113.6670 C.3   454  VAL454      0.0019
     51  CG2      151.9690  144.0820  112.4990 C.3   454  VAL454      0.0019
     52  N        154.0780  142.1830  120.5190 N.3   458  PHE458     -0.1241
     53  CA       154.2660  140.8500  121.0710 C.3   458  PHE458      0.1605
     54  C        155.3390  140.8560  122.1440 C.2   458  PHE458      0.2264
     55  O        156.2030  139.9830  122.1840 O.2   458  PHE458     -0.2867
     56  CB       154.6270  139.8590  119.9680 C.3   458  PHE458      0.0534
     57  CG       153.4930  139.5380  119.0470 C.ar  458  PHE458     -0.0203
     58  CD1      152.1900  139.5730  119.4960 C.ar  458  PHE458     -0.0042
     59  CD2      153.7260  139.2810  117.7160 C.ar  458  PHE458     -0.0042
     60  CE1      151.1460  139.2960  118.6440 C.ar  458  PHE458     -0.0003
     61  CE2      152.6840  139.0160  116.8570 C.ar  458  PHE458     -0.0003
     62  CZ       151.3900  139.0250  117.3240 C.ar  458  PHE458     -0.0000
     63  N        161.7600  141.6780  109.1300 N.3   843  VAL843     -0.1245
     64  CA       160.4530  141.4580  108.5210 C.3   843  VAL843      0.1561
     65  C        160.1700  142.5070  107.4470 C.2   843  VAL843      0.2260
     66  O        159.5030  142.2170  106.4470 O.2   843  VAL843     -0.2867
     67  CB       159.3760  141.4220  109.6230 C.3   843  VAL843      0.0252
     68  CG1      158.0210  141.0830  109.0680 C.3   843  VAL843      0.0019
     69  CG2      159.7420  140.3950  110.6590 C.3   843  VAL843      0.0019
     70  N        161.9910  141.3380  104.4170 N.3   846  LEU846     -0.1231
     71  CA       161.2700  140.2450  103.7870 C.3   846  LEU846      0.1693
     72  C        160.0530  140.7620  103.0350 C.2   846  LEU846      0.2592
     73  O        159.8180  140.3790  101.8880 O.2   846  LEU846     -0.2718
     74  CB       160.8860  139.2150  104.8410 C.3   846  LEU846      0.0284
     75  CG       162.1090  138.5230  105.4370 C.3   846  LEU846      0.0019
     76  CD1      161.7240  137.6530  106.6150 C.3   846  LEU846      0.0001
     77  CD2      162.8500  137.7230  104.3870 C.3   846  LEU846      0.0001
     78  N        159.2910  141.6700  103.6410 N.am  847  CYS847     -0.1970
     79  CA       158.0880  142.1660  102.9860 C.3   847  CYS847      0.1712
     80  C        158.3900  143.0780  101.8010 C.2   847  CYS847      0.2296
     81  O        157.5240  143.2570  100.9410 O.2   847  CYS847     -0.2864
     82  CB       157.2040  142.8870  103.9990 C.3   847  CYS847      0.0983
     83  SG       156.4750  141.8150  105.2400 S.3   847  CYS847     -0.0798
     84  N        159.1890  140.6360   99.1230 N.3   850  ALA850     -0.1231
     85  CA       157.8940  140.0970   98.7540 C.3   850  ALA850      0.1694
     86  C        157.1150  141.0720   97.8920 C.2   850  ALA850      0.2592
     87  O        156.1740  140.6750   97.2020 O.2   850  ALA850     -0.2718
     88  CB       157.1130  139.7700  100.0180 C.3   850  ALA850      0.0304
     89  N        157.4840  142.3470   97.9260 N.am  851  LEU851     -0.1966
     90  CA       156.7860  143.3840   97.1850 C.3   851  LEU851      0.1728
     91  C        157.3230  143.5800   95.7780 C.2   851  LEU851      0.2616
     92  O        156.5450  143.8780   94.8680 O.2   851  LEU851     -0.2715
     93  CB       156.8680  144.7060   97.9530 C.3   851  LEU851      0.0311
     94  CG       156.1150  145.9180   97.4150 C.3   851  LEU851      0.0022
     95  CD1      154.6410  145.6220   97.3540 C.3   851  LEU851      0.0001
     96  CD2      156.3620  147.1210   98.2910 C.3   851  LEU851      0.0001
     97  N        158.6240  143.3860   95.5700 N.am  852  TYR852     -0.1974
     98  CA       159.2790  143.7430   94.3200 C.3   852  TYR852      0.1639
     99  C        159.8390  142.5620   93.5490 C.2   852  TYR852      0.2290
    100  O        160.4080  142.7790   92.4750 O.2   852  TYR852     -0.2864
    101  CB       160.4100  144.7280   94.5850 C.3   852  TYR852      0.0560
    102  CG       159.9370  146.0680   95.0370 C.ar  852  TYR852     -0.0198
    103  CD1      159.3880  146.9620   94.1370 C.ar  852  TYR852     -0.0009
    104  CD2      160.0670  146.4550   96.3560 C.ar  852  TYR852     -0.0009
    105  CE1      158.9560  148.1960   94.5430 C.ar  852  TYR852      0.0417
    106  CE2      159.6440  147.6880   96.7740 C.ar  852  TYR852      0.0417
    107  CZ       159.0880  148.5540   95.8650 C.ar  852  TYR852      0.1957
    108  OH       158.6670  149.7880   96.2820 O.3   852  TYR852     -0.2866
@<TRIPOS>BOND
     1     9     7   am
     2     7     6    1
     3     7     8    2
     4     6     5    1
     5     5     2    1
     6     1     2    1
     7     2     3    1
     8     3     4    2
     9   100    99    2
    10    99    98    1
    11    10    11    1
    12   103   105   ar
    13   103   102   ar
    14    98   101    1
    15    98    97    1
    16    18    15    1
    17    11    12    1
    18   105   107   ar
    19   101   102    1
    20    14    12   am
    21    14    15    1
    22    92    91    2
    23    12    13    2
    24   102   104   ar
    25    15    16    1
    26    97    91   am
    27    91    90    1
    28   107   108    1
    29   107   106   ar
    30   104   106   ar
    31    16    17    2
    32    90    89    1
    33    90    93    1
    34    87    86    2
    35    95    94    1
    36    94    93    1
    37    94    96    1
    38    86    89   am
    39    86    85    1
    40    85    84    1
    41    85    88    1
    42    19    20    1
    43    25    23    1
    44    26    27    1
    45    26    21   am
    46    23    20    1
    47    23    24    1
    48    27    28    1
    49    20    21    1
    50    21    22    2
    51    28    29    2
    52    81    80    2
    53    37    36    1
    54    80    79    1
    55    73    72    2
    56    44    42    1
    57    79    78    1
    58    79    82    1
    59    72    78   am
    60    72    71    1
    61    42    43    1
    62    42    39    1
    63    36    35    1
    64    71    70    1
    65    71    74    1
    66    82    83    1
    67    34    35    1
    68    34    31    1
    69    30    31    1
    70    38    39    1
    71    38    32   am
    72    77    75    1
    73    39    40    1
    74    31    32    1
    75    74    75    1
    76    32    33    2
    77    75    76    1
    78    40    41    2
    79    66    65    2
    80    65    64    1
    81    64    63    1
    82    64    67    1
    83    68    67    1
    84    67    69    1
    85    51    49    1
    86    49    50    1
    87    49    46    1
    88    45    46    1
    89    46    47    1
    90    47    48    2
    91    61    62   ar
    92    61    59   ar
    93    62    60   ar
    94    59    57   ar
    95    60    58   ar
    96    57    58   ar
    97    57    56    1
    98    56    53    1
    99    52    53    1
   100    53    54    1
   101    54    55    2
