@<TRIPOS>MOLECULE
tmp/6csxC01.pdb
 84 82 0 0 0
SMALL
GASTEIGER

@<TRIPOS>ATOM
      1  N        151.2450  146.6540  104.1000 N.3   447  MET447     -0.2669
      2  CA       151.6390  145.4460  104.8080 C.3   447  MET447      0.1239
      3  C        153.1380  145.3890  105.0390 C.2   447  MET447      0.2230
      4  O        153.5890  144.6990  105.9570 O.2   447  MET447     -0.2868
      5  CB       151.1760  144.1960  104.0560 C.3   447  MET447      0.0356
      6  CG       149.6730  143.9820  104.1000 C.3   447  MET447      0.0594
      7  SD       149.1460  142.4160  103.3850 S.3   447  MET447     -0.1393
      8  CE       149.2580  142.7710  101.6390 C.3   447  MET447      0.0692
      9  N        153.6700  148.0680  106.4770 N.3   449  LEU449     -0.1216
     10  CA       152.2470  147.9020  106.7050 C.3   449  LEU449      0.1838
     11  C        152.1990  146.8060  107.7890 C.2   449  LEU449      0.2606
     12  O        152.2510  145.6270  107.5020 O.2   449  LEU449     -0.2717
     13  CB       151.5070  147.4930  105.4370 C.3   449  LEU449      0.0857
     14  CG       151.4120  148.5620  104.3460 C.3   449  LEU449      0.0326
     15  CD1      152.5550  149.4670  104.0310 C.3   449  LEU449      0.0029
     16  CD2      150.6760  147.9510  103.1580 C.3   449  LEU449      0.0738
     17  N        152.1760  147.2630  109.0230 N.am  450  SER450     -0.1938
     18  CA       152.1070  146.4450  110.2030 C.3   450  SER450      0.2055
     19  C        153.3780  145.6170  110.4480 C.2   450  SER450      0.2642
     20  O        153.3770  144.6650  111.2170 O.2   450  SER450     -0.2714
     21  CB       150.8590  145.5500  110.1560 C.3   450  SER450      0.2130
     22  OG       149.7940  146.1950  109.4850 O.3   450  SER450     -0.2179
     23  N        154.5370  145.9190  109.8050 N.am  451  ALA451     -0.1977
     24  CA       155.7230  145.0860  109.8590 C.3   451  ALA451      0.1597
     25  C        156.8100  145.6550  110.7520 C.2   451  ALA451      0.2287
     26  O        157.6400  144.8920  111.2470 O.2   451  ALA451     -0.2864
     27  CB       156.2730  144.8780  108.4490 C.3   451  ALA451      0.0319
     28  N        153.9860  145.4650  114.0780 N.3   454  VAL454     -0.1231
     29  CA       153.4490  144.1740  114.4980 C.3   454  VAL454      0.1678
     30  C        154.4080  143.4260  115.4330 C.2   454  VAL454      0.2434
     31  O        153.9210  142.8620  116.4230 O.2   454  VAL454     -0.2733
     32  CB       153.0320  143.3420  113.2720 C.3   454  VAL454      0.0265
     33  CG1      152.5290  141.9680  113.6670 C.3   454  VAL454      0.0020
     34  CG2      151.9690  144.0820  112.4990 C.3   454  VAL454      0.0020
     35  N        155.7420  143.3880  115.2400 N.am  455  PRO455     -0.2729
     36  CA       156.5720  142.7310  116.2640 C.3   455  PRO455      0.1401
     37  C        156.6820  143.4760  117.5850 C.2   455  PRO455      0.2269
     38  O        157.1310  142.8720  118.5620 O.2   455  PRO455     -0.2865
     39  CB       157.9420  142.6160  115.5900 C.3   455  PRO455      0.0296
     40  CG       157.6650  142.6330  114.1910 C.3   455  PRO455      0.0237
     41  CD       156.5510  143.5780  114.0190 C.3   455  PRO455      0.0939
     42  N        154.0780  142.1830  120.5190 N.3   458  PHE458     -0.1227
     43  CA       154.2660  140.8500  121.0710 C.3   458  PHE458      0.1736
     44  C        155.3390  140.8560  122.1440 C.2   458  PHE458      0.2595
     45  O        156.2030  139.9830  122.1840 O.2   458  PHE458     -0.2718
     46  CB       154.6270  139.8590  119.9680 C.3   458  PHE458      0.0547
     47  CG       153.4930  139.5380  119.0470 C.ar  458  PHE458     -0.0202
     48  CD1      152.1900  139.5730  119.4960 C.ar  458  PHE458     -0.0042
     49  CD2      153.7260  139.2810  117.7160 C.ar  458  PHE458     -0.0042
     50  CE1      151.1460  139.2960  118.6440 C.ar  458  PHE458     -0.0003
     51  CE2      152.6840  139.0160  116.8570 C.ar  458  PHE458     -0.0003
     52  CZ       151.3900  139.0250  117.3240 C.ar  458  PHE458     -0.0000
     53  N        155.3100  141.8480  123.0230 N.am  459  PHE459     -0.1976
     54  CA       156.2470  141.9080  124.1310 C.3   459  PHE459      0.1639
     55  C        155.5220  141.7090  125.4520 C.2   459  PHE459      0.2290
     56  O        154.3320  141.9950  125.5870 O.2   459  PHE459     -0.2864
     57  CB       157.0170  143.2290  124.1440 C.3   459  PHE459      0.0560
     58  CG       158.0670  143.3260  123.0790 C.ar  459  PHE459     -0.0200
     59  CD1      158.4610  142.2040  122.3700 C.ar  459  PHE459     -0.0042
     60  CD2      158.6820  144.5270  122.8050 C.ar  459  PHE459     -0.0042
     61  CE1      159.4240  142.2850  121.3940 C.ar  459  PHE459     -0.0003
     62  CE2      159.6500  144.6110  121.8320 C.ar  459  PHE459     -0.0003
     63  CZ       160.0150  143.4850  121.1260 C.ar  459  PHE459     -0.0000
     64  N        164.4100  142.5000  115.0650 N.3   839  ILE839     -0.1245
     65  CA       163.3210  141.6900  114.5360 C.3   839  ILE839      0.1561
     66  C        162.3860  142.5040  113.6400 C.2   839  ILE839      0.2260
     67  O        161.7120  141.9200  112.7810 O.2   839  ILE839     -0.2867
     68  CB       162.5430  140.9940  115.6800 C.3   839  ILE839      0.0252
     69  CG1      161.8320  139.7460  115.1740 C.3   839  ILE839      0.0019
     70  CG2      161.5310  141.9090  116.3410 C.3   839  ILE839      0.0019
     71  CD1      162.7920  138.6710  114.7630 C.3   839  ILE839      0.0001
     72  N        161.7600  141.6780  109.1300 N.3   843  VAL843     -0.1245
     73  CA       160.4530  141.4580  108.5210 C.3   843  VAL843      0.1561
     74  C        160.1700  142.5070  107.4470 C.2   843  VAL843      0.2260
     75  O        159.5030  142.2170  106.4470 O.2   843  VAL843     -0.2867
     76  CB       159.3760  141.4220  109.6230 C.3   843  VAL843      0.0252
     77  CG1      158.0210  141.0830  109.0680 C.3   843  VAL843      0.0019
     78  CG2      159.7420  140.3950  110.6590 C.3   843  VAL843      0.0019
     79  N        159.2910  141.6700  103.6410 N.3   847  CYS847     -0.1235
     80  CA       158.0880  142.1660  102.9860 C.3   847  CYS847      0.1677
     81  C        158.3900  143.0780  101.8010 C.2   847  CYS847      0.2270
     82  O        157.5240  143.2570  100.9410 O.2   847  CYS847     -0.2867
     83  CB       157.2040  142.8870  103.9990 C.3   847  CYS847      0.0956
     84  SG       156.4750  141.8150  105.2400 S.3   847  CYS847     -0.0801
@<TRIPOS>BOND
     1    82    81    2
     2     8     7    1
     3    81    80    1
     4    80    79    1
     5    80    83    1
     6    16     1    1
     7    16    14    1
     8     7     6    1
     9    83    84    1
    10    15    14    1
    11     5     6    1
    12     5     2    1
    13     1     2    1
    14     1    13    1
    15    14    13    1
    16     2     3    1
    17     3     4    2
    18    13    10    1
    19    75    74    2
    20     9    10    1
    21    10    11    1
    22    74    73    1
    23    12    11    2
    24    11    17   am
    25    27    24    1
    26    73    72    1
    27    73    76    1
    28    17    18    1
    29    77    76    1
    30    22    21    1
    31    76    78    1
    32    23    24    1
    33    23    19   am
    34    24    25    1
    35    21    18    1
    36    18    19    1
    37    19    20    2
    38    25    26    2
    39    34    32    1
    40    67    66    2
    41    32    33    1
    42    32    29    1
    43    66    65    1
    44    41    40    1
    45    41    35    1
    46    28    29    1
    47    40    39    1
    48    29    30    1
    49    65    64    1
    50    65    68    1
    51    71    69    1
    52    69    68    1
    53    35    30   am
    54    35    36    1
    55    30    31    2
    56    39    36    1
    57    68    70    1
    58    36    37    1
    59    51    52   ar
    60    51    49   ar
    61    52    50   ar
    62    37    38    2
    63    49    47   ar
    64    50    48   ar
    65    47    48   ar
    66    47    46    1
    67    46    43    1
    68    42    43    1
    69    43    44    1
    70    63    61   ar
    71    63    62   ar
    72    61    59   ar
    73    62    60   ar
    74    44    45    2
    75    44    53   am
    76    59    58   ar
    77    60    58   ar
    78    53    54    1
    79    58    57    1
    80    54    57    1
    81    54    55    1
    82    55    56    2
