@<TRIPOS>MOLECULE
tmp/6csxC07.pdb
 111 104 0 0 0
SMALL
GASTEIGER

@<TRIPOS>ATOM
      1  N        137.9420  150.6390  116.6970 N.3   382  VAL382     -0.1245
      2  CA       138.7720  149.4530  116.8580 C.3   382  VAL382      0.1561
      3  C        139.3300  149.3680  118.2750 C.2   382  VAL382      0.2260
      4  O        139.4160  148.2780  118.8530 O.2   382  VAL382     -0.2867
      5  CB       139.8810  149.4670  115.7900 C.3   382  VAL382      0.0252
      6  CG1      140.8440  148.3140  115.9660 C.3   382  VAL382      0.0019
      7  CG2      139.2590  149.4260  114.4120 C.3   382  VAL382      0.0019
      8  N        138.6940  146.2780  120.9670 N.3   386  PHE386     -0.1241
      9  CA       139.7510  145.5170  121.6140 C.3   386  PHE386      0.1605
     10  C        139.8510  145.8010  123.1030 C.2   386  PHE386      0.2264
     11  O        140.7310  145.2500  123.7680 O.2   386  PHE386     -0.2867
     12  CB       141.0940  145.8030  120.9380 C.3   386  PHE386      0.0534
     13  CG       141.2040  145.2470  119.5480 C.ar  386  PHE386     -0.0203
     14  CD1      140.3450  144.2510  119.1040 C.ar  386  PHE386     -0.0042
     15  CD2      142.1630  145.7310  118.6790 C.ar  386  PHE386     -0.0042
     16  CE1      140.4410  143.7500  117.8220 C.ar  386  PHE386     -0.0003
     17  CE2      142.2730  145.2320  117.3970 C.ar  386  PHE386     -0.0003
     18  CZ       141.4100  144.2430  116.9670 C.ar  386  PHE386     -0.0000
     19  N        140.6000  148.6270  124.6590 N.3   388  PHE388     -0.1241
     20  CA       141.6230  149.5810  125.0440 C.3   388  PHE388      0.1605
     21  C        140.9640  150.8610  125.5390 C.2   388  PHE388      0.2264
     22  O        139.7400  150.9830  125.5830 O.2   388  PHE388     -0.2867
     23  CB       142.5600  149.8570  123.8750 C.3   388  PHE388      0.0534
     24  CG       143.4630  148.7090  123.5280 C.ar  388  PHE388     -0.0203
     25  CD1      143.6660  147.6640  124.4120 C.ar  388  PHE388     -0.0042
     26  CD2      144.1230  148.6840  122.3170 C.ar  388  PHE388     -0.0042
     27  CE1      144.4960  146.6200  124.0880 C.ar  388  PHE388     -0.0003
     28  CE2      144.9570  147.6420  121.9950 C.ar  388  PHE388     -0.0003
     29  CZ       145.1400  146.6120  122.8810 C.ar  388  PHE388     -0.0000
     30  N        153.9860  145.4650  114.0780 N.3   454  VAL454     -0.1245
     31  CA       153.4490  144.1740  114.4980 C.3   454  VAL454      0.1561
     32  C        154.4080  143.4260  115.4330 C.2   454  VAL454      0.2260
     33  O        153.9210  142.8620  116.4230 O.2   454  VAL454     -0.2867
     34  CB       153.0320  143.3420  113.2720 C.3   454  VAL454      0.0252
     35  CG1      152.5290  141.9680  113.6670 C.3   454  VAL454      0.0019
     36  CG2      151.9690  144.0820  112.4990 C.3   454  VAL454      0.0019
     37  N        154.0800  144.5560  119.1810 N.3   457  ALA457     -0.1231
     38  CA       152.8540  144.1990  119.8750 C.3   457  ALA457      0.1694
     39  C        152.9340  142.8490  120.5670 C.2   457  ALA457      0.2592
     40  O        151.9400  142.4130  121.1490 O.2   457  ALA457     -0.2718
     41  CB       151.6860  144.1960  118.8910 C.3   457  ALA457      0.0304
     42  N        154.0780  142.1830  120.5190 N.am  458  PHE458     -0.1976
     43  CA       154.2660  140.8500  121.0710 C.3   458  PHE458      0.1639
     44  C        155.3390  140.8560  122.1440 C.2   458  PHE458      0.2290
     45  O        156.2030  139.9830  122.1840 O.2   458  PHE458     -0.2864
     46  CB       154.6270  139.8590  119.9680 C.3   458  PHE458      0.0560
     47  CG       153.4930  139.5380  119.0470 C.ar  458  PHE458     -0.0200
     48  CD1      152.1900  139.5730  119.4960 C.ar  458  PHE458     -0.0042
     49  CD2      153.7260  139.2810  117.7160 C.ar  458  PHE458     -0.0042
     50  CE1      151.1460  139.2960  118.6440 C.ar  458  PHE458     -0.0003
     51  CE2      152.6840  139.0160  116.8570 C.ar  458  PHE458     -0.0003
     52  CZ       151.3900  139.0250  117.3240 C.ar  458  PHE458     -0.0000
     53  N        151.7310  147.6230  123.0240 N.3   468  ARG468     -0.1245
     54  CA       150.5300  147.1970  122.3220 C.3   468  ARG468      0.1563
     55  C        149.5550  148.3350  122.1040 C.2   468  ARG468      0.2260
     56  O        148.8010  148.3070  121.1300 O.2   468  ARG468     -0.2867
     57  CB       149.8250  146.0790  123.0800 C.3   468  ARG468      0.0307
     58  CG       150.5260  144.7560  123.0040 C.3   468  ARG468      0.0489
     59  CD       149.6680  143.6620  123.5900 C.3   468  ARG468      0.2205
     60  NE       149.4960  143.8210  125.0290 N.pl3 468  ARG468     -0.0865
     61  CZ       150.3250  143.3080  125.9310 C.cat 468  ARG468      0.5346
     62  NH1      151.3720  142.6020  125.5320 N.pl3 468  ARG468      0.1354
     63  NH2      150.1080  143.4900  127.2260 N.pl3 468  ARG468      0.1354
     64  N        151.0020  150.0980  119.0410 N.3   471  SER471     -0.1202
     65  CA       151.0950  149.2700  117.8440 C.3   471  SER471      0.2020
     66  C        149.7420  149.0830  117.1800 C.2   471  SER471      0.2618
     67  O        149.5940  149.3330  115.9820 O.2   471  SER471     -0.2717
     68  CB       151.6790  147.9120  118.1970 C.3   471  SER471      0.2103
     69  OG       151.6710  147.0620  117.0710 O.3   471  SER471     -0.2182
     70  N        148.7530  148.6210  117.9440 N.am  472  ILE472     -0.1979
     71  CA       147.4140  148.3720  117.4200 C.3   472  ILE472      0.1595
     72  C        146.7670  149.6620  116.9380 C.2   472  ILE472      0.2287
     73  O        146.0630  149.6690  115.9230 O.2   472  ILE472     -0.2864
     74  CB       146.5780  147.6300  118.4920 C.3   472  ILE472      0.0276
     75  CG1      146.9030  146.1320  118.4880 C.3   472  ILE472      0.0022
     76  CG2      145.0860  147.8280  118.3220 C.3   472  ILE472      0.0022
     77  CD1      148.0270  145.6870  119.3890 C.3   472  ILE472      0.0001
     78  N        148.6020  150.4370  113.5720 N.3   475  VAL475     -0.1231
     79  CA       148.3370  149.4480  112.5320 C.3   475  VAL475      0.1692
     80  C        146.8920  149.5410  112.0610 C.2   475  VAL475      0.2592
     81  O        146.6200  149.5320  110.8560 O.2   475  VAL475     -0.2718
     82  CB       148.6910  148.0340  113.0250 C.3   475  VAL475      0.0266
     83  CG1      148.1740  146.9820  112.0790 C.3   475  VAL475      0.0020
     84  CG2      150.1820  147.8900  113.1260 C.3   475  VAL475      0.0020
     85  N        145.9460  149.6740  112.9930 N.am  476  SER476     -0.1952
     86  CA       144.5420  149.7550  112.6150 C.3   476  SER476      0.1924
     87  C        144.2020  151.0500  111.9040 C.2   476  SER476      0.2314
     88  O        143.1980  151.0960  111.1930 O.2   476  SER476     -0.2863
     89  CB       143.6420  149.6060  113.8340 C.3   476  SER476      0.2116
     90  OG       143.8410  148.3470  114.4460 O.3   476  SER476     -0.2180
     91  N        145.4300  149.8510  108.4870 N.3   479  ALA479     -0.1231
     92  CA       144.5310  148.8520  107.9280 C.3   479  ALA479      0.1694
     93  C        143.2250  149.4720  107.4610 C.2   479  ALA479      0.2591
     94  O        142.5770  148.9380  106.5580 O.2   479  ALA479     -0.2718
     95  CB       144.2610  147.7600  108.9600 C.3   479  ALA479      0.0304
     96  N        142.8210  150.5910  108.0570 N.am  480  LEU480     -0.1980
     97  CA       141.6290  151.2870  107.5980 C.3   480  LEU480      0.1596
     98  C        141.9190  152.1940  106.4180 C.2   480  LEU480      0.2287
     99  O        141.1070  152.2730  105.4910 O.2   480  LEU480     -0.2864
    100  CB       141.0230  152.1020  108.7290 C.3   480  LEU480      0.0297
    101  CG       140.2400  151.3190  109.7590 C.3   480  LEU480      0.0022
    102  CD1      140.0410  152.2100  110.9160 C.3   480  LEU480      0.0001
    103  CD2      138.9140  150.9530  109.1690 C.3   480  LEU480      0.0001
    104  N        141.4330  150.5750  103.0870 N.3   483  LEU483     -0.1245
    105  CA       140.0580  150.4700  102.6270 C.3   483  LEU483      0.1561
    106  C        139.3010  151.7870  102.6940 C.2   483  LEU483      0.2260
    107  O        138.1090  151.8050  102.3960 O.2   483  LEU483     -0.2867
    108  CB       139.3260  149.3730  103.4100 C.3   483  LEU483      0.0270
    109  CG       139.1980  149.3820  104.9330 C.3   483  LEU483      0.0019
    110  CD1      137.9480  150.1020  105.4260 C.3   483  LEU483      0.0001
    111  CD2      139.2330  147.9550  105.4360 C.3   483  LEU483      0.0001
@<TRIPOS>BOND
     1   107   106    2
     2   105   106    1
     3   105   104    1
     4   105   108    1
     5   108   109    1
     6   109   110    1
     7   109   111    1
     8    99    98    2
     9    98    97    1
    10    94    93    2
    11    93    92    1
    12    93    96   am
    13    97    96    1
    14    97   100    1
    15    92    91    1
    16    92    95    1
    17   100   101    1
    18   103   101    1
    19   101   102    1
    20    81    80    2
    21    88    87    2
    22    87    86    1
    23    80    79    1
    24    80    85   am
    25    83    82    1
    26    36    34    1
    27    79    82    1
    28    79    78    1
    29    86    85    1
    30    86    89    1
    31    82    84    1
    32    34    35    1
    33    34    31    1
    34    89    90    1
    35    30    31    1
    36     7     5    1
    37    31    32    1
    38    32    33    2
    39     5     6    1
    40     5     2    1
    41    73    72    2
    42    67    66    2
    43     1     2    1
    44    51    52   ar
    45    51    49   ar
    46     2     3    1
    47    72    71    1
    48    18    17   ar
    49    18    16   ar
    50    69    68    1
    51    66    65    1
    52    66    70   am
    53    52    50   ar
    54    17    15   ar
    55    71    70    1
    56    71    74    1
    57    49    47   ar
    58    16    14   ar
    59    65    68    1
    60    65    64    1
    61     3     4    2
    62    76    74    1
    63    75    74    1
    64    75    77    1
    65    50    48   ar
    66    15    13   ar
    67    41    38    1
    68    47    48   ar
    69    47    46    1
    70    14    13   ar
    71    37    38    1
    72    13    12    1
    73    38    39    1
    74    46    43    1
    75    42    39   am
    76    42    43    1
    77    39    40    2
    78    12     9    1
    79     8     9    1
    80    43    44    1
    81    56    55    2
    82     9    10    1
    83    28    26   ar
    84    28    29   ar
    85    55    54    1
    86    44    45    2
    87    26    24   ar
    88    54    53    1
    89    54    57    1
    90    29    27   ar
    91    58    57    1
    92    58    59    1
    93    10    11    2
    94    24    23    1
    95    24    25   ar
    96    59    60    1
    97    23    20    1
    98    27    25   ar
    99    19    20    1
   100    60    61    2
   101    20    21    1
   102    62    61    1
   103    21    22    2
   104    61    63    1
