@<TRIPOS>MOLECULE
tmp/6ct2A00.pdb
 199 193 0 0 0
SMALL
GASTEIGER

@<TRIPOS>ATOM
      1  N          9.8260  -19.2790   -6.0340 N.3    17  TRP17      -0.1241
      2  CA         8.7790  -20.1350   -6.5740 C.3    17  TRP17       0.1605
      3  C          9.2370  -21.5640   -6.7960 C.2    17  TRP17       0.2264
      4  O          8.4070  -22.4740   -6.7860 O.2    17  TRP17      -0.2867
      5  CB         8.2630  -19.5840   -7.9100 C.3    17  TRP17       0.0550
      6  CG         7.6550  -18.2190   -7.8460 C.ar   17  TRP17       0.0003
      7  CD1        7.5570  -17.4110   -6.7520 C.ar   17  TRP17       0.0946
      8  CD2        7.0640  -17.4970   -8.9330 C.ar   17  TRP17       0.0152
      9  NE1        6.9390  -16.2320   -7.0890 N.ar   17  TRP17      -0.2442
     10  CE2        6.6260  -16.2590   -8.4230 C.ar   17  TRP17       0.0810
     11  CE3        6.8610  -17.7780  -10.2880 C.ar   17  TRP17       0.0012
     12  CZ2        5.9980  -15.3030   -9.2190 C.ar   17  TRP17       0.0191
     13  CZ3        6.2370  -16.8280  -11.0770 C.ar   17  TRP17       0.0001
     14  CH2        5.8130  -15.6060  -10.5400 C.ar   17  TRP17       0.0015
     15  N         12.3940  -18.6330  -10.1230 N.3    95  PHE95      -0.1227
     16  CA        11.0800  -18.2590  -10.6310 C.3    95  PHE95       0.1736
     17  C         10.7140  -18.9920  -11.9150 C.2    95  PHE95       0.2595
     18  O          9.6650  -18.6980  -12.5060 O.2    95  PHE95      -0.2718
     19  CB        11.0190  -16.7460  -10.8500 C.3    95  PHE95       0.0547
     20  CG        11.5410  -15.9560   -9.6890 C.ar   95  PHE95      -0.0202
     21  CD1       10.8050  -15.8600   -8.5190 C.ar   95  PHE95      -0.0042
     22  CD2       12.7730  -15.3310   -9.7580 C.ar   95  PHE95      -0.0042
     23  CE1       11.2850  -15.1390   -7.4400 C.ar   95  PHE95      -0.0003
     24  CE2       13.2580  -14.6090   -8.6820 C.ar   95  PHE95      -0.0003
     25  CZ        12.5140  -14.5130   -7.5230 C.ar   95  PHE95      -0.0000
     26  N         11.5410  -19.9340  -12.3620 N.am   96  LEU96      -0.1980
     27  CA        11.2790  -20.7160  -13.5600 C.3    96  LEU96       0.1596
     28  C         11.3060  -22.1960  -13.2150 C.2    96  LEU96       0.2287
     29  O         12.2360  -22.6690  -12.5530 O.2    96  LEU96      -0.2864
     30  CB        12.3000  -20.4030  -14.6560 C.3    96  LEU96       0.0297
     31  CG        12.2910  -18.9430  -15.1070 C.3    96  LEU96       0.0022
     32  CD1       13.4150  -18.6500  -16.0900 C.3    96  LEU96       0.0001
     33  CD2       10.9420  -18.6110  -15.7060 C.3    96  LEU96       0.0001
     34  N         12.7240  -16.7090  -20.5000 N.3   141  ILE141     -0.1231
     35  CA        12.4290  -15.3020  -20.2530 C.3   141  ILE141      0.1692
     36  C         11.8300  -15.1800  -18.8600 C.2   141  ILE141      0.2592
     37  O         10.9430  -15.9540  -18.4850 O.2   141  ILE141     -0.2718
     38  CB        11.4940  -14.7080  -21.3280 C.3   141  ILE141      0.0266
     39  CG1       11.2220  -13.2280  -21.0520 C.3   141  ILE141      0.0019
     40  CG2       10.2000  -15.5090  -21.4420 C.3   141  ILE141      0.0020
     41  CD1       10.5690  -12.5060  -22.2090 C.3   141  ILE141      0.0001
     42  N         12.3260  -14.2180  -18.0870 N.am  142  MET142     -0.1965
     43  CA        11.9640  -14.1110  -16.6810 C.3   142  MET142      0.1736
     44  C         11.9090  -12.6440  -16.2960 C.2   142  MET142      0.2616
     45  O         12.8740  -11.9080  -16.5180 O.2   142  MET142     -0.2715
     46  CB        12.9740  -14.8580  -15.8000 C.3   142  MET142      0.0427
     47  CG        12.5620  -15.0450  -14.3400 C.3   142  MET142      0.0599
     48  SD        12.8450  -13.5910  -13.3120 S.3   142  MET142     -0.1393
     49  CE        14.5960  -13.3260  -13.5670 C.3   142  MET142      0.0692
     50  N         10.7810  -12.2290  -15.7280 N.am  143  ILE143     -0.1977
     51  CA        10.6210  -10.9070  -15.1350 C.3   143  ILE143      0.1596
     52  C         10.5220  -11.0910  -13.6290 C.2   143  ILE143      0.2287
     53  O          9.7430  -11.9260  -13.1520 O.2   143  ILE143     -0.2864
     54  CB         9.3790  -10.1850  -15.6860 C.3   143  ILE143      0.0276
     55  CG1        9.4810  -10.0240  -17.2050 C.3   143  ILE143      0.0022
     56  CG2        9.2020   -8.8320  -15.0090 C.3   143  ILE143      0.0022
     57  CD1       10.6300   -9.1480  -17.6510 C.3   143  ILE143      0.0001
     58  N          8.0820   -6.7050  -10.8260 N.3   147  TYR147     -0.1227
     59  CA         7.9240   -6.0420  -12.1110 C.3   147  TYR147      0.1736
     60  C          6.9740   -6.7750  -13.0470 C.2   147  TYR147      0.2595
     61  O          6.7050   -6.2790  -14.1460 O.2   147  TYR147     -0.2718
     62  CB         9.2860   -5.8890  -12.8010 C.3   147  TYR147      0.0548
     63  CG        10.2550   -4.9790  -12.0830 C.ar  147  TYR147     -0.0200
     64  CD1       10.1490   -3.5990  -12.1890 C.ar  147  TYR147     -0.0009
     65  CD2       11.2830   -5.5000  -11.3090 C.ar  147  TYR147     -0.0009
     66  CE1       11.0370   -2.7630  -11.5400 C.ar  147  TYR147      0.0417
     67  CE2       12.1750   -4.6730  -10.6560 C.ar  147  TYR147      0.0417
     68  CZ        12.0480   -3.3050  -10.7750 C.ar  147  TYR147      0.1957
     69  OH        12.9330   -2.4750  -10.1260 O.3   147  TYR147     -0.2866
     70  N          6.4700   -7.9410  -12.6530 N.am  148  GLN148     -0.1965
     71  CA         5.6290   -8.7300  -13.5410 C.3   148  GLN148      0.1733
     72  C          4.3030   -8.0250  -13.8020 C.2   148  GLN148      0.2616
     73  O          3.8240   -7.2300  -12.9870 O.2   148  GLN148     -0.2715
     74  CB         5.3730  -10.1160  -12.9460 C.3   148  GLN148      0.0408
     75  CG         6.5900  -11.0210  -12.9710 C.3   148  GLN148      0.0908
     76  CD         6.3660  -12.3210  -12.2280 C.2   148  GLN148      0.2608
     77  OE1        5.2540  -12.6160  -11.7890 O.2   148  GLN148     -0.2717
     78  NE2        7.4280  -13.1050  -12.0730 N.am  148  GLN148     -0.0878
     79  N          3.7190   -8.3210  -14.9660 N.am  149  ARG149     -0.1963
     80  CA         2.4140   -7.7950  -15.3660 C.3   149  ARG149      0.1729
     81  C          2.4070   -6.2700  -15.4180 C.2   149  ARG149      0.2616
     82  O          1.3900   -5.6320  -15.1330 O.2   149  ARG149     -0.2715
     83  CB         1.3050   -8.3050  -14.4380 C.3   149  ARG149      0.0348
     84  CG         1.1870   -9.8190  -14.3990 C.3   149  ARG149      0.0492
     85  CD        -0.0120  -10.2650  -13.5810 C.3   149  ARG149      0.2205
     86  NE         0.0070  -11.7050  -13.3410 N.pl3 149  ARG149     -0.0865
     87  CZ        -0.7150  -12.5830  -14.0280 C.cat 149  ARG149      0.5346
     88  NH1       -1.5180  -12.1690  -14.9990 N.pl3 149  ARG149      0.1354
     89  NH2       -0.6340  -13.8760  -13.7450 N.pl3 149  ARG149      0.1354
     90  N          3.5420   -5.6690  -15.7860 N.am  150  ARG150     -0.1963
     91  CA         3.6640   -4.2160  -15.8200 C.3   150  ARG150      0.1729
     92  C          4.2770   -3.7210  -17.1270 C.2   150  ARG150      0.2616
     93  O          4.7090   -2.5660  -17.2040 O.2   150  ARG150     -0.2715
     94  CB         4.4820   -3.7190  -14.6250 C.3   150  ARG150      0.0348
     95  CG         3.6750   -3.6110  -13.3390 C.3   150  ARG150      0.0492
     96  CD         4.5200   -3.9360  -12.1160 C.3   150  ARG150      0.2205
     97  NE         3.8520   -3.5560  -10.8730 N.pl3 150  ARG150     -0.0865
     98  CZ         3.4310   -4.4190   -9.9530 C.cat 150  ARG150      0.5346
     99  NH1        3.6040   -5.7210  -10.1310 N.pl3 150  ARG150      0.1354
    100  NH2        2.8350   -3.9790   -8.8540 N.pl3 150  ARG150      0.1354
    101  N          4.3200   -4.5660  -18.1570 N.am  151  GLY151     -0.1955
    102  CA         4.7790   -4.1680  -19.4710 C.3   151  GLY151      0.1869
    103  C          6.2230   -4.4980  -19.7810 C.2   151  GLY151      0.2309
    104  O          6.6230   -4.4060  -20.9500 O.2   151  GLY151     -0.2863
    105  N          7.7790   -7.5060  -19.4620 N.3   153  GLY153     -0.1210
    106  CA         7.8130   -8.7420  -20.2260 C.3   153  GLY153      0.1956
    107  C          7.3710   -8.5420  -21.6620 C.2   153  GLY153      0.2611
    108  O          7.9370   -9.1310  -22.5860 O.2   153  GLY153     -0.2717
    109  N          6.3570   -7.6990  -21.8680 N.am  154  ARG154     -0.1979
    110  CA         5.9220   -7.3650  -23.2200 C.3   154  ARG154      0.1597
    111  C          7.0320   -6.6730  -23.9990 C.2   154  ARG154      0.2287
    112  O          7.2140   -6.9280  -25.1960 O.2   154  ARG154     -0.2864
    113  CB         4.6770   -6.4800  -23.1500 C.3   154  ARG154      0.0334
    114  CG         4.1060   -6.0390  -24.4830 C.3   154  ARG154      0.0492
    115  CD         2.9170   -5.1230  -24.2360 C.3   154  ARG154      0.2205
    116  NE         2.2780   -4.6600  -25.4630 N.pl3 154  ARG154     -0.0865
    117  CZ         1.1770   -3.9160  -25.4860 C.cat 154  ARG154      0.5346
    118  NH1        0.5990   -3.5530  -24.3470 N.pl3 154  ARG154      0.1354
    119  NH2        0.6540   -3.5330  -26.6410 N.pl3 154  ARG154      0.1354
    120  N          9.6220   -9.3740  -25.0180 N.3   157  ILE157     -0.1245
    121  CA         9.1040  -10.1930  -26.1110 C.3   157  ILE157      0.1561
    122  C          9.1780   -9.4240  -27.4240 C.2   157  ILE157      0.2260
    123  O          9.6350   -9.9450  -28.4480 O.2   157  ILE157     -0.2867
    124  CB         7.6670  -10.6540  -25.8070 C.3   157  ILE157      0.0252
    125  CG1        7.6500  -11.6250  -24.6240 C.3   157  ILE157      0.0019
    126  CG2        7.0460  -11.3010  -27.0340 C.3   157  ILE157      0.0019
    127  CD1        6.2570  -11.9420  -24.1140 C.3   157  ILE157      0.0001
    128  N          6.5990  -21.0070  -19.5530 N.3   178  SER178     -0.1217
    129  CA         6.0520  -20.8780  -18.2150 C.3   178  SER178      0.1889
    130  C          4.5690  -20.5260  -18.3040 C.2   178  SER178      0.2288
    131  O          4.0480  -20.1740  -19.3680 O.2   178  SER178     -0.2866
    132  CB         6.8080  -19.8150  -17.4170 C.3   178  SER178      0.2089
    133  OG         6.7570  -18.5530  -18.0650 O.3   178  SER178     -0.2183
    134  N          3.1440  -17.9140  -16.9660 N.3   180  LEU180     -0.1231
    135  CA         3.0480  -16.4870  -17.2420 C.3   180  LEU180      0.1693
    136  C          3.5820  -16.1410  -18.6240 C.2   180  LEU180      0.2592
    137  O          3.0610  -15.2260  -19.2720 O.2   180  LEU180     -0.2718
    138  CB         3.7960  -15.7060  -16.1600 C.3   180  LEU180      0.0284
    139  CG         3.7520  -14.1800  -16.1610 C.3   180  LEU180      0.0019
    140  CD1        2.3410  -13.6810  -16.3870 C.3   180  LEU180      0.0001
    141  CD2        4.2860  -13.6690  -14.8330 C.3   180  LEU180      0.0001
    142  N          4.6050  -16.8570  -19.0930 N.am  181  GLY181     -0.1957
    143  CA         5.0870  -16.6300  -20.4450 C.3   181  GLY181      0.1869
    144  C          4.0600  -17.0010  -21.4980 C.2   181  GLY181      0.2309
    145  O          3.9410  -16.3300  -22.5270 O.2   181  GLY181     -0.2863
    146  N          1.6040  -14.3050  -21.6630 N.3   184  SER184     -0.1202
    147  CA         2.2300  -13.1000  -22.1940 C.3   184  SER184      0.2020
    148  C          2.4340  -13.1910  -23.7010 C.2   184  SER184      0.2618
    149  O          2.1840  -12.2200  -24.4240 O.2   184  SER184     -0.2717
    150  CB         3.5590  -12.8500  -21.4820 C.3   184  SER184      0.2103
    151  OG         3.3570  -12.6380  -20.0930 O.3   184  SER184     -0.2182
    152  N          2.8870  -14.3450  -24.1960 N.am  185  TYR185     -0.1975
    153  CA         3.0920  -14.4890  -25.6340 C.3   185  TYR185      0.1639
    154  C          1.7660  -14.5020  -26.3830 C.2   185  TYR185      0.2290
    155  O          1.6380  -13.8660  -27.4360 O.2   185  TYR185     -0.2864
    156  CB         3.8920  -15.7560  -25.9330 C.3   185  TYR185      0.0560
    157  CG         5.3830  -15.5250  -26.0190 C.ar  185  TYR185     -0.0198
    158  CD1        5.9690  -15.0770  -27.1970 C.ar  185  TYR185     -0.0009
    159  CD2        6.2060  -15.7550  -24.9240 C.ar  185  TYR185     -0.0009
    160  CE1        7.3320  -14.8620  -27.2800 C.ar  185  TYR185      0.0417
    161  CE2        7.5690  -15.5460  -24.9970 C.ar  185  TYR185      0.0417
    162  CZ         8.1280  -15.0990  -26.1760 C.ar  185  TYR185      0.1957
    163  OH         9.4870  -14.8920  -26.2470 O.3   185  TYR185     -0.2866
    164  N         -0.9600  -13.0350  -25.4620 N.3   187  SER187     -0.1202
    165  CA        -1.4390  -11.6570  -25.4690 C.3   187  SER187      0.2020
    166  C         -0.6390  -10.8020  -26.4430 C.2   187  SER187      0.2618
    167  O         -1.2120   -9.9860  -27.1770 O.2   187  SER187     -0.2717
    168  CB        -1.3750  -11.0700  -24.0590 C.3   187  SER187      0.2103
    169  OG        -2.2030  -11.7960  -23.1680 O.3   187  SER187     -0.2182
    170  N          0.6850  -10.9760  -26.4670 N.am  188  TYR188     -0.1975
    171  CA         1.5180  -10.2040  -27.3820 C.3   188  TYR188      0.1639
    172  C          1.1820  -10.5260  -28.8330 C.2   188  TYR188      0.2290
    173  O          0.9770   -9.6210  -29.6490 O.2   188  TYR188     -0.2864
    174  CB         2.9970  -10.4730  -27.1030 C.3   188  TYR188      0.0560
    175  CG         3.9190   -9.8880  -28.1520 C.ar  188  TYR188     -0.0198
    176  CD1        4.3590   -8.5760  -28.0600 C.ar  188  TYR188     -0.0009
    177  CD2        4.3450  -10.6480  -29.2360 C.ar  188  TYR188     -0.0009
    178  CE1        5.1980   -8.0350  -29.0150 C.ar  188  TYR188      0.0417
    179  CE2        5.1820  -10.1150  -30.1970 C.ar  188  TYR188      0.0417
    180  CZ         5.6070   -8.8090  -30.0800 C.ar  188  TYR188      0.1957
    181  OH         6.4430   -8.2710  -31.0310 O.3   188  TYR188     -0.2866
    182  N         -7.5980   -5.8390  -22.2200 N.3   254  GLN254     -0.1245
    183  CA        -6.2240   -6.3180  -22.3480 C.3   254  GLN254      0.1566
    184  C         -5.3510   -5.3150  -23.0970 C.2   254  GLN254      0.2260
    185  O         -4.2340   -5.0000  -22.6700 O.2   254  GLN254     -0.2867
    186  CB        -6.2170   -7.6800  -23.0480 C.3   254  GLN254      0.0367
    187  CG        -4.8430   -8.3010  -23.1250 C.3   254  GLN254      0.0905
    188  CD        -4.4700   -9.0360  -21.8520 C.2   254  GLN254      0.2608
    189  OE1       -5.2550   -9.7510  -21.2300 O.2   254  GLN254     -0.2717
    190  NE2       -3.2080   -8.8700  -21.4540 N.am  254  GLN254     -0.0878
    191  N         -3.4770   -0.9730  -21.7600 N.3   257  LYS257     -0.1245
    192  CA        -2.3070   -0.5190  -21.0160 C.3   257  LYS257      0.1561
    193  C         -1.2600    0.0100  -21.9900 C.2   257  LYS257      0.2260
    194  O         -0.8900   -0.6950  -22.9350 O.2   257  LYS257     -0.2867
    195  CB        -1.7160   -1.6540  -20.1830 C.3   257  LYS257      0.0271
    196  CG        -0.5280   -1.2430  -19.3200 C.3   257  LYS257      0.0035
    197  CD         0.0670   -2.4390  -18.5900 C.3   257  LYS257      0.0206
    198  CE         1.5160   -2.6580  -18.9870 C.3   257  LYS257      0.1093
    199  NZ         1.6540   -3.0710  -20.4130 N.3   257  LYS257     -0.1314
@<TRIPOS>BOND
     1   181   180    1
     2   179   180   ar
     3   179   177   ar
     4   180   178   ar
     5   173   172    2
     6   177   175   ar
     7   178   176   ar
     8   172   171    1
     9   123   122    2
    10   175   176   ar
    11   175   174    1
    12   155   154    2
    13   122   121    1
    14   171   174    1
    15   171   170    1
    16   160   158   ar
    17   160   162   ar
    18   158   157   ar
    19   167   166    2
    20   126   124    1
    21   119   117    1
    22   170   166   am
    23   166   165    1
    24   154   153    1
    25   163   162    1
    26   162   161   ar
    27   121   124    1
    28   121   120    1
    29   157   156    1
    30   157   159   ar
    31   156   153    1
    32   124   125    1
    33   153   152    1
    34   117   116    2
    35   117   118    1
    36   165   164    1
    37   165   168    1
    38   116   115    1
    39   112   111    2
    40   161   159   ar
    41   125   127    1
    42   114   115    1
    43   114   113    1
    44   149   148    2
    45   152   148   am
    46   168   169    1
    47   111   110    1
    48   148   147    1
    49   110   113    1
    50   110   109    1
    51   187   186    1
    52   187   188    1
    53   184   185    2
    54   184   183    1
    55   186   183    1
    56   194   193    2
    57   108   107    2
    58   145   144    2
    59   183   182    1
    60    41    39    1
    61   147   146    1
    62   147   150    1
    63   193   192    1
    64   109   107   am
    65   188   190   am
    66   188   189    2
    67   191   192    1
    68   107   106    1
    69   144   143    1
    70   150   151    1
    71    40    38    1
    72    38    39    1
    73    38    35    1
    74   192   195    1
    75   104   103    2
    76    34    35    1
    77   143   142    1
    78   199   198    1
    79    35    36    1
    80   106   105    1
    81   195   196    1
    82   103   102    1
    83   128   129    1
    84   102   101    1
    85   131   130    2
    86   196   197    1
    87   137   136    2
    88   142   136   am
    89   198   197    1
    90    36    37    2
    91    36    42   am
    92   136   135    1
    93   130   129    1
    94   129   132    1
    95   101    92   am
    96    42    43    1
    97   133   132    1
    98    57    55    1
    99   135   134    1
   100   135   138    1
   101    55    54    1
   102    93    92    2
   103    92    91    1
   104    43    44    1
   105    43    46    1
   106    45    44    2
   107   140   139    1
   108    44    50   am
   109   139   138    1
   110   139   141    1
   111    32    31    1
   112    91    90    1
   113    91    94    1
   114    46    47    1
   115    90    81   am
   116    50    51    1
   117    33    31    1
   118    54    51    1
   119    54    56    1
   120    81    80    1
   121    81    82    2
   122    80    79    1
   123    80    83    1
   124    51    52    1
   125    31    30    1
   126    88    87    1
   127    79    72   am
   128    30    27    1
   129    94    95    1
   130    83    84    1
   131    84    85    1
   132    47    48    1
   133    61    60    2
   134    87    89    1
   135    87    86    2
   136    72    71    1
   137    72    73    2
   138    52    53    2
   139    85    86    1
   140    49    48    1
   141    27    28    1
   142    27    26    1
   143    71    74    1
   144    71    70    1
   145    95    96    1
   146    28    29    2
   147    60    70   am
   148    60    59    1
   149    75    74    1
   150    75    76    1
   151    62    59    1
   152    62    63    1
   153    18    17    2
   154    26    17   am
   155    76    78   am
   156    76    77    2
   157    64    63   ar
   158    64    66   ar
   159    96    97    1
   160    59    58    1
   161    63    65   ar
   162    17    16    1
   163    66    68   ar
   164    65    67   ar
   165    13    14   ar
   166    13    11   ar
   167    97    98    2
   168    19    16    1
   169    19    20    1
   170    68    67   ar
   171    68    69    1
   172    16    15    1
   173    14    12   ar
   174    11     8   ar
   175    99    98    1
   176    98   100    1
   177    22    20   ar
   178    22    24   ar
   179    20    21   ar
   180    12    10   ar
   181     8    10   ar
   182     8     6   ar
   183    24    25   ar
   184    21    23   ar
   185    10     9   ar
   186     5     6    1
   187     5     2    1
   188     6     7   ar
   189    25    23   ar
   190     9     7   ar
   191     3     4    2
   192     3     2    1
   193     2     1    1
