@<TRIPOS>MOLECULE
tmp/6ct5A00.pdb
 179 175 0 0 0
SMALL
GASTEIGER

@<TRIPOS>ATOM
      1  N        -26.8250  -23.9980  -18.3870 N.3    40  ARG40      -0.1245
      2  CA       -25.8390  -23.1650  -17.7080 C.3    40  ARG40       0.1563
      3  C        -26.3010  -21.7090  -17.5970 C.2    40  ARG40       0.2260
      4  O        -26.1620  -21.0880  -16.5320 O.2    40  ARG40      -0.2867
      5  CB       -24.4790  -23.2640  -18.4170 C.3    40  ARG40       0.0307
      6  CG       -23.3980  -22.2730  -17.9500 C.3    40  ARG40       0.0489
      7  CD       -23.0570  -22.3900  -16.4340 C.3    40  ARG40       0.2205
      8  NE       -21.9400  -21.5420  -16.0240 N.pl3  40  ARG40      -0.0865
      9  CZ       -21.8080  -21.0270  -14.8020 C.cat  40  ARG40       0.5346
     10  NH1      -22.7430  -21.2550  -13.8680 N.pl3  40  ARG40       0.1354
     11  NH2      -20.7660  -20.2560  -14.5110 N.pl3  40  ARG40       0.1354
     12  N        -26.9980  -19.9110  -13.8280 N.3    44  PHE44      -0.1241
     13  CA       -26.1790  -18.7280  -13.5700 C.3    44  PHE44       0.1605
     14  C        -27.0480  -17.5290  -13.2450 C.2    44  PHE44       0.2264
     15  O        -26.7890  -16.7970  -12.2820 O.2    44  PHE44      -0.2867
     16  CB       -25.3140  -18.4660  -14.8100 C.3    44  PHE44       0.0534
     17  CG       -24.5050  -17.1850  -14.7800 C.ar   44  PHE44      -0.0203
     18  CD1      -25.0850  -15.9680  -15.1450 C.ar   44  PHE44      -0.0042
     19  CD2      -23.1610  -17.2200  -14.4990 C.ar   44  PHE44      -0.0042
     20  CE1      -24.3450  -14.8120  -15.1460 C.ar   44  PHE44      -0.0003
     21  CE2      -22.3890  -16.0470  -14.5190 C.ar   44  PHE44      -0.0003
     22  CZ       -22.9740  -14.8560  -14.8410 C.ar   44  PHE44      -0.0000
     23  N        -29.1330  -18.2510   -9.8170 N.3    47  VAL47      -0.1231
     24  CA       -28.3600  -18.1710   -8.5660 C.3    47  VAL47       0.1692
     25  C        -27.9030  -16.7400   -8.2880 C.2    47  VAL47       0.2591
     26  O        -27.8060  -16.3220   -7.1160 O.2    47  VAL47      -0.2718
     27  CB       -27.1740  -19.1660   -8.5350 C.3    47  VAL47       0.0266
     28  CG1      -25.8980  -18.6200   -9.2580 C.3    47  VAL47       0.0020
     29  CG2      -26.8160  -19.4910   -7.0640 C.3    47  VAL47       0.0020
     30  N        -27.6210  -15.9570   -9.3390 N.am   48  ARG48      -0.1980
     31  CA       -27.2290  -14.5730   -9.1010 C.3    48  ARG48       0.1597
     32  C        -28.3990  -13.6960   -8.6720 C.2    48  ARG48       0.2287
     33  O        -28.1870  -12.7280   -7.9270 O.2    48  ARG48      -0.2864
     34  CB       -26.5460  -14.0320  -10.3450 C.3    48  ARG48       0.0334
     35  CG       -25.0840  -14.5200  -10.3890 C.3    48  ARG48       0.0492
     36  CD       -24.4400  -14.3830  -11.7370 C.3    48  ARG48       0.2205
     37  NE       -22.9980  -14.5680  -11.5190 N.pl3  48  ARG48      -0.0865
     38  CZ       -22.4370  -15.7650  -11.2870 C.cat  48  ARG48       0.5346
     39  NH1      -23.1920  -16.8680  -11.2680 N.pl3  48  ARG48       0.1354
     40  NH2      -21.1360  -15.8500  -11.0660 N.pl3  48  ARG48       0.1354
     41  N        -16.8060  -13.1670  -11.9860 N.3    67  LYS67      -0.1245
     42  CA       -16.0210  -14.3470  -11.6560 C.3    67  LYS67       0.1561
     43  C        -14.5450  -14.0060  -11.7740 C.2    67  LYS67       0.2260
     44  O        -14.1400  -13.2910  -12.7000 O.2    67  LYS67      -0.2867
     45  CB       -16.4050  -15.5350  -12.5710 C.3    67  LYS67       0.0271
     46  CG       -17.8020  -16.1410  -12.2520 C.3    67  LYS67       0.0035
     47  CD       -18.3200  -17.1370  -13.3070 C.3    67  LYS67       0.0206
     48  CE       -17.5850  -18.4910  -13.3260 C.3    67  LYS67       0.1093
     49  NZ       -17.6270  -19.3650  -12.0890 N.3    67  LYS67      -0.1314
     50  N        -10.0260  -18.0970  -10.9300 N.3    70  LYS70      -0.1231
     51  CA       -10.3630  -19.4910  -10.6650 C.3    70  LYS70       0.1693
     52  C        -11.8830  -19.7130  -10.5490 C.2    70  LYS70       0.2593
     53  O        -12.3160  -20.6930   -9.9250 O.2    70  LYS70      -0.2718
     54  CB        -9.6780  -19.9790   -9.3960 C.3    70  LYS70       0.0285
     55  CG        -8.1460  -19.9480   -9.4410 C.3    70  LYS70       0.0035
     56  CD        -7.6470  -20.7590  -10.6080 C.3    70  LYS70       0.0206
     57  CE        -6.1660  -21.0710  -10.4720 C.3    70  LYS70       0.1093
     58  NZ        -5.6810  -21.6490  -11.7530 N.3    70  LYS70      -0.1314
     59  N        -12.6830  -18.8240  -11.1400 N.am   71  GLY71      -0.1942
     60  CA       -14.1450  -18.9330  -11.1430 C.3    71  GLY71       0.2014
     61  C        -14.8350  -18.4180   -9.8990 C.2    71  GLY71       0.2639
     62  O        -16.0850  -18.4380   -9.8320 O.2    71  GLY71      -0.2714
     63  N        -14.0870  -17.9390   -8.9340 N.am   72  GLU72      -0.1963
     64  CA       -14.6670  -17.5620   -7.6700 C.3    72  GLU72       0.1718
     65  C        -15.5410  -16.3200   -7.8570 C.2    72  GLU72       0.2458
     66  O        -15.2690  -15.4760   -8.7360 O.2    72  GLU72      -0.2730
     67  CB       -13.5470  -17.3520   -6.6400 C.3    72  GLU72       0.0428
     68  CG       -12.6670  -16.0830   -6.8320 C.3    72  GLU72       0.1163
     69  CD       -11.5830  -16.1710   -7.9140 C.2    72  GLU72       0.3649
     70  OE1      -11.5940  -17.0760   -8.7870 O.co2  72  GLU72      -0.2457
     71  OE2      -10.6860  -15.3000   -7.8680 O.co2  72  GLU72      -0.2457
     72  N        -16.6610  -16.2200   -7.1380 N.am   73  PRO73      -0.2727
     73  CA       -17.5330  -15.0610   -7.3450 C.3    73  PRO73       0.1402
     74  C        -16.9080  -13.8160   -6.7440 C.2    73  PRO73       0.2269
     75  O        -16.2020  -13.8740   -5.7370 O.2    73  PRO73      -0.2865
     76  CB       -18.8480  -15.4620   -6.6470 C.3    73  PRO73       0.0296
     77  CG       -18.4620  -16.4750   -5.6250 C.3    73  PRO73       0.0237
     78  CD       -17.2630  -17.2200   -6.2400 C.3    73  PRO73       0.0939
     79  N        -21.2040  -17.1520   -0.8180 N.3    82  SER82      -0.1202
     80  CA       -21.0000  -18.3970   -1.5670 C.3    82  SER82       0.2020
     81  C        -22.2610  -18.7030   -2.3760 C.2    82  SER82       0.2619
     82  O        -23.3610  -18.3010   -2.0030 O.2    82  SER82      -0.2717
     83  CB       -20.6860  -19.5580   -0.6070 C.3    82  SER82       0.2103
     84  OG       -20.2910  -20.7140   -1.3600 O.3    82  SER82      -0.2182
     85  N        -22.0770  -19.3930   -3.5130 N.am   83  LEU83      -0.1965
     86  CA       -23.1400  -19.7940   -4.4240 C.3    83  LEU83       0.1728
     87  C        -23.0710  -21.2900   -4.6640 C.2    83  LEU83       0.2617
     88  O        -21.9710  -21.8810   -4.6510 O.2    83  LEU83      -0.2715
     89  CB       -22.9910  -19.0570   -5.8040 C.3    83  LEU83       0.0311
     90  CG       -22.9280  -17.5250   -5.7720 C.3    83  LEU83       0.0022
     91  CD1      -22.6300  -17.0100   -7.1900 C.3    83  LEU83       0.0001
     92  CD2      -24.3150  -17.0080   -5.1800 C.3    83  LEU83       0.0001
     93  N        -24.2360  -21.8890   -4.9370 N.am   84  THR84      -0.1937
     94  CA       -24.2660  -23.2810   -5.3860 C.3    84  THR84       0.2028
     95  C        -25.5110  -23.5280   -6.2320 C.2    84  THR84       0.2642
     96  O        -26.5660  -22.9330   -6.0070 O.2    84  THR84      -0.2714
     97  CB       -24.1910  -24.2420   -4.1840 C.3    84  THR84       0.1808
     98  OG1      -24.0310  -25.5790   -4.6630 O.3    84  THR84      -0.2208
     99  CG2      -25.4500  -24.1810   -3.3200 C.3    84  THR84       0.0379
    100  N        -25.3800  -24.4240   -7.2260 N.am   85  HIS85      -0.1973
    101  CA       -26.5080  -24.8600   -8.0290 C.3    85  HIS85       0.1656
    102  C        -26.3210  -26.3290   -8.3590 C.2    85  HIS85       0.2291
    103  O        -25.2150  -26.7630   -8.7040 O.2    85  HIS85      -0.2864
    104  CB       -26.7060  -24.0870   -9.3620 C.3    85  HIS85       0.0771
    105  CG       -25.4640  -23.4450   -9.9280 C.ar   85  HIS85       0.0820
    106  ND1      -24.2990  -24.1350  -10.2130 N.ar   85  HIS85      -0.2267
    107  CD2      -25.2090  -22.1440  -10.2370 C.ar   85  HIS85       0.1154
    108  CE1      -23.3950  -23.2960  -10.6950 C.ar   85  HIS85       0.1986
    109  NE2      -23.9110  -22.0790  -10.7000 N.ar   85  HIS85      -0.2212
    110  N        -22.7840  -25.6490   -0.2110 N.3   106  ASP106     -0.1225
    111  CA       -22.9160  -26.5720   -1.3300 C.3   106  ASP106      0.1805
    112  C        -24.2530  -27.3080   -1.2380 C.2   106  ASP106      0.2598
    113  O        -24.7540  -27.5710   -0.1420 O.2   106  ASP106     -0.2718
    114  CB       -21.7560  -27.5790   -1.3540 C.3   106  ASP106      0.1424
    115  CG       -21.6960  -28.3490   -2.6610 C.2   106  ASP106      0.3668
    116  OD1      -21.5630  -27.7000   -3.7110 O.co2 106  ASP106     -0.2456
    117  OD2      -21.7960  -29.5880   -2.6290 O.co2 106  ASP106     -0.2456
    118  N        -24.8040  -27.6700   -2.4000 N.am  107  ALA107     -0.1966
    119  CA       -26.0270  -28.4640   -2.4480 C.3   107  ALA107      0.1728
    120  C        -25.8500  -29.5840   -3.4580 C.2   107  ALA107      0.2616
    121  O        -25.3340  -29.3610   -4.5620 O.2   107  ALA107     -0.2715
    122  CB       -27.2460  -27.6000   -2.8540 C.3   107  ALA107      0.0334
    123  N        -26.2900  -30.7810   -3.0940 N.am  108  GLU108     -0.1977
    124  CA       -26.2590  -31.8780   -4.0570 C.3   108  GLU108      0.1602
    125  C        -27.5390  -32.7000   -3.9410 C.2   108  GLU108      0.2287
    126  O        -28.1390  -32.7760   -2.8590 O.2   108  GLU108     -0.2864
    127  CB       -25.0810  -32.8460   -3.8170 C.3   108  GLU108      0.0415
    128  CG       -23.7030  -32.3160   -4.2690 C.3   108  GLU108      0.1163
    129  CD       -23.4790  -32.5320   -5.7470 C.2   108  GLU108      0.3649
    130  OE1      -24.0280  -33.5120   -6.3010 O.co2 108  GLU108     -0.2457
    131  OE2      -22.8160  -31.6740   -6.3720 O.co2 108  GLU108     -0.2457
    132  N        -16.9460  -29.6730   -0.6910 N.3   149  GLU149     -0.1245
    133  CA       -17.1450  -28.5270   -1.5880 C.3   149  GLU149      0.1567
    134  C        -17.3720  -27.2520   -0.8130 C.2   149  GLU149      0.2260
    135  O        -16.8370  -26.1910   -1.1890 O.2   149  GLU149     -0.2867
    136  CB       -18.3140  -28.7810   -2.5420 C.3   149  GLU149      0.0388
    137  CG       -18.0130  -29.9940   -3.4600 C.3   149  GLU149      0.1160
    138  CD       -16.7780  -29.7020   -4.3270 C.2   149  GLU149      0.3649
    139  OE1      -16.9490  -29.0560   -5.3980 O.co2 149  GLU149     -0.2457
    140  OE2      -15.6490  -30.0480   -3.9230 O.co2 149  GLU149     -0.2457
    141  N        -13.9050  -26.0860    0.4340 N.3   152  TYR152     -0.1227
    142  CA       -13.1120  -25.3820   -0.5810 C.3   152  TYR152      0.1736
    143  C        -13.6450  -23.9770   -0.8180 C.2   152  TYR152      0.2595
    144  O        -12.8820  -23.0190   -0.9870 O.2   152  TYR152     -0.2718
    145  CB       -13.1440  -26.1760   -1.8970 C.3   152  TYR152      0.0548
    146  CG       -12.3660  -25.5540   -3.0340 C.ar  152  TYR152     -0.0200
    147  CD1      -11.0250  -25.1640   -2.8530 C.ar  152  TYR152     -0.0009
    148  CD2      -12.9480  -25.3870   -4.2910 C.ar  152  TYR152     -0.0009
    149  CE1      -10.3170  -24.5980   -3.8990 C.ar  152  TYR152      0.0417
    150  CE2      -12.2280  -24.8160   -5.3420 C.ar  152  TYR152      0.0417
    151  CZ       -10.9030  -24.4390   -5.1310 C.ar  152  TYR152      0.1957
    152  OH       -10.1730  -23.8380   -6.1580 O.3   152  TYR152     -0.2866
    153  N        -14.9750  -23.8310   -0.8880 N.am  153  LYS153     -0.1980
    154  CA       -15.4710  -22.5030   -1.2150 C.3   153  LYS153      0.1596
    155  C        -15.2710  -21.5300   -0.0870 C.2   153  LYS153      0.2287
    156  O        -15.1890  -20.3200   -0.3450 O.2   153  LYS153     -0.2864
    157  CB       -16.9710  -22.5930   -1.5920 C.3   153  LYS153      0.0298
    158  CG       -17.2040  -23.3870   -2.9050 C.3   153  LYS153      0.0038
    159  CD       -18.7640  -23.4110   -3.0530 C.3   153  LYS153      0.0206
    160  CE       -19.1670  -24.3630   -4.1440 C.3   153  LYS153      0.1093
    161  NZ       -20.6970  -24.4150   -4.1520 N.3   153  LYS153     -0.1314
    162  N        -11.0820  -20.8590   -0.3340 N.3   156  PHE156     -0.1228
    163  CA       -10.3730  -20.2440   -1.4520 C.3   156  PHE156      0.1721
    164  C        -10.3720  -18.7150   -1.3850 C.2   156  PHE156      0.2437
    165  O         -9.3200  -18.1210   -1.6520 O.2   156  PHE156     -0.2733
    166  CB       -10.9520  -20.7170   -2.7860 C.3   156  PHE156      0.0547
    167  CG       -10.2320  -20.1380   -3.9730 C.ar  156  PHE156     -0.0202
    168  CD1       -9.0610  -20.7300   -4.4400 C.ar  156  PHE156     -0.0042
    169  CD2      -10.6490  -18.9300   -4.5310 C.ar  156  PHE156     -0.0042
    170  CE1       -8.3400  -20.1400   -5.5030 C.ar  156  PHE156     -0.0003
    171  CE2       -9.9590  -18.3400   -5.5860 C.ar  156  PHE156     -0.0003
    172  CZ        -8.7790  -18.9510   -6.0710 C.ar  156  PHE156     -0.0000
    173  N        -11.4580  -18.0280   -1.0420 N.am  157  PRO157     -0.2729
    174  CA       -11.3770  -16.5520   -0.9970 C.3   157  PRO157      0.1401
    175  C        -10.3690  -16.0420   -0.0190 C.2   157  PRO157      0.2269
    176  O         -9.9250  -14.8940   -0.1860 O.2   157  PRO157     -0.2865
    177  CB       -12.7880  -16.1160   -0.5840 C.3   157  PRO157      0.0296
    178  CG       -13.6630  -17.2650   -1.0070 C.3   157  PRO157      0.0237
    179  CD       -12.8310  -18.4970   -0.7790 C.3   157  PRO157      0.0939
@<TRIPOS>BOND
     1     5     6    1
     2     5     2    1
     3     1     2    1
     4     6     7    1
     5     2     3    1
     6     3     4    2
     7     7     8    1
     8     8     9    2
     9    20    18   ar
    10    20    22   ar
    11    18    17   ar
    12    22    21   ar
    13    16    17    1
    14    16    13    1
    15     9    11    1
    16     9    10    1
    17    17    19   ar
    18    21    19   ar
    19    12    13    1
    20    13    14    1
    21    48    47    1
    22    48    49    1
    23    47    46    1
    24    14    15    2
    25    44    43    2
    26    45    46    1
    27    45    42    1
    28    41    42    1
    29    43    42    1
    30    58    57    1
    31    36    37    1
    32    36    35    1
    33    37    38    2
    34    38    39    1
    35    38    40    1
    36    60    59    1
    37    60    61    1
    38    59    52   am
    39    50    51    1
    40   109   108   ar
    41   109   107   ar
    42   108   106   ar
    43    51    52    1
    44    51    54    1
    45    56    57    1
    46    56    55    1
    47    52    53    2
    48    35    34    1
    49    34    31    1
    50   107   105   ar
    51   106   105   ar
    52   105   104    1
    53    61    62    2
    54    61    63   am
    55    23    24    1
    56    55    54    1
    57   104   101    1
    58    30    31    1
    59    30    25   am
    60    28    27    1
    61    31    32    1
    62    63    64    1
    63    70    69   ar
    64    66    65    2
    65   103   102    2
    66    32    33    2
    67    24    27    1
    68    24    25    1
    69    27    29    1
    70   102   101    1
    71    25    26    2
    72   101   100    1
    73    69    71   ar
    74    69    68    1
    75    65    64    1
    76    65    72   am
    77    64    67    1
    78    73    72    1
    79    73    74    1
    80    73    76    1
    81   100    95   am
    82    91    90    1
    83    72    78    1
    84    68    67    1
    85    74    75    2
    86    76    77    1
    87   131   129   ar
    88   130   129   ar
    89    78    77    1
    90    95    96    2
    91    95    94    1
    92   152   151    1
    93   172   171   ar
    94   172   170   ar
    95    89    90    1
    96    89    86    1
    97    90    92    1
    98   129   128    1
    99   171   169   ar
   100   170   168   ar
   101   139   138   ar
   102    94    93    1
   103    94    97    1
   104   150   151   ar
   105   150   148   ar
   106   151   149   ar
   107    93    87   am
   108    87    88    2
   109    87    86    1
   110    98    97    1
   111   121   120    2
   112   169   167   ar
   113   168   167   ar
   114    86    85    1
   115   138   140   ar
   116   138   137    1
   117   148   146   ar
   118   128   127    1
   119    97    99    1
   120   161   160    1
   121   160   159    1
   122   124   125    1
   123   124   127    1
   124   124   123    1
   125   167   166    1
   126   125   126    2
   127   149   147   ar
   128   116   115   ar
   129    85    81   am
   130   137   136    1
   131   120   123   am
   132   120   119    1
   133   159   158    1
   134   146   147   ar
   135   146   145    1
   136   158   157    1
   137   122   119    1
   138   166   163    1
   139   115   117   ar
   140   115   114    1
   141   136   133    1
   142   119   118    1
   143   118   112   am
   144    81    82    2
   145    81    80    1
   146   145   142    1
   147   165   164    2
   148   157   154    1
   149   133   134    1
   150   133   132    1
   151    80    79    1
   152    80    83    1
   153   163   164    1
   154   163   162    1
   155   164   173   am
   156    84    83    1
   157   114   111    1
   158   111   112    1
   159   111   110    1
   160   112   113    2
   161   154   153    1
   162   154   155    1
   163   135   134    2
   164   173   174    1
   165   173   179    1
   166   178   179    1
   167   178   177    1
   168   174   177    1
   169   174   175    1
   170   144   143    2
   171   153   143   am
   172   143   142    1
   173   142   141    1
   174   156   155    2
   175   176   175    2
