@<TRIPOS>MOLECULE
tmp/6ct5A01.pdb
 99 99 0 0 0
SMALL
GASTEIGER

@<TRIPOS>ATOM
      1  N        -18.8960  -35.5100    0.2290 N.3   145  PHE145     -0.1241
      2  CA       -18.5090  -34.6790   -0.9240 C.3   145  PHE145      0.1605
      3  C        -19.0520  -33.2530   -0.7870 C.2   145  PHE145      0.2264
      4  O        -18.3300  -32.2810   -1.0540 O.2   145  PHE145     -0.2867
      5  CB       -19.0090  -35.3350   -2.2130 C.3   145  PHE145      0.0534
      6  CG       -18.7910  -34.5030   -3.4480 C.ar  145  PHE145     -0.0203
      7  CD1      -17.4990  -34.2410   -3.8960 C.ar  145  PHE145     -0.0042
      8  CD2      -19.8800  -34.0260   -4.1740 C.ar  145  PHE145     -0.0042
      9  CE1      -17.2960  -33.4530   -5.0710 C.ar  145  PHE145     -0.0003
     10  CE2      -19.7010  -33.2360   -5.3260 C.ar  145  PHE145     -0.0003
     11  CZ       -18.4190  -32.9250   -5.7610 C.ar  145  PHE145     -0.0000
     12  N        -16.8900  -31.3670    1.5350 N.3   148  LYS148     -0.1231
     13  CA       -15.6120  -31.0110    0.8860 C.3   148  LYS148      0.1693
     14  C        -15.7980  -29.7700    0.0170 C.2   148  LYS148      0.2591
     15  O        -14.9430  -28.8790    0.0040 O.2   148  LYS148     -0.2718
     16  CB       -15.1050  -32.1690    0.0100 C.3   148  LYS148      0.0285
     17  CG       -14.8310  -33.4900    0.7790 C.3   148  LYS148      0.0035
     18  CD       -13.3600  -33.5720    1.2430 C.3   148  LYS148      0.0206
     19  CE       -13.2150  -34.8640    2.0290 C.3   148  LYS148      0.1093
     20  NZ       -11.7770  -35.2560    2.2650 N.3   148  LYS148     -0.1314
     21  N        -16.9460  -29.6730   -0.6910 N.am  149  GLU149     -0.1979
     22  CA       -17.1450  -28.5270   -1.5880 C.3   149  GLU149      0.1602
     23  C        -17.3720  -27.2520   -0.8130 C.2   149  GLU149      0.2287
     24  O        -16.8370  -26.1910   -1.1890 O.2   149  GLU149     -0.2864
     25  CB       -18.3140  -28.7810   -2.5420 C.3   149  GLU149      0.0415
     26  CG       -18.0130  -29.9940   -3.4600 C.3   149  GLU149      0.1163
     27  CD       -16.7780  -29.7020   -4.3270 C.2   149  GLU149      0.3649
     28  OE1      -16.9490  -29.0560   -5.3980 O.co2 149  GLU149     -0.2457
     29  OE2      -15.6490  -30.0480   -3.9230 O.co2 149  GLU149     -0.2457
     30  N        -16.1790  -26.6840    2.0780 N.3   151  THR151     -0.1203
     31  CA       -14.8570  -26.3880    2.6550 C.3   151  THR151      0.1994
     32  C        -13.9850  -25.6110    1.6650 C.2   151  THR151      0.2618
     33  O        -13.3970  -24.5800    2.0050 O.2   151  THR151     -0.2717
     34  CB       -14.1720  -27.6720    3.0950 C.3   151  THR151      0.1784
     35  OG1      -14.9770  -28.3030    4.0940 O.3   151  THR151     -0.2211
     36  CG2      -12.7830  -27.3130    3.7280 C.3   151  THR151      0.0376
     37  N        -13.9050  -26.0860    0.4340 N.am  152  TYR152     -0.1961
     38  CA       -13.1120  -25.3820   -0.5810 C.3   152  TYR152      0.1771
     39  C        -13.6450  -23.9770   -0.8180 C.2   152  TYR152      0.2619
     40  O        -12.8820  -23.0190   -0.9870 O.2   152  TYR152     -0.2715
     41  CB       -13.1440  -26.1760   -1.8970 C.3   152  TYR152      0.0574
     42  CG       -12.3660  -25.5540   -3.0340 C.ar  152  TYR152     -0.0198
     43  CD1      -11.0250  -25.1640   -2.8530 C.ar  152  TYR152     -0.0009
     44  CD2      -12.9480  -25.3870   -4.2910 C.ar  152  TYR152     -0.0009
     45  CE1      -10.3170  -24.5980   -3.8990 C.ar  152  TYR152      0.0417
     46  CE2      -12.2280  -24.8160   -5.3420 C.ar  152  TYR152      0.0417
     47  CZ       -10.9030  -24.4390   -5.1310 C.ar  152  TYR152      0.1957
     48  OH       -10.1730  -23.8380   -6.1580 O.3   152  TYR152     -0.2866
     49  N        -14.9750  -23.8310   -0.8880 N.am  153  LYS153     -0.1977
     50  CA       -15.4710  -22.5030   -1.2150 C.3   153  LYS153      0.1596
     51  C        -15.2710  -21.5300   -0.0870 C.2   153  LYS153      0.2287
     52  O        -15.1890  -20.3200   -0.3450 O.2   153  LYS153     -0.2864
     53  CB       -16.9710  -22.5930   -1.5920 C.3   153  LYS153      0.0298
     54  CG       -17.2040  -23.3870   -2.9050 C.3   153  LYS153      0.0038
     55  CD       -18.7640  -23.4110   -3.0530 C.3   153  LYS153      0.0206
     56  CE       -19.1670  -24.3630   -4.1440 C.3   153  LYS153      0.1093
     57  NZ       -20.6970  -24.4150   -4.1520 N.3   153  LYS153     -0.1314
     58  N         -5.1650  -23.6430   -4.1960 N.3   162  TRP162     -0.1227
     59  CA        -5.8160  -24.9460   -4.3070 C.3   162  TRP162      0.1737
     60  C         -5.9940  -25.5880   -2.9370 C.2   162  TRP162      0.2595
     61  O         -5.1760  -25.4060   -2.0210 O.2   162  TRP162     -0.2718
     62  CB        -4.9600  -25.8600   -5.1780 C.3   162  TRP162      0.0564
     63  CG        -5.4560  -27.2450   -5.3420 C.ar  162  TRP162      0.0003
     64  CD1       -4.8330  -28.3980   -4.9590 C.ar  162  TRP162      0.0946
     65  CD2       -6.7090  -27.6320   -5.9400 C.ar  162  TRP162      0.0152
     66  NE1       -5.6090  -29.4890   -5.3190 N.ar  162  TRP162     -0.2442
     67  CE2       -6.7600  -29.0470   -5.9110 C.ar  162  TRP162      0.0810
     68  CE3       -7.7740  -26.9170   -6.5070 C.ar  162  TRP162      0.0012
     69  CZ2       -7.8550  -29.7780   -6.4200 C.ar  162  TRP162      0.0191
     70  CZ3       -8.8510  -27.6240   -7.0170 C.ar  162  TRP162      0.0001
     71  CH2       -8.8850  -29.0520   -6.9640 C.ar  162  TRP162      0.0015
     72  N         -7.0830  -26.3450   -2.8020 N.am  163  LEU163     -0.1966
     73  CA        -7.2480  -27.2990   -1.7130 C.3   163  LEU163      0.1728
     74  C         -7.7170  -28.5990   -2.3540 C.2   163  LEU163      0.2617
     75  O         -8.8060  -28.6310   -2.9280 O.2   163  LEU163     -0.2715
     76  CB        -8.2740  -26.8100   -0.6870 C.3   163  LEU163      0.0311
     77  CG        -8.4860  -27.7030    0.5360 C.3   163  LEU163      0.0022
     78  CD1       -7.2860  -27.5950    1.4430 C.3   163  LEU163      0.0001
     79  CD2       -9.7050  -27.3160    1.3450 C.3   163  LEU163      0.0001
     80  N         -6.9250  -29.6720   -2.2310 N.am  164  GLY164     -0.1940
     81  CA        -7.3080  -30.9300   -2.8440 C.3   164  GLY164      0.2014
     82  C         -8.2950  -31.6850   -1.9580 C.2   164  GLY164      0.2638
     83  O         -8.4520  -31.4060   -0.7650 O.2   164  GLY164     -0.2714
     84  N         -8.9480  -32.7030   -2.5310 N.am  165  PHE165     -0.1973
     85  CA        -9.8650  -33.4940   -1.7100 C.3   165  PHE165      0.1639
     86  C         -9.1460  -34.2450   -0.6210 C.2   165  PHE165      0.2290
     87  O         -9.7400  -34.5340    0.4110 O.2   165  PHE165     -0.2864
     88  CB       -10.6630  -34.4970   -2.5440 C.3   165  PHE165      0.0560
     89  CG       -11.6490  -33.8470   -3.4250 C.ar  165  PHE165     -0.0200
     90  CD1      -12.9080  -33.4620   -2.9160 C.ar  165  PHE165     -0.0042
     91  CD2      -11.3180  -33.5380   -4.7470 C.ar  165  PHE165     -0.0042
     92  CE1      -13.8330  -32.7980   -3.6890 C.ar  165  PHE165     -0.0003
     93  CE2      -12.2500  -32.8590   -5.5510 C.ar  165  PHE165     -0.0003
     94  CZ       -13.5240  -32.5040   -5.0310 C.ar  165  PHE165     -0.0000
     95  N         -8.1420  -32.0240    3.1390 N.3   168  ALA168     -0.1245
     96  CA        -9.0380  -31.6660    4.2470 C.3   168  ALA168      0.1562
     97  C         -9.6630  -32.9340    4.7780 C.2   168  ALA168      0.2260
     98  O        -10.1770  -33.7540    4.0060 O.2   168  ALA168     -0.2867
     99  CB       -10.1710  -30.7140    3.8410 C.3   168  ALA168      0.0290
@<TRIPOS>BOND
     1    70    71   ar
     2    70    68   ar
     3    71    69   ar
     4    68    65   ar
     5    69    67   ar
     6    48    47    1
     7    65    67   ar
     8    65    63   ar
     9    67    66   ar
    10    11    10   ar
    11    11     9   ar
    12    93    94   ar
    13    93    91   ar
    14    28    27   ar
    15    63    62    1
    16    63    64   ar
    17    46    47   ar
    18    46    44   ar
    19    10     8   ar
    20    66    64   ar
    21    62    59    1
    22    47    45   ar
    23     9     7   ar
    24    94    92   ar
    25    91    89   ar
    26    27    29   ar
    27    27    26    1
    28    59    58    1
    29    59    60    1
    30    44    42   ar
    31     8     6   ar
    32    57    56    1
    33    56    55    1
    34    45    43   ar
    35     7     6   ar
    36    92    90   ar
    37    26    25    1
    38     6     5    1
    39    89    90   ar
    40    89    88    1
    41    55    54    1
    42    42    43   ar
    43    42    41    1
    44    60    72   am
    45    60    61    2
    46    75    74    2
    47    54    53    1
    48    81    80    1
    49    81    82    1
    50    72    73    1
    51    88    85    1
    52    25    22    1
    53    84    82   am
    54    84    85    1
    55    74    80   am
    56    74    73    1
    57     5     2    1
    58    82    83    2
    59    41    38    1
    60    73    76    1
    61    85    86    1
    62    53    50    1
    63    22    23    1
    64    22    21    1
    65    50    49    1
    66    50    51    1
    67    24    23    2
    68     4     3    2
    69    40    39    2
    70     2     3    1
    71     2     1    1
    72    49    39   am
    73    39    38    1
    74    21    14   am
    75    76    77    1
    76    86    87    2
    77    38    37    1
    78    52    51    2
    79    15    14    2
    80    16    17    1
    81    16    13    1
    82    14    13    1
    83    37    32   am
    84    77    79    1
    85    77    78    1
    86    17    18    1
    87    13    12    1
    88    18    19    1
    89    32    33    2
    90    32    31    1
    91    19    20    1
    92    30    31    1
    93    31    34    1
    94    34    36    1
    95    34    35    1
    96    95    96    1
    97    99    96    1
    98    98    97    2
    99    96    97    1
