@<TRIPOS>MOLECULE
tmp/6ct7B00.pdb
 87 86 0 0 0
SMALL
GASTEIGER

@<TRIPOS>ATOM
      1  N         15.3810   -8.2410   14.3280 N.3     2  VAL2       -0.1245
      2  CA        15.4540   -7.1270   15.2680 C.3     2  VAL2        0.1561
      3  C         14.3320   -7.2410   16.2950 C.2     2  VAL2        0.2260
      4  O         13.1970   -7.5790   15.9530 O.2     2  VAL2       -0.2867
      5  CB        15.3740   -5.7950   14.4970 C.3     2  VAL2        0.0252
      6  CG1       15.2680   -4.6190   15.4490 C.3     2  VAL2        0.0019
      7  CG2       16.5770   -5.6490   13.5640 C.3     2  VAL2        0.0019
      8  N         19.6470   -7.1930   17.6840 N.3    26  GLY26      -0.1210
      9  CA        19.5460   -7.4380   16.2640 C.3    26  GLY26       0.1956
     10  C         20.1180   -6.3690   15.3580 C.2    26  GLY26       0.2612
     11  O         20.0860   -6.5480   14.1350 O.2    26  GLY26      -0.2717
     12  N         20.6150   -5.2570   15.9000 N.am   27  PHE27      -0.1962
     13  CA        21.3490   -4.3090   15.0720 C.3    27  PHE27       0.1771
     14  C         22.4020   -3.5920   15.9140 C.2    27  PHE27       0.2619
     15  O         22.4550   -3.7290   17.1380 O.2    27  PHE27      -0.2715
     16  CB        20.4000   -3.3380   14.3470 C.3    27  PHE27       0.0574
     17  CG        19.5760   -2.4430   15.2540 C.ar   27  PHE27      -0.0200
     18  CD1       20.0360   -1.1870   15.6210 C.ar   27  PHE27      -0.0042
     19  CD2       18.3170   -2.8300   15.6740 C.ar   27  PHE27      -0.0042
     20  CE1       19.2720   -0.3580   16.4180 C.ar   27  PHE27      -0.0003
     21  CE2       17.5450   -1.9980   16.4740 C.ar   27  PHE27      -0.0003
     22  CZ        18.0240   -0.7620   16.8470 C.ar   27  PHE27      -0.0000
     23  N         23.2720   -2.8530   15.2230 N.am   28  ASP28      -0.1971
     24  CA        24.4390   -2.2020   15.8240 C.3    28  ASP28       0.1709
     25  C         23.9550   -1.0150   16.6570 C.2    28  ASP28       0.2293
     26  O         23.9440    0.1410   16.2190 O.2    28  ASP28      -0.2864
     27  CB        25.4170   -1.7910   14.7260 C.3    28  ASP28       0.1436
     28  CG        26.7650   -1.3070   15.2590 C.2    28  ASP28       0.3671
     29  OD1       27.0170   -1.3680   16.4790 O.co2  28  ASP28      -0.2456
     30  OD2       27.5940   -0.8880   14.4250 O.co2  28  ASP28      -0.2456
     31  N         25.7170    2.4920   16.9670 N.3    31  LYS31      -0.1231
     32  CA        25.5570    3.5010   15.9210 C.3    31  LYS31       0.1693
     33  C         24.1550    4.1070   15.8410 C.2    31  LYS31       0.2592
     34  O         23.9560    5.0550   15.0690 O.2    31  LYS31      -0.2718
     35  CB        25.8990    2.8950   14.5520 C.3    31  LYS31       0.0285
     36  CG        27.3660    2.5730   14.3350 C.3    31  LYS31       0.0035
     37  CD        27.6470    2.2550   12.8670 C.3    31  LYS31       0.0206
     38  CE        29.1280    2.0320   12.6280 C.3    31  LYS31       0.1093
     39  NZ        29.6640    0.9810   13.5300 N.3    31  LYS31      -0.1314
     40  N         23.1830    3.6130   16.6120 N.am   32  ALA32      -0.1966
     41  CA        21.7780    3.9590   16.3980 C.3    32  ALA32       0.1728
     42  C         21.3760    5.2490   17.1000 C.2    32  ALA32       0.2616
     43  O         21.7170    5.4810   18.2630 O.2    32  ALA32      -0.2715
     44  CB        20.8540    2.8450   16.8760 C.3    32  ALA32       0.0334
     45  N         20.6470    6.0850   16.3760 N.am   33  TRP33      -0.1974
     46  CA        19.9770    7.2370   16.9500 C.3    33  TRP33       0.1640
     47  C         18.6100    6.7600   17.4280 C.2    33  TRP33       0.2290
     48  O         17.7890    6.3140   16.6180 O.2    33  TRP33      -0.2864
     49  CB        19.8300    8.3580   15.9190 C.3    33  TRP33       0.0576
     50  CG        21.0810    9.0790   15.5820 C.ar   33  TRP33       0.0006
     51  CD1       22.3610    8.5890   15.6260 C.ar   33  TRP33       0.0946
     52  CD2       21.1870   10.4350   15.1440 C.ar   33  TRP33       0.0152
     53  NE1       23.2480    9.5560   15.2520 N.ar   33  TRP33      -0.2442
     54  CE2       22.5580   10.7010   14.9470 C.ar   33  TRP33       0.0810
     55  CE3       20.2560   11.4530   14.9010 C.ar   33  TRP33       0.0012
     56  CZ2       23.0240   11.9460   14.5110 C.ar   33  TRP33       0.0191
     57  CZ3       20.7160   12.6890   14.4690 C.ar   33  TRP33       0.0001
     58  CH2       22.0870   12.9270   14.2790 C.ar   33  TRP33       0.0015
     59  N         28.4130   10.4240   17.7750 N.3    56  ASP56      -0.1239
     60  CA        27.8970   11.7130   17.3250 C.3    56  ASP56       0.1674
     61  C         27.6150   12.6760   18.4760 C.2    56  ASP56       0.2266
     62  O         26.8240   13.6120   18.3060 O.2    56  ASP56      -0.2867
     63  CB        26.6160   11.5320   16.5000 C.3    56  ASP56       0.1410
     64  CG        26.8510   10.7940   15.1900 C.2    56  ASP56       0.3668
     65  OD1       27.9800   10.8490   14.6640 O.co2  56  ASP56      -0.2456
     66  OD2       25.8900   10.1910   14.6700 O.co2  56  ASP56      -0.2456
     67  N         13.8840    2.9090   16.5040 N.3   100  SER100     -0.1202
     68  CA        14.9360    3.3350   15.5740 C.3   100  SER100      0.2020
     69  C         14.6380    2.6340   14.2390 C.2   100  SER100      0.2619
     70  O         15.2900    1.6570   13.8670 O.2   100  SER100     -0.2717
     71  CB        16.3320    2.9960   16.0980 C.3   100  SER100      0.2103
     72  OG        17.3460    3.6830   15.3690 O.3   100  SER100     -0.2182
     73  N         13.6350    3.1630   13.5190 N.am  101  ALA101     -0.1965
     74  CA        13.0140    2.5620   12.3310 C.3   101  ALA101      0.1728
     75  C         12.1940    1.3320   12.7080 C.2   101  ALA101      0.2616
     76  O         11.0410    1.2130   12.2840 O.2   101  ALA101     -0.2715
     77  CB        14.0260    2.1860   11.2410 C.3   101  ALA101      0.0334
     78  N         12.7780    0.4040   13.4680 N.am  102  HIS102     -0.1973
     79  CA        11.9920   -0.6610   14.0820 C.3   102  HIS102      0.1656
     80  C         11.3200   -0.1500   15.3550 C.2   102  HIS102      0.2291
     81  O         11.6650    0.9070   15.8860 O.2   102  HIS102     -0.2864
     82  CB        12.8600   -1.8660   14.4070 C.3   102  HIS102      0.0771
     83  CG        13.6390   -2.3800   13.2430 C.ar  102  HIS102      0.0820
     84  ND1       13.0650   -3.1040   12.2190 N.ar  102  HIS102     -0.2267
     85  CD2       14.9540   -2.2710   12.9380 C.ar  102  HIS102      0.1154
     86  CE1       13.9940   -3.4180   11.3330 C.ar  102  HIS102      0.1986
     87  NE2       15.1480   -2.9230   11.7460 N.ar  102  HIS102     -0.2212
@<TRIPOS>BOND
     1    77    74    1
     2    86    87   ar
     3    86    84   ar
     4    87    85   ar
     5    84    83   ar
     6    76    75    2
     7    74    75    1
     8    74    73    1
     9    38    37    1
    10    38    39    1
    11    75    78   am
    12    37    36    1
    13    85    83   ar
    14    83    82    1
    15    78    79    1
    16    73    69   am
    17     7     5    1
    18    70    69    2
    19    79    82    1
    20    79    80    1
    21    11    10    2
    22    69    68    1
    23    58    57   ar
    24    58    56   ar
    25     1     2    1
    26    36    35    1
    27    16    13    1
    28    16    17    1
    29    30    28   ar
    30    57    55   ar
    31     5     2    1
    32     5     6    1
    33    56    54   ar
    34    35    32    1
    35    65    64   ar
    36    66    64   ar
    37    27    28    1
    38    27    24    1
    39    55    52   ar
    40    54    52   ar
    41    54    53   ar
    42    34    33    2
    43    13    12    1
    44    13    14    1
    45    52    50   ar
    46    64    63    1
    47    23    24    1
    48    23    14   am
    49    53    51   ar
    50    17    18   ar
    51    17    19   ar
    52    28    29   ar
    53     2     3    1
    54    80    81    2
    55    10    12   am
    56    10     9    1
    57    72    71    1
    58    68    71    1
    59    68    67    1
    60    50    51   ar
    61    50    49    1
    62    18    20   ar
    63    19    21   ar
    64    24    25    1
    65    33    32    1
    66    33    40   am
    67    14    15    2
    68    49    46    1
    69    32    31    1
    70     4     3    2
    71    26    25    2
    72     9     8    1
    73    45    46    1
    74    45    42   am
    75    41    40    1
    76    41    44    1
    77    41    42    1
    78    20    22   ar
    79    21    22   ar
    80    63    60    1
    81    48    47    2
    82    46    47    1
    83    42    43    2
    84    60    59    1
    85    60    61    1
    86    62    61    2
