@<TRIPOS>MOLECULE
tmp/6ct7E01.pdb
 96 95 0 0 0
SMALL
GASTEIGER

@<TRIPOS>ATOM
      1  N          5.5300   -9.3320   21.1930 N.3     1  GLU1       -0.1231
      2  CA         4.9920   -9.4830   22.5420 C.3     1  GLU1        0.1699
      3  C          5.6570  -10.6400   23.2990 C.2     1  GLU1        0.2592
      4  O          6.0110  -10.5050   24.4680 O.2     1  GLU1       -0.2718
      5  CB         3.4740   -9.6910   22.4940 C.3     1  GLU1        0.0402
      6  CG         3.0020  -10.8270   21.5780 C.3     1  GLU1        0.1161
      7  CD         1.5570  -11.2240   21.8380 C.2     1  GLU1        0.3649
      8  OE1        1.1690  -11.3300   23.0270 O.co2   1  GLU1       -0.2457
      9  OE2        0.8090  -11.4230   20.8540 O.co2   1  GLU1       -0.2457
     10  N          5.8650  -11.7490   22.6170 N.am    2  VAL2       -0.1980
     11  CA         6.5020  -12.8930   23.2170 C.3     2  VAL2        0.1595
     12  C          7.9690  -12.8720   22.8300 C.2     2  VAL2        0.2287
     13  O          8.2960  -12.6280   21.6870 O.2     2  VAL2       -0.2864
     14  CB         5.8720  -14.2010   22.7090 C.3     2  VAL2        0.0276
     15  CG1        6.7450  -15.3950   23.0160 C.3     2  VAL2        0.0022
     16  CG2        4.5010  -14.4120   23.3100 C.3     2  VAL2        0.0022
     17  N          6.6900  -12.9400   28.0410 N.3    26  GLY26      -0.1210
     18  CA         5.4860  -12.7500   27.2690 C.3    26  GLY26       0.1956
     19  C          4.4890  -13.8940   27.3010 C.2    26  GLY26       0.2612
     20  O          3.4310  -13.7730   26.6740 O.2    26  GLY26      -0.2717
     21  N          4.7760  -15.0000   27.9940 N.am   27  PHE27      -0.1962
     22  CA         3.7300  -15.9960   28.2110 C.3    27  PHE27       0.1771
     23  C          3.9610  -16.7570   29.5100 C.2    27  PHE27       0.2619
     24  O          5.0110  -16.6470   30.1560 O.2    27  PHE27      -0.2715
     25  CB         3.5800  -16.9550   27.0140 C.3    27  PHE27       0.0574
     26  CG         4.7790  -17.8450   26.7500 C.ar   27  PHE27      -0.0200
     27  CD1        4.9080  -19.0750   27.3880 C.ar   27  PHE27      -0.0042
     28  CD2        5.7320  -17.4850   25.8130 C.ar   27  PHE27      -0.0042
     29  CE1        5.9800  -19.9070   27.1200 C.ar   27  PHE27      -0.0003
     30  CE2        6.8110  -18.3100   25.5410 C.ar   27  PHE27      -0.0003
     31  CZ         6.9410  -19.5150   26.1970 C.ar   27  PHE27      -0.0000
     32  N          2.9270  -17.5030   29.9110 N.am   28  ASP28      -0.1971
     33  CA         2.9160  -18.2500   31.1710 C.3    28  ASP28       0.1709
     34  C          3.8930  -19.4250   31.0940 C.2    28  ASP28       0.2293
     35  O          3.5270  -20.5770   30.8320 O.2    28  ASP28      -0.2864
     36  CB         1.5050  -18.7310   31.4970 C.3    28  ASP28       0.1436
     37  CG         1.3710  -19.1720   32.9430 C.2    28  ASP28       0.3671
     38  OD1        2.4020  -19.1920   33.6520 O.co2  28  ASP28      -0.2456
     39  OD2        0.2420  -19.4750   33.3800 O.co2  28  ASP28      -0.2456
     40  N          3.3990  -22.9370   32.8280 N.3    31  LYS31      -0.1231
     41  CA         2.5930  -23.9820   32.1930 C.3    31  LYS31       0.1693
     42  C          3.1960  -24.5270   30.8970 C.2    31  LYS31       0.2592
     43  O          2.6410  -25.4820   30.3350 O.2    31  LYS31      -0.2718
     44  CB         1.1720  -23.4670   31.8890 C.3    31  LYS31       0.0285
     45  CG         0.2960  -23.0720   33.1050 C.3    31  LYS31       0.0035
     46  CD        -0.9920  -22.3770   32.6310 C.3    31  LYS31       0.0206
     47  CE        -2.0100  -22.1390   33.7460 C.3    31  LYS31       0.1093
     48  NZ        -1.4100  -21.5930   34.9880 N.3    31  LYS31      -0.1314
     49  N          4.3070  -23.9540   30.4110 N.am   32  ALA32      -0.1966
     50  CA         4.8250  -24.2520   29.0790 C.3    32  ALA32       0.1728
     51  C          5.6770  -25.5160   29.0530 C.2    32  ALA32       0.2616
     52  O          6.5880  -25.6930   29.8750 O.2    32  ALA32      -0.2715
     53  CB         5.6570  -23.0790   28.5480 C.3    32  ALA32       0.0334
     54  N          5.4460  -26.3310   28.0400 N.am   33  TRP33      -0.1974
     55  CA         6.2690  -27.4800   27.7760 C.3    33  TRP33       0.1640
     56  C          7.2570  -26.8840   26.7730 C.2    33  TRP33       0.2290
     57  O          6.9010  -26.5340   25.6750 O.2    33  TRP33      -0.2864
     58  CB         5.4810  -28.6070   27.1360 C.3    33  TRP33       0.0576
     59  CG         4.6530  -29.3850   28.0680 C.ar   33  TRP33       0.0006
     60  CD1        4.1150  -28.9470   29.2120 C.ar   33  TRP33       0.0946
     61  CD2        4.2380  -30.7410   27.9230 C.ar   33  TRP33       0.0152
     62  NE1        3.3990  -29.9360   29.8140 N.ar   33  TRP33      -0.2442
     63  CE2        3.4530  -31.0540   29.0390 C.ar   33  TRP33       0.0810
     64  CE3        4.4620  -31.7230   26.9650 C.ar   33  TRP33       0.0012
     65  CZ2        2.9050  -32.3090   29.2370 C.ar   33  TRP33       0.0191
     66  CZ3        3.9120  -32.9630   27.1550 C.ar   33  TRP33       0.0001
     67  CH2        3.1380  -33.2480   28.2800 C.ar   33  TRP33       0.0015
     68  N          3.3410  -30.9980   35.6100 N.3    56  ASP56      -0.1239
     69  CA         3.2610  -32.2780   34.9180 C.3    56  ASP56       0.1674
     70  C          4.4830  -33.1640   35.1830 C.2    56  ASP56       0.2266
     71  O          4.7360  -34.1110   34.4270 O.2    56  ASP56      -0.2867
     72  CB         3.0770  -32.0460   33.4130 C.3    56  ASP56       0.1410
     73  CG         1.6840  -31.5020   33.0530 C.2    56  ASP56       0.3668
     74  OD1        0.7110  -31.7570   33.8020 O.co2  56  ASP56      -0.2456
     75  OD2        1.5500  -30.8180   32.0070 O.co2  56  ASP56      -0.2456
     76  N          8.4610  -22.9060   22.1770 N.3   100  SER100     -0.1202
     77  CA         7.1770  -23.3830   22.7010 C.3   100  SER100      0.2020
     78  C          6.0960  -22.6800   21.8730 C.2   100  SER100      0.2619
     79  O          5.5200  -21.6620   22.2780 O.2   100  SER100     -0.2717
     80  CB         7.0380  -23.1280   24.2030 C.3   100  SER100      0.2103
     81  OG         6.0800  -23.9990   24.7760 O.3   100  SER100     -0.2182
     82  N          5.8540  -23.2260   20.6680 N.am  101  ALA101     -0.1965
     83  CA         5.0650  -22.6260   19.5840 C.3   101  ALA101      0.1728
     84  C          5.7460  -21.3820   19.0180 C.2   101  ALA101      0.2616
     85  O          5.8890  -21.2540   17.7950 O.2   101  ALA101     -0.2715
     86  CB         3.6280  -22.2850   20.0150 C.3   101  ALA101      0.0334
     87  N          6.1500  -20.4510   19.8810 N.am  102  HIS102     -0.1973
     88  CA         6.9680  -19.3360   19.4230 C.3   102  HIS102      0.1656
     89  C          8.4380  -19.7530   19.4440 C.2   102  HIS102      0.2291
     90  O          8.8030  -20.7990   19.9910 O.2   102  HIS102     -0.2864
     91  CB         6.7110  -18.0910   20.2710 C.3   102  HIS102      0.0771
     92  CG         5.2600  -17.7570   20.4000 C.ar  102  HIS102      0.0820
     93  ND1        4.5280  -17.2180   19.3660 N.ar  102  HIS102     -0.2267
     94  CD2        4.3890  -17.9420   21.4210 C.ar  102  HIS102      0.1154
     95  CE1        3.2760  -17.0590   19.7520 C.ar  102  HIS102      0.1986
     96  NE2        3.1680  -17.4840   20.9980 N.ar  102  HIS102     -0.2212
@<TRIPOS>BOND
     1    85    84    2
     2    84    83    1
     3    84    87   am
     4    93    95   ar
     5    93    92   ar
     6    88    89    1
     7    88    87    1
     8    88    91    1
     9    89    90    2
    10    83    86    1
    11    83    82    1
    12    95    96   ar
    13    91    92    1
    14    92    94   ar
    15    82    78   am
    16     9     7   ar
    17    96    94   ar
    18     1     2    1
    19     6     7    1
    20     6     5    1
    21    13    12    2
    22     7     8   ar
    23    78    79    2
    24    78    77    1
    25    76    77    1
    26     5     2    1
    27     2     3    1
    28    10    11    1
    29    10     3   am
    30    77    80    1
    31    14    15    1
    32    14    11    1
    33    14    16    1
    34    12    11    1
    35     3     4    2
    36    80    81    1
    37    30    28   ar
    38    30    31   ar
    39    57    56    2
    40    28    26   ar
    41    31    29   ar
    42    20    19    2
    43    26    25    1
    44    26    27   ar
    45    56    55    1
    46    64    66   ar
    47    64    61   ar
    48    25    22    1
    49    29    27   ar
    50    58    55    1
    51    58    59    1
    52    66    67   ar
    53    18    19    1
    54    18    17    1
    55    19    21   am
    56    55    54    1
    57    61    59   ar
    58    61    63   ar
    59    21    22    1
    60    54    51   am
    61    59    60   ar
    62    22    23    1
    63    67    65   ar
    64    53    50    1
    65    63    65   ar
    66    63    62   ar
    67    51    50    1
    68    51    52    2
    69    50    49    1
    70    60    62   ar
    71    23    32   am
    72    23    24    2
    73    32    33    1
    74    43    42    2
    75    49    42   am
    76    35    34    2
    77    42    41    1
    78    34    33    1
    79    33    36    1
    80    36    37    1
    81    44    41    1
    82    44    45    1
    83    75    73   ar
    84    41    40    1
    85    46    45    1
    86    46    47    1
    87    37    39   ar
    88    37    38   ar
    89    73    72    1
    90    73    74   ar
    91    72    69    1
    92    47    48    1
    93    71    70    2
    94    69    70    1
    95    69    68    1
