@<TRIPOS>MOLECULE
tmp/6ct7D00.pdb
 171 167 0 0 0
SMALL
GASTEIGER

@<TRIPOS>ATOM
      1  N         -1.6210  -38.6370   14.1380 N.3    27  LEU27      -0.1231
      2  CA        -2.4450  -37.4370   14.0260 C.3    27  LEU27       0.1678
      3  C         -3.8820  -37.5730   14.5330 C.2    27  LEU27       0.2434
      4  O         -4.4400  -36.5450   14.9550 O.2    27  LEU27      -0.2733
      5  CB        -2.4410  -36.9660   12.5670 C.3    27  LEU27       0.0284
      6  CG        -1.0400  -36.5590   12.0860 C.3    27  LEU27       0.0019
      7  CD1       -1.1310  -36.0430   10.6620 C.3    27  LEU27       0.0001
      8  CD2       -0.4000  -35.5210   13.0300 C.3    27  LEU27       0.0001
      9  N         -4.5380  -38.7410   14.5220 N.am   28  PRO28      -0.2718
     10  CA        -5.8610  -38.8030   15.1600 C.3    28  PRO28       0.1535
     11  C         -5.8000  -38.6150   16.6630 C.2    28  PRO28       0.2598
     12  O         -6.8080  -38.2110   17.2520 O.2    28  PRO28      -0.2715
     13  CB        -6.3830  -40.2000   14.7830 C.3    28  PRO28       0.0310
     14  CG        -5.6110  -40.5820   13.5620 C.3    28  PRO28       0.0237
     15  CD        -4.2430  -39.9890   13.7890 C.3    28  PRO28       0.0939
     16  N         -4.6460  -38.8640   17.2940 N.am   29  MET29      -0.1964
     17  CA        -4.5010  -38.7460   18.7380 C.3    29  MET29       0.1736
     18  C         -3.8210  -37.4630   19.1850 C.2    29  MET29       0.2616
     19  O         -3.9720  -37.0820   20.3500 O.2    29  MET29      -0.2715
     20  CB        -3.6850  -39.9130   19.3120 C.3    29  MET29       0.0427
     21  CG        -4.0850  -41.2910   18.8120 C.3    29  MET29       0.0599
     22  SD        -2.8740  -42.5320   19.3040 S.3    29  MET29      -0.1393
     23  CE        -2.6810  -43.4500   17.7730 C.3    29  MET29       0.0692
     24  N         -3.0530  -36.8150   18.3150 N.am   30  GLN30      -0.1963
     25  CA        -2.2160  -35.7020   18.7170 C.3    30  GLN30       0.1733
     26  C         -2.3920  -34.5080   17.7870 C.2    30  GLN30       0.2616
     27  O         -2.5800  -34.6540   16.5770 O.2    30  GLN30      -0.2715
     28  CB        -0.7370  -36.0970   18.7320 C.3    30  GLN30       0.0408
     29  CG        -0.4580  -37.4200   19.4220 C.3    30  GLN30       0.0908
     30  CD        -0.4830  -37.3120   20.9330 C.2    30  GLN30       0.2608
     31  OE1       -0.5730  -36.2130   21.4930 O.2    30  GLN30      -0.2717
     32  NE2       -0.4040  -38.4660   21.6080 N.am   30  GLN30      -0.0878
     33  N         -2.2700  -33.3200   18.3760 N.am   31  PHE31      -0.1974
     34  CA        -2.3670  -32.0840   17.6230 C.3    31  PHE31       0.1639
     35  C         -1.1640  -31.8790   16.7230 C.2    31  PHE31       0.2290
     36  O         -0.0320  -32.2530   17.0630 O.2    31  PHE31      -0.2864
     37  CB        -2.5140  -30.8990   18.5840 C.3    31  PHE31       0.0560
     38  CG        -3.8090  -30.9320   19.3520 C.ar   31  PHE31      -0.0200
     39  CD1       -5.0130  -30.7370   18.6970 C.ar   31  PHE31      -0.0042
     40  CD2       -3.8250  -31.2000   20.7080 C.ar   31  PHE31      -0.0042
     41  CE1       -6.2270  -30.7760   19.4000 C.ar   31  PHE31      -0.0003
     42  CE2       -5.0340  -31.2450   21.4190 C.ar   31  PHE31      -0.0003
     43  CZ        -6.2290  -31.0290   20.7640 C.ar   31  PHE31      -0.0000
     44  N          0.8680  -28.8110   14.5540 N.3    33  HIS33      -0.1241
     45  CA         1.1470  -27.3750   14.5240 C.3    33  HIS33       0.1621
     46  C          1.9810  -27.0690   13.2890 C.2    33  HIS33       0.2264
     47  O          2.7430  -27.9240   12.8280 O.2    33  HIS33      -0.2867
     48  CB         1.8950  -26.9530   15.7990 C.3    33  HIS33       0.0745
     49  CG         1.3870  -27.6310   17.0250 C.ar   33  HIS33       0.0817
     50  ND1        0.4280  -27.0650   17.8390 N.ar   33  HIS33      -0.2268
     51  CD2        1.6610  -28.8460   17.5540 C.ar   33  HIS33       0.1154
     52  CE1        0.1500  -27.8930   18.8280 C.ar   33  HIS33       0.1986
     53  NE2        0.8750  -28.9860   18.6730 N.ar   33  HIS33      -0.2212
     54  N          4.4900  -24.1860   11.1340 N.3    35  TYR35      -0.1241
     55  CA         5.3990  -23.0570   11.2140 C.3    35  TYR35       0.1605
     56  C          5.8080  -22.6150    9.8210 C.2    35  TYR35       0.2264
     57  O          6.0920  -23.4420    8.9430 O.2    35  TYR35      -0.2867
     58  CB         6.6540  -23.3910   12.0340 C.3    35  TYR35       0.0534
     59  CG         6.3150  -24.0070   13.3570 C.ar   35  TYR35      -0.0201
     60  CD1        5.9930  -23.2130   14.4560 C.ar   35  TYR35      -0.0009
     61  CD2        6.3020  -25.3860   13.5110 C.ar   35  TYR35      -0.0009
     62  CE1        5.6710  -23.7820   15.6720 C.ar   35  TYR35       0.0417
     63  CE2        5.9940  -25.9590   14.7250 C.ar   35  TYR35       0.0417
     64  CZ         5.6790  -25.1480   15.7980 C.ar   35  TYR35       0.1957
     65  OH         5.3610  -25.7040   17.0020 O.3    35  TYR35      -0.2866
     66  N          4.8190  -19.5360   14.2670 N.3    45  ILE45      -0.1245
     67  CA         3.6930  -20.4630   14.1820 C.3    45  ILE45       0.1561
     68  C          2.5630  -19.8040   13.4000 C.2    45  ILE45       0.2260
     69  O          2.2620  -18.6120   13.5840 O.2    45  ILE45      -0.2867
     70  CB         3.2390  -20.9260   15.5800 C.3    45  ILE45       0.0252
     71  CG1        2.1790  -22.0210   15.4550 C.3    45  ILE45       0.0019
     72  CG2        2.7030  -19.7730   16.4450 C.3    45  ILE45       0.0019
     73  CD1        2.1010  -22.9180   16.6720 C.3    45  ILE45       0.0001
     74  N         -1.9140  -23.5670   15.2480 N.3    48  TYR48      -0.1227
     75  CA        -1.7700  -24.1450   16.5740 C.3    48  TYR48       0.1736
     76  C         -2.9060  -25.1390   16.8230 C.2    48  TYR48       0.2595
     77  O         -4.0600  -24.8880   16.4560 O.2    48  TYR48      -0.2718
     78  CB        -1.7570  -23.0090   17.6190 C.3    48  TYR48       0.0548
     79  CG        -1.8000  -23.4320   19.0650 C.ar   48  TYR48      -0.0200
     80  CD1       -0.7910  -24.2090   19.6180 C.ar   48  TYR48      -0.0009
     81  CD2       -2.8490  -23.0390   19.8790 C.ar   48  TYR48      -0.0009
     82  CE1       -0.8320  -24.5910   20.9410 C.ar   48  TYR48       0.0417
     83  CE2       -2.9050  -23.4170   21.1970 C.ar   48  TYR48       0.0417
     84  CZ        -1.8900  -24.1850   21.7280 C.ar   48  TYR48       0.1957
     85  OH        -1.9600  -24.5580   23.0420 O.3    48  TYR48      -0.2866
     86  N         -2.5680  -26.2930   17.3900 N.am   49  LYS49      -0.1966
     87  CA        -3.5520  -27.3250   17.7420 C.3    49  LYS49       0.1728
     88  C         -4.5390  -27.6210   16.6040 C.2    49  LYS49       0.2616
     89  O         -5.7530  -27.4440   16.7410 O.2    49  LYS49      -0.2715
     90  CB        -4.3070  -26.9290   19.0150 C.3    49  LYS49       0.0311
     91  CG        -3.6610  -27.4740   20.2800 C.3    49  LYS49       0.0038
     92  CD        -4.1430  -26.7460   21.5370 C.3    49  LYS49       0.0206
     93  CE        -5.6430  -26.6060   21.5620 C.3    49  LYS49       0.1093
     94  NZ        -6.2070  -26.6730   22.9350 N.3    49  LYS49      -0.1314
     95  N         -3.9910  -28.1010   15.4830 N.am   50  ASP50      -0.1971
     96  CA        -4.7240  -28.5350   14.2830 C.3    50  ASP50       0.1709
     97  C         -5.3130  -27.4140   13.4400 C.2    50  ASP50       0.2293
     98  O         -5.1140  -27.4050   12.2130 O.2    50  ASP50      -0.2864
     99  CB        -5.8680  -29.5120   14.6130 C.3    50  ASP50       0.1436
    100  CG        -5.3780  -30.9400   14.8360 C.2    50  ASP50       0.3671
    101  OD1       -4.1530  -31.1790   14.7270 O.co2  50  ASP50      -0.2456
    102  OD2       -6.2250  -31.8150   15.1240 O.co2  50  ASP50      -0.2456
    103  N         -5.9970  -20.2750   14.7740 N.3    53  ARG53      -0.1231
    104  CA        -5.1450  -19.2580   14.1570 C.3    53  ARG53       0.1679
    105  C         -4.5370  -18.3560   15.2150 C.2    53  ARG53       0.2434
    106  O         -5.2800  -17.6320   15.8950 O.2    53  ARG53      -0.2733
    107  CB        -5.9390  -18.4270   13.1610 C.3    53  ARG53       0.0321
    108  CG        -5.1420  -17.3240   12.4620 C.3    53  ARG53       0.0489
    109  CD        -6.0120  -16.6560   11.4060 C.3    53  ARG53       0.2205
    110  NE        -6.5100  -17.6370   10.4410 N.pl3  53  ARG53      -0.0865
    111  CZ        -7.7770  -18.0200   10.3150 C.cat  53  ARG53       0.5346
    112  NH1       -8.7380  -17.5170   11.0940 N.pl3  53  ARG53       0.1354
    113  NH2       -8.0860  -18.9230    9.3980 N.pl3  53  ARG53       0.1354
    114  N         -3.2120  -18.3410   15.3730 N.am   54  PRO54      -0.2718
    115  CA        -2.5930  -17.4760   16.3830 C.3    54  PRO54       0.1535
    116  C         -2.7590  -16.0110   16.0150 C.2    54  PRO54       0.2599
    117  O         -2.9160  -15.6560   14.8440 O.2    54  PRO54      -0.2715
    118  CB        -1.1130  -17.8860   16.3570 C.3    54  PRO54       0.0310
    119  CG        -1.0380  -19.1100   15.4340 C.3    54  PRO54       0.0237
    120  CD        -2.2160  -19.0240   14.5360 C.3    54  PRO54       0.0939
    121  N         -2.7410  -15.1650   17.0440 N.am   55  SER55      -0.1950
    122  CA        -2.9350  -13.7350   16.8560 C.3    55  SER55       0.1924
    123  C         -1.8880  -13.1730   15.9090 C.2    55  SER55       0.2314
    124  O         -0.7070  -13.5170   15.9910 O.2    55  SER55      -0.2863
    125  CB        -2.8720  -13.0190   18.2100 C.3    55  SER55       0.2116
    126  OG        -2.3120  -11.7200   18.0830 O.3    55  SER55      -0.2180
    127  N         -7.3210  -31.0620   10.1900 N.3    65  SER65      -0.1202
    128  CA        -6.6730  -32.3470   10.3850 C.3    65  SER65       0.2020
    129  C         -7.7510  -33.4000   10.5470 C.2    65  SER65       0.2619
    130  O         -8.6710  -33.2300   11.3440 O.2    65  SER65      -0.2717
    131  CB        -5.7430  -32.3200   11.6090 C.3    65  SER65       0.2103
    132  OG        -5.3400  -33.6350   11.9520 O.3    65  SER65      -0.2182
    133  N         -7.6460  -34.4680    9.7750 N.am   66  SER66      -0.1951
    134  CA        -8.5960  -35.5570    9.8780 C.3    66  SER66       0.1924
    135  C         -7.8640  -36.8220    9.4800 C.2    66  SER66       0.2314
    136  O         -7.0290  -36.7940    8.5770 O.2    66  SER66      -0.2863
    137  CB        -9.8220  -35.3230    8.9870 C.3    66  SER66       0.2116
    138  OG       -10.7880  -36.3310    9.2100 O.3    66  SER66      -0.2180
    139  N          4.6160  -30.1020   12.9810 N.3    88  GLN88      -0.1245
    140  CA         5.2020  -30.6800   14.1850 C.3    88  GLN88       0.1566
    141  C          4.1030  -31.4290   14.9210 C.2    88  GLN88       0.2260
    142  O          2.9890  -30.9190   15.0640 O.2    88  GLN88      -0.2867
    143  CB         5.8330  -29.6010   15.0870 C.3    88  GLN88       0.0367
    144  CG         6.3660  -30.1260   16.4510 C.3    88  GLN88       0.0905
    145  CD         6.4970  -29.0310   17.5070 C.2    88  GLN88       0.2608
    146  OE1        6.2730  -27.8570   17.2230 O.2    88  GLN88      -0.2717
    147  NE2        6.8420  -29.4190   18.7370 N.am   88  GLN88      -0.0878
    148  N          3.7080  -34.6850   18.1790 N.3    90  PRO90      -0.2116
    149  CA         4.3900  -35.6910   19.0060 C.3    90  PRO90       0.1372
    150  C          3.9810  -37.1050   18.6000 C.2    90  PRO90       0.2244
    151  O          3.0450  -37.3060   17.8370 O.2    90  PRO90      -0.2868
    152  CB         3.9180  -35.3700   20.4280 C.3    90  PRO90       0.0268
    153  CG         2.5680  -34.7310   20.2460 C.3    90  PRO90       0.0207
    154  CD         2.6160  -34.0080   18.9020 C.3    90  PRO90       0.0892
    155  N          2.9570  -39.2480   23.0780 N.3    94  ASN94      -0.1240
    156  CA         3.3090  -37.8900   23.5200 C.3    94  ASN94       0.1653
    157  C          4.5470  -37.9050   24.4200 C.2    94  ASN94       0.2266
    158  O          4.5890  -37.2720   25.4760 O.2    94  ASN94      -0.2867
    159  CB         2.1320  -37.2080   24.2300 C.3    94  ASN94       0.1155
    160  CG         2.3330  -35.7150   24.3790 C.2    94  ASN94       0.2627
    161  OD1        3.1460  -35.1240   23.6690 O.2    94  ASN94      -0.2716
    162  ND2        1.6210  -35.1030   25.3240 N.am   94  ASN94      -0.0877
    163  N          8.7440  -35.1560   20.3900 N.3    97  GLU97      -0.1245
    164  CA         8.2140  -34.3040   19.3350 C.3    97  GLU97       0.1567
    165  C          8.8470  -34.6890   18.0030 C.2    97  GLU97       0.2260
    166  O         10.0400  -34.9900   17.9410 O.2    97  GLU97      -0.2867
    167  CB         8.4930  -32.8290   19.6510 C.3    97  GLU97       0.0388
    168  CG         7.9630  -32.3510   21.0270 C.3    97  GLU97       0.1160
    169  CD         6.4470  -32.2430   21.0800 C.2    97  GLU97       0.3649
    170  OE1        5.8150  -32.1450   20.0030 O.co2  97  GLU97      -0.2457
    171  OE2        5.8790  -32.2550   22.1980 O.co2  97  GLU97      -0.2457
@<TRIPOS>BOND
     1   136   135    2
     2    57    56    2
     3   137   138    1
     4   137   134    1
     5   113   111    1
     6   135   134    1
     7   133   134    1
     8   133   129   am
     9    56    55    1
    10   127   128    1
    11   111   110    2
    12   111   112    1
    13   128   129    1
    14   128   131    1
    15   110   109    1
    16   129   130    2
    17     7     6    1
    18    54    55    1
    19    55    58    1
    20   109   108    1
    21   131   132    1
    22    58    59    1
    23     6     5    1
    24     6     8    1
    25    98    97    2
    26   108   107    1
    27     5     2    1
    28    47    46    2
    29   139   140    1
    30   107   104    1
    31    46    45    1
    32    59    61   ar
    33    59    60   ar
    34    68    69    2
    35    68    67    1
    36    97    96    1
    37    61    63   ar
    38    14    15    1
    39    14    13    1
    40    15     9    1
    41     2     1    1
    42     2     3    1
    43   104   103    1
    44   104   105    1
    45    67    66    1
    46    67    70    1
    47   140   141    1
    48   140   143    1
    49    96    99    1
    50    96    95    1
    51    60    62   ar
    52     9     3   am
    53     9    10    1
    54    45    44    1
    55    45    48    1
    56     3     4    2
    57   120   114    1
    58   120   119    1
    59    99   100    1
    60    63    64   ar
    61   101   100   ar
    62    13    10    1
    63   100   102   ar
    64   117   116    2
    65   141   142    2
    66   143   144    1
    67    10    11    1
    68   105   114   am
    69   105   106    2
    70    74    75    1
    71   114   115    1
    72   119   118    1
    73    71    70    1
    74    71    73    1
    75    95    88   am
    76    70    72    1
    77    62    64   ar
    78    64    65    1
    79    48    49    1
    80   123   124    2
    81   123   122    1
    82   116   115    1
    83   116   121   am
    84   118   115    1
    85   144   145    1
    86    77    76    2
    87    75    76    1
    88    75    78    1
    89    27    26    2
    90    88    89    2
    91    88    87    1
    92    11    12    2
    93    11    16   am
    94    35    36    2
    95    35    34    1
    96    76    86   am
    97   122   121    1
    98   122   125    1
    99    49    51   ar
   100    49    50   ar
   101   146   145    2
   102    16    17    1
   103    86    87    1
   104   145   147   am
   105    51    53   ar
   106    78    79    1
   107    34    33    1
   108    34    37    1
   109    87    90    1
   110    23    22    1
   111    26    33   am
   112    26    25    1
   113   151   150    2
   114    50    52   ar
   115   166   165    2
   116   165   164    1
   117   126   125    1
   118   148   154    1
   119   148   149    1
   120    24    25    1
   121    24    18   am
   122    37    38    1
   123   150   149    1
   124    53    52   ar
   125    39    38   ar
   126    39    41   ar
   127    25    28    1
   128    28    29    1
   129    17    18    1
   130    17    20    1
   131    21    22    1
   132    21    20    1
   133   154   153    1
   134   149   152    1
   135    90    91    1
   136    79    80   ar
   137    79    81   ar
   138    18    19    2
   139   164   167    1
   140   164   163    1
   141    38    40   ar
   142    41    43   ar
   143    29    30    1
   144    80    82   ar
   145   167   168    1
   146    81    83   ar
   147   170   169   ar
   148   153   152    1
   149    91    92    1
   150    40    42   ar
   151    43    42   ar
   152    30    31    2
   153    30    32   am
   154    82    84   ar
   155   168   169    1
   156   169   171   ar
   157    83    84   ar
   158    92    93    1
   159    93    94    1
   160    84    85    1
   161   155   156    1
   162   156   159    1
   163   156   157    1
   164   161   160    2
   165   159   160    1
   166   160   162   am
   167   157   158    2
