@<TRIPOS>MOLECULE
tmp/6ctaA00.pdb
 215 203 0 0 0
SMALL
GASTEIGER

@<TRIPOS>ATOM
      1  N         18.7070  -38.6300    2.0710 N.3    51  THR51      -0.1203
      2  CA        20.0920  -38.8890    1.7070 C.3    51  THR51       0.1994
      3  C         20.6070  -37.7510    0.8340 C.2    51  THR51       0.2618
      4  O         19.8770  -36.8190    0.4910 O.2    51  THR51      -0.2717
      5  CB        20.2290  -40.2310    0.9740 C.3    51  THR51       0.1784
      6  OG1       19.6400  -40.1290   -0.3300 O.3    51  THR51      -0.2211
      7  CG2       19.5250  -41.3350    1.7460 C.3    51  THR51       0.0376
      8  N         21.8850  -37.8250    0.4790 N.am   52  GLY52      -0.1942
      9  CA        22.4360  -36.9160   -0.5030 C.3    52  GLY52       0.2014
     10  C         23.0250  -35.6500    0.0860 C.2    52  GLY52       0.2639
     11  O         23.0510  -35.4210    1.2980 O.2    52  GLY52      -0.2714
     12  N         23.4860  -34.7940   -0.8290 N.am   53  SER53      -0.1949
     13  CA        24.2680  -33.6210   -0.4470 C.3    53  SER53       0.1924
     14  C         23.4490  -32.6250    0.3660 C.2    53  SER53       0.2314
     15  O         23.9720  -32.0000    1.2960 O.2    53  SER53      -0.2863
     16  CB        24.8310  -32.9470   -1.6960 C.3    53  SER53       0.2116
     17  OG        23.8010  -32.6810   -2.6320 O.3    53  SER53      -0.2180
     18  N         23.1310  -33.7240    3.8330 N.3    56  GLU56      -0.1245
     19  CA        24.4830  -33.7370    4.3730 C.3    56  GLU56       0.1567
     20  C         25.0750  -32.3400    4.4870 C.2    56  GLU56       0.2260
     21  O         26.2120  -32.2000    4.9520 O.2    56  GLU56      -0.2867
     22  CB        25.3920  -34.6110    3.5020 C.3    56  GLU56       0.0388
     23  CG        25.0720  -36.0910    3.5680 C.3    56  GLU56       0.1160
     24  CD        25.6400  -36.8610    2.3920 C.2    56  GLU56       0.3649
     25  OE1       25.9330  -36.2330    1.3520 O.co2  56  GLU56      -0.2457
     26  OE2       25.7950  -38.0940    2.5070 O.co2  56  GLU56      -0.2457
     27  N         25.3870  -29.4770   -0.2810 N.3    59  LYS59      -0.1231
     28  CA        24.8260  -29.0070   -1.5410 C.3    59  LYS59       0.1693
     29  C         25.3640  -27.6160   -1.8500 C.2    59  LYS59       0.2591
     30  O         25.5580  -26.7950   -0.9500 O.2    59  LYS59      -0.2718
     31  CB        23.2980  -28.9830   -1.4700 C.3    59  LYS59       0.0285
     32  CG        22.5980  -28.6630   -2.7890 C.3    59  LYS59       0.0035
     33  CD        22.5780  -29.8700   -3.7150 C.3    59  LYS59       0.0206
     34  CE        21.8360  -29.5730   -5.0100 C.3    59  LYS59       0.1093
     35  NZ        22.4930  -28.4940   -5.8010 N.3    59  LYS59      -0.1314
     36  N         25.6150  -27.3510   -3.1330 N.am   60  ILE60      -0.1980
     37  CA        26.2430  -26.1070   -3.5510 C.3    60  ILE60       0.1595
     38  C         25.3580  -25.4020   -4.5710 C.2    60  ILE60       0.2287
     39  O         24.4380  -25.9890   -5.1470 O.2    60  ILE60      -0.2864
     40  CB        27.6560  -26.3330   -4.1260 C.3    60  ILE60       0.0276
     41  CG1       27.6000  -27.2350   -5.3600 C.3    60  ILE60       0.0022
     42  CG2       28.5730  -26.9340   -3.0670 C.3    60  ILE60       0.0022
     43  CD1       28.9630  -27.5750   -5.9190 C.3    60  ILE60       0.0001
     44  N         18.5020  -30.0580   -6.2760 N.3    65  GLU65      -0.1245
     45  CA        18.5170  -31.5100   -6.4060 C.3    65  GLU65       0.1567
     46  C         18.4480  -32.1290   -5.0190 C.2    65  GLU65       0.2260
     47  O         19.3400  -31.9120   -4.1920 O.2    65  GLU65      -0.2867
     48  CB        19.7650  -31.9880   -7.1560 C.3    65  GLU65       0.0388
     49  CG        19.6290  -33.3790   -7.7620 C.3    65  GLU65       0.1160
     50  CD        20.3490  -34.4430   -6.9600 C.2    65  GLU65       0.3649
     51  OE1       20.9150  -34.1070   -5.9010 O.co2  65  GLU65      -0.2457
     52  OE2       20.3560  -35.6140   -7.3920 O.co2  65  GLU65      -0.2457
     53  N         17.6750  -35.8310   -2.7450 N.3    67  ASP67      -0.1239
     54  CA        17.7670  -37.2840   -2.8310 C.3    67  ASP67       0.1674
     55  C         17.0650  -37.8920   -1.6290 C.2    67  ASP67       0.2266
     56  O         17.4910  -37.6840   -0.4890 O.2    67  ASP67      -0.2867
     57  CB        19.2270  -37.7380   -2.8940 C.3    67  ASP67       0.1410
     58  CG        19.9570  -37.1690   -4.0910 C.2    67  ASP67       0.3668
     59  OD1       19.6690  -37.5940   -5.2290 O.co2  67  ASP67      -0.2456
     60  OD2       20.8070  -36.2810   -3.8920 O.co2  67  ASP67      -0.2456
     61  N         15.1230  -41.5680   -0.0080 N.3    69  MET69      -0.1245
     62  CA        15.2160  -43.0220   -0.0510 C.3    69  MET69       0.1570
     63  C         14.0040  -43.6060    0.6610 C.2    69  MET69       0.2261
     64  O         13.8740  -43.4760    1.8830 O.2    69  MET69      -0.2867
     65  CB        16.5190  -43.5020    0.5900 C.3    69  MET69       0.0387
     66  CG        16.8230  -44.9670    0.3620 C.3    69  MET69       0.0595
     67  SD        18.5000  -45.4250    0.8460 S.3    69  MET69      -0.1393
     68  CE        19.4660  -44.4220   -0.2810 C.3    69  MET69       0.0692
     69  N         15.3500  -37.0460   -6.6070 N.3   148  ASP148     -0.1239
     70  CA        15.6030  -38.4470   -6.9150 C.3   148  ASP148      0.1674
     71  C         15.0040  -39.3150   -5.8140 C.2   148  ASP148      0.2266
     72  O         15.3520  -39.1630   -4.6390 O.2   148  ASP148     -0.2867
     73  CB        17.1010  -38.7150   -7.0540 C.3   148  ASP148      0.1410
     74  CG        17.6850  -38.1160   -8.3180 C.2   148  ASP148      0.3668
     75  OD1       16.9290  -37.9310   -9.2930 O.co2 148  ASP148     -0.2456
     76  OD2       18.9020  -37.8330   -8.3400 O.co2 148  ASP148     -0.2456
     77  N         21.8960  -53.4100   -5.3040 N.3   199  ARG199     -0.1231
     78  CA        23.1960  -52.8940   -4.9000 C.3   199  ARG199      0.1694
     79  C         23.1410  -52.4010   -3.4600 C.2   199  ARG199      0.2592
     80  O         22.1360  -51.8270   -3.0270 O.2   199  ARG199     -0.2718
     81  CB        23.6490  -51.7600   -5.8260 C.3   199  ARG199      0.0321
     82  CG        25.0380  -51.2180   -5.5210 C.3   199  ARG199      0.0489
     83  CD        24.9920  -49.7220   -5.2630 C.3   199  ARG199      0.2205
     84  NE        24.8830  -48.9460   -6.4940 N.pl3 199  ARG199     -0.0865
     85  CZ        24.4110  -47.7050   -6.5530 C.cat 199  ARG199      0.5346
     86  NH1       23.9870  -47.1010   -5.4510 N.pl3 199  ARG199      0.1354
     87  NH2       24.3500  -47.0700   -7.7140 N.pl3 199  ARG199      0.1354
     88  N         24.2230  -52.6360   -2.7200 N.am  200  LEU200     -0.1966
     89  CA        24.3040  -52.1780   -1.3400 C.3   200  LEU200      0.1728
     90  C         24.3200  -50.6570   -1.2800 C.2   200  LEU200      0.2617
     91  O         24.9520  -49.9910   -2.1040 O.2   200  LEU200     -0.2715
     92  CB        25.5570  -52.7340   -0.6620 C.3   200  LEU200      0.0311
     93  CG        25.6500  -54.2430   -0.4270 C.3   200  LEU200      0.0022
     94  CD1       26.9970  -54.5970    0.1830 C.3   200  LEU200      0.0001
     95  CD2       24.5210  -54.7190    0.4690 C.3   200  LEU200      0.0001
     96  N         23.6180  -50.1090   -0.2940 N.am  201  SER201     -0.1936
     97  CA        23.5750  -48.6730   -0.0730 C.3   201  SER201      0.2055
     98  C         23.8570  -48.3820    1.3920 C.2   201  SER201      0.2643
     99  O         23.3660  -49.0840    2.2810 O.2   201  SER201     -0.2714
    100  CB        22.2200  -48.0810   -0.4770 C.3   201  SER201      0.2130
    101  OG        22.1630  -46.6960   -0.1880 O.3   201  SER201     -0.2179
    102  N         24.6570  -47.3480    1.6320 N.am  202  PHE202     -0.1959
    103  CA        25.0130  -46.8940    2.9700 C.3   202  PHE202      0.1771
    104  C         24.9240  -45.3780    3.0450 C.2   202  PHE202      0.2620
    105  O         25.7290  -44.7180    3.7100 O.2   202  PHE202     -0.2715
    106  CB        26.4060  -47.3810    3.3600 C.3   202  PHE202      0.0574
    107  CG        26.5660  -48.8730    3.2970 C.ar  202  PHE202     -0.0200
    108  CD1       26.2410  -49.6650    4.3870 C.ar  202  PHE202     -0.0042
    109  CD2       27.0370  -49.4880    2.1470 C.ar  202  PHE202     -0.0042
    110  CE1       26.3860  -51.0390    4.3330 C.ar  202  PHE202     -0.0003
    111  CE2       27.1840  -50.8630    2.0870 C.ar  202  PHE202     -0.0003
    112  CZ        26.8570  -51.6390    3.1820 C.ar  202  PHE202     -0.0000
    113  N         23.9370  -44.8090    2.3480 N.am  203  SER203     -0.1950
    114  CA        23.7760  -43.3600    2.3220 C.3   203  SER203      0.1924
    115  C         23.4700  -42.8030    3.7050 C.2   203  SER203      0.2314
    116  O         23.8400  -41.6630    4.0120 O.2   203  SER203     -0.2863
    117  CB        22.6720  -42.9790    1.3360 C.3   203  SER203      0.2116
    118  OG        22.9550  -43.4720    0.0360 O.3   203  SER203     -0.2180
    119  N         26.7830  -42.4640    5.3280 N.3   206  GLU206     -0.1245
    120  CA        27.4850  -41.3210    4.7540 C.3   206  GLU206      0.1567
    121  C         26.9500  -40.0110    5.3170 C.2   206  GLU206      0.2260
    122  O         27.7230  -39.0850    5.5930 O.2   206  GLU206     -0.2867
    123  CB        27.3620  -41.3400    3.2310 C.3   206  GLU206      0.0388
    124  CG        27.9190  -42.5960    2.5870 C.3   206  GLU206      0.1160
    125  CD        27.5690  -42.7060    1.1160 C.2   206  GLU206      0.3649
    126  OE1       26.9070  -41.7880    0.5900 O.co2 206  GLU206     -0.2457
    127  OE2       27.9520  -43.7140    0.4860 O.co2 206  GLU206     -0.2457
    128  N         33.2850  -31.0200   -5.2790 N.3   237  LYS237     -0.1245
    129  CA        32.0470  -31.1720   -6.0370 C.3   237  LYS237      0.1561
    130  C         31.9100  -30.0750   -7.0830 C.2   237  LYS237      0.2260
    131  O         31.4700  -30.3300   -8.2110 O.2   237  LYS237     -0.2867
    132  CB        30.8450  -31.1580   -5.0930 C.3   237  LYS237      0.0271
    133  CG        30.8020  -32.3090   -4.1040 C.3   237  LYS237      0.0035
    134  CD        29.7230  -32.0870   -3.0550 C.3   237  LYS237      0.0206
    135  CE        28.3330  -32.2830   -3.6330 C.3   237  LYS237      0.1093
    136  NZ        28.1190  -33.6920   -4.0520 N.3   237  LYS237     -0.1314
    137  N         31.8130  -30.3770  -11.1300 N.3   241  GLU241     -0.1245
    138  CA        30.6390  -29.8120  -11.7870 C.3   241  GLU241      0.1567
    139  C         31.0380  -28.7990  -12.8520 C.2   241  GLU241      0.2260
    140  O         30.4660  -28.7820  -13.9480 O.2   241  GLU241     -0.2867
    141  CB        29.7120  -29.1690  -10.7570 C.3   241  GLU241      0.0388
    142  CG        28.5680  -30.0630  -10.3120 C.3   241  GLU241      0.1160
    143  CD        27.5920  -29.3450   -9.4020 C.2   241  GLU241      0.3649
    144  OE1       27.3120  -29.8600   -8.3000 O.co2 241  GLU241     -0.2457
    145  OE2       27.1110  -28.2600   -9.7870 O.co2 241  GLU241     -0.2457
    146  N         30.7620  -38.7990  -11.5690 N.3   257  SER257     -0.1202
    147  CA        29.6880  -38.2690  -10.7430 C.3   257  SER257      0.2020
    148  C         30.2680  -37.7060   -9.4530 C.2   257  SER257      0.2619
    149  O         31.4300  -37.9390   -9.1100 O.2   257  SER257     -0.2717
    150  CB        28.6390  -39.3440  -10.4200 C.3   257  SER257      0.2103
    151  OG        29.1950  -40.3780   -9.6260 O.3   257  SER257     -0.2182
    152  N         29.4290  -36.9620   -8.7280 N.am  258  SER258     -0.1937
    153  CA        29.8510  -36.3900   -7.4560 C.3   258  SER258      0.2055
    154  C         30.0910  -37.4540   -6.3950 C.2   258  SER258      0.2643
    155  O         30.7880  -37.1820   -5.4110 O.2   258  SER258     -0.2714
    156  CB        28.8130  -35.3820   -6.9640 C.3   258  SER258      0.2130
    157  OG        27.5270  -35.9720   -6.8870 O.3   258  SER258     -0.2179
    158  N         29.5260  -38.6540   -6.5680 N.am  259  TYR259     -0.1959
    159  CA        29.7870  -39.7320   -5.6210 C.3   259  TYR259      0.1771
    160  C         31.2340  -40.1960   -5.6910 C.2   259  TYR259      0.2619
    161  O         31.7920  -40.6280   -4.6760 O.2   259  TYR259     -0.2715
    162  CB        28.8430  -40.9080   -5.8730 C.3   259  TYR259      0.0574
    163  CG        28.9260  -41.9780   -4.8080 C.ar  259  TYR259     -0.0198
    164  CD1       28.3930  -41.7640   -3.5450 C.ar  259  TYR259     -0.0009
    165  CD2       29.5420  -43.1960   -5.0590 C.ar  259  TYR259     -0.0009
    166  CE1       28.4670  -42.7330   -2.5630 C.ar  259  TYR259      0.0417
    167  CE2       29.6210  -44.1740   -4.0810 C.ar  259  TYR259      0.0417
    168  CZ        29.0810  -43.9350   -2.8350 C.ar  259  TYR259      0.1957
    169  OH        29.1520  -44.8980   -1.8550 O.3   259  TYR259     -0.2866
    170  N         31.8530  -40.1260   -6.8720 N.am  260  HIS260     -0.1973
    171  CA        33.2840  -40.3960   -6.9730 C.3   260  HIS260      0.1656
    172  C         34.0740  -39.4090   -6.1250 C.2   260  HIS260      0.2291
    173  O         35.0090  -39.7880   -5.4100 O.2   260  HIS260     -0.2864
    174  CB        33.7360  -40.3200   -8.4320 C.3   260  HIS260      0.0771
    175  CG        33.1070  -41.3460   -9.3230 C.ar  260  HIS260      0.0820
    176  ND1       32.5030  -41.0190  -10.5180 N.ar  260  HIS260     -0.2267
    177  CD2       33.0070  -42.6910   -9.2060 C.ar  260  HIS260      0.1154
    178  CE1       32.0470  -42.1170  -11.0930 C.ar  260  HIS260      0.1986
    179  NE2       32.3400  -43.1460  -10.3180 N.ar  260  HIS260     -0.2212
    180  N         32.8130  -37.6820   -3.5640 N.3   262  LYS262     -0.1245
    181  CA        32.4650  -37.8840   -2.1610 C.3   262  LYS262      0.1561
    182  C         33.1670  -39.1090   -1.5910 C.2   262  LYS262      0.2260
    183  O         33.6570  -39.0770   -0.4560 O.2   262  LYS262     -0.2867
    184  CB        30.9500  -38.0160   -2.0000 C.3   262  LYS262      0.0271
    185  CG        30.4960  -37.9920   -0.5490 C.3   262  LYS262      0.0035
    186  CD        29.3780  -38.9890   -0.2800 C.3   262  LYS262      0.0206
    187  CE        28.0320  -38.2980   -0.1530 C.3   262  LYS262      0.1093
    188  NZ        27.0050  -39.1970    0.4490 N.3   262  LYS262     -0.1314
    189  N         35.0420  -48.2690   -3.2510 N.3   305  ASN305     -0.1240
    190  CA        33.8350  -47.9470   -2.5050 C.3   305  ASN305      0.1653
    191  C         34.1490  -47.9440   -1.0150 C.2   305  ASN305      0.2266
    192  O         34.6910  -48.9160   -0.4830 O.2   305  ASN305     -0.2867
    193  CB        32.7350  -48.9630   -2.8200 C.3   305  ASN305      0.1155
    194  CG        31.4770  -48.7330   -2.0080 C.2   305  ASN305      0.2627
    195  OD1       31.3680  -49.1860   -0.8690 O.2   305  ASN305     -0.2716
    196  ND2       30.5130  -48.0320   -2.5940 N.am  305  ASN305     -0.0877
    197  N         35.1800  -53.3030   -4.4430 N.3   311  PHE311     -0.1241
    198  CA        34.4210  -52.7080   -5.5370 C.3   311  PHE311      0.1605
    199  C         35.1340  -51.4350   -5.9810 C.2   311  PHE311      0.2264
    200  O         35.2230  -50.4650   -5.2210 O.2   311  PHE311     -0.2867
    201  CB        32.9830  -52.4230   -5.1150 C.3   311  PHE311      0.0534
    202  CG        32.1140  -51.9250   -6.2340 C.ar  311  PHE311     -0.0203
    203  CD1       31.8660  -52.7200   -7.3420 C.ar  311  PHE311     -0.0042
    204  CD2       31.5420  -50.6670   -6.1770 C.ar  311  PHE311     -0.0042
    205  CE1       31.0670  -52.2650   -8.3750 C.ar  311  PHE311     -0.0003
    206  CE2       30.7390  -50.2080   -7.2060 C.ar  311  PHE311     -0.0003
    207  CZ        30.5020  -51.0080   -8.3070 C.ar  311  PHE311     -0.0000
    208  N         35.1970  -48.2850   -8.1460 N.3   313  LEU313     -0.1245
    209  CA        34.3770  -47.3570   -8.9140 C.3   313  LEU313      0.1561
    210  C         35.0790  -46.8750  -10.1760 C.2   313  LEU313      0.2260
    211  O         34.4040  -46.4870  -11.1350 O.2   313  LEU313     -0.2867
    212  CB        33.9860  -46.1600   -8.0440 C.3   313  LEU313      0.0270
    213  CG        33.1200  -46.4610   -6.8180 C.3   313  LEU313      0.0019
    214  CD1       33.0610  -45.2620   -5.8830 C.3   313  LEU313      0.0001
    215  CD2       31.7240  -46.8670   -7.2520 C.3   313  LEU313      0.0001
@<TRIPOS>BOND
     1   140   139    2
     2   139   138    1
     3   138   137    1
     4   138   141    1
     5   146   147    1
     6   211   210    2
     7   178   176   ar
     8   178   179   ar
     9   141   142    1
    10   147   150    1
    11   147   148    1
    12   176   175   ar
    13   150   151    1
    14   179   177   ar
    15   142   143    1
    16   210   209    1
    17   145   143   ar
    18   148   149    2
    19   148   152   am
    20   143   144   ar
    21   175   177   ar
    22   175   174    1
    23    75    74   ar
    24   209   208    1
    25   209   212    1
    26   152   153    1
    27   174   171    1
    28   205   207   ar
    29   205   203   ar
    30    76    74   ar
    31    74    73    1
    32   207   206   ar
    33   131   130    2
    34   212   213    1
    35    49    48    1
    36    49    50    1
    37    87    85    1
    38   153   156    1
    39   153   154    1
    40    52    50   ar
    41   203   202   ar
    42   215   213    1
    43   206   204   ar
    44    48    45    1
    45   130   129    1
    46    73    70    1
    47   171   170    1
    48   171   172    1
    49   156   157    1
    50    50    51   ar
    51    70    69    1
    52    70    71    1
    53   170   160   am
    54   213   214    1
    55   158   154   am
    56   158   159    1
    57    85    84    2
    58    85    86    1
    59    84    83    1
    60    45    44    1
    61    45    46    1
    62   154   155    2
    63   202   204   ar
    64   202   201    1
    65   172   173    2
    66   129   128    1
    67   129   132    1
    68   199   198    1
    69   199   200    2
    70    43    41    1
    71   162   159    1
    72   162   163    1
    73    81    82    1
    74    81    78    1
    75    71    72    2
    76    35    34    1
    77   160   159    1
    78   160   161    2
    79   198   201    1
    80   198   197    1
    81    82    83    1
    82    41    40    1
    83    77    78    1
    84    59    58   ar
    85    39    38    2
    86   132   133    1
    87   165   163   ar
    88   165   167   ar
    89    46    47    2
    90    34    33    1
    91    78    79    1
    92   163   164   ar
    93    38    37    1
    94    40    37    1
    95    40    42    1
    96   133   134    1
    97    58    60   ar
    98    58    57    1
    99   167   168   ar
   100   136   135    1
   101    33    32    1
   102   135   134    1
   103   180   181    1
   104    37    36    1
   105   164   166   ar
   106    79    80    2
   107    79    88   am
   108   189   190    1
   109    36    29   am
   110    57    54    1
   111   168   166   ar
   112   168   169    1
   113    54    53    1
   114    54    55    1
   115   193   190    1
   116   193   194    1
   117    32    31    1
   118    88    89    1
   119    17    16    1
   120   196   194   am
   121   190   191    1
   122   181   184    1
   123   181   182    1
   124    91    90    2
   125   194   195    2
   126   184   185    1
   127    29    28    1
   128    29    30    2
   129    16    13    1
   130    55    56    2
   131   182   183    2
   132    28    31    1
   133    28    27    1
   134    89    90    1
   135    89    92    1
   136    90    96   am
   137   191   192    2
   138    12    13    1
   139    12    10   am
   140    92    93    1
   141   185   186    1
   142     9    10    1
   143     9     8    1
   144   100   101    1
   145   100    97    1
   146    13    14    1
   147    93    94    1
   148    93    95    1
   149     6     5    1
   150    96    97    1
   151    68    67    1
   152   186   187    1
   153   187   188    1
   154    97    98    1
   155    62    61    1
   156    62    65    1
   157    62    63    1
   158   118   117    1
   159    10    11    2
   160    66    65    1
   161    66    67    1
   162    14    15    2
   163     8     3   am
   164   127   125   ar
   165     4     3    2
   166   126   125   ar
   167    63    64    2
   168     3     2    1
   169     5     2    1
   170     5     7    1
   171   125   124    1
   172   117   114    1
   173    25    24   ar
   174    98   102   am
   175    98    99    2
   176   102   103    1
   177     2     1    1
   178   111   109   ar
   179   111   112   ar
   180   109   107   ar
   181   114   113    1
   182   114   115    1
   183   113   104   am
   184    24    26   ar
   185    24    23    1
   186   124   123    1
   187   103   104    1
   188   103   106    1
   189   104   105    2
   190   112   110   ar
   191   123   120    1
   192   107   106    1
   193   107   108   ar
   194    22    23    1
   195    22    19    1
   196   115   116    2
   197    18    19    1
   198   110   108   ar
   199    19    20    1
   200    20    21    2
   201   120   121    1
   202   120   119    1
   203   121   122    2
