@<TRIPOS>MOLECULE
tmp/6ctcA00.pdb
 96 92 0 0 0
SMALL
GASTEIGER

@<TRIPOS>ATOM
      1  N         45.5790   14.9340    2.2070 N.3    61  ASP61      -0.1225
      2  CA        45.1380   14.4930    3.5200 C.3    61  ASP61       0.1805
      3  C         43.6220   14.3990    3.5330 C.2    61  ASP61       0.2597
      4  O         42.9300   14.9860    2.6970 O.2    61  ASP61      -0.2718
      5  CB        45.5770   15.4730    4.6110 C.3    61  ASP61       0.1424
      6  CG        47.0690   15.4220    4.8870 C.2    61  ASP61       0.3668
      7  OD1       47.7320   14.4430    4.4760 O.co2  61  ASP61      -0.2456
      8  OD2       47.5770   16.3770    5.5200 O.co2  61  ASP61      -0.2456
      9  N         43.1110   13.6740    4.5280 N.am   62  ALA62      -0.1979
     10  CA        41.6820   13.4230    4.6240 C.3    62  ALA62       0.1597
     11  C         40.9010   14.7080    4.8450 C.2    62  ALA62       0.2287
     12  O         39.7530   14.8260    4.3940 O.2    62  ALA62      -0.2864
     13  CB        41.4130   12.4340    5.7510 C.3    62  ALA62       0.0319
     14  N         44.1340    4.6510    8.1710 N.3    93  TYR93      -0.1241
     15  CA        44.3920    4.5150    9.5890 C.3    93  TYR93       0.1605
     16  C         43.0820    4.6520   10.3630 C.2    93  TYR93       0.2264
     17  O         42.0160    4.9310    9.8060 O.2    93  TYR93      -0.2867
     18  CB        45.4690    5.5070   10.0480 C.3    93  TYR93       0.0534
     19  CG        45.1340    6.9730   10.0540 C.ar   93  TYR93      -0.0201
     20  CD1       44.3320    7.5190   11.0540 C.ar   93  TYR93      -0.0009
     21  CD2       45.6840    7.8330    9.1070 C.ar   93  TYR93      -0.0009
     22  CE1       44.0440    8.8800   11.0860 C.ar   93  TYR93       0.0417
     23  CE2       45.4040    9.2040    9.1270 C.ar   93  TYR93       0.0417
     24  CZ        44.5840    9.7210   10.1210 C.ar   93  TYR93       0.1957
     25  OH        44.2960   11.0690   10.1570 O.3    93  TYR93      -0.2866
     26  N         45.1790   21.1080   16.2710 N.3   121  GLY121     -0.1210
     27  CA        44.7750   21.1310   14.8880 C.3   121  GLY121      0.1956
     28  C         45.0880   19.8740   14.1050 C.2   121  GLY121      0.2612
     29  O         44.5920   19.7260   12.9830 O.2   121  GLY121     -0.2717
     30  N         45.8730   18.9570   14.6540 N.am  122  ARG122     -0.1965
     31  CA        46.1420   17.7200   13.9370 C.3   122  ARG122      0.1729
     32  C         44.8750   16.8470   13.8470 C.2   122  ARG122      0.2616
     33  O         43.8360   17.1310   14.4540 O.2   122  ARG122     -0.2715
     34  CB        47.3300   17.0110   14.5870 C.3   122  ARG122      0.0348
     35  CG        48.6500   17.6640   14.1330 C.3   122  ARG122      0.0492
     36  CD        49.9010   17.0910   14.7610 C.3   122  ARG122      0.2205
     37  NE        50.4090   15.9240   14.0460 N.pl3 122  ARG122     -0.0865
     38  CZ        51.5920   15.3600   14.2810 C.cat 122  ARG122      0.5346
     39  NH1       51.9690   14.2860   13.5930 N.pl3 122  ARG122      0.1354
     40  NH2       52.4050   15.8740   15.1990 N.pl3 122  ARG122      0.1354
     41  N         44.9470   15.7950   13.0290 N.am  123  SER123     -0.1950
     42  CA        43.7490   15.0180   12.6970 C.3   123  SER123      0.1924
     43  C         43.3190   14.0790   13.8280 C.2   123  SER123      0.2314
     44  O         42.3880   14.3910   14.5790 O.2   123  SER123     -0.2863
     45  CB        43.9730   14.2230   11.4000 C.3   123  SER123      0.2116
     46  OG        42.8330   13.4550   11.0140 O.3   123  SER123     -0.2180
     47  N         52.8130   11.6770   17.7380 N.3   186  TYR186     -0.1241
     48  CA        52.1250   10.4000   17.9140 C.3   186  TYR186      0.1605
     49  C         52.7500    9.5790   19.0250 C.2   186  TYR186      0.2264
     50  O         52.0540    9.1060   19.9280 O.2   186  TYR186     -0.2867
     51  CB        52.1270    9.6100   16.6090 C.3   186  TYR186      0.0534
     52  CG        51.1170   10.1520   15.6590 C.ar  186  TYR186     -0.0201
     53  CD1       49.7610    9.9800   15.8990 C.ar  186  TYR186     -0.0009
     54  CD2       51.5070   10.8830   14.5500 C.ar  186  TYR186     -0.0009
     55  CE1       48.8190   10.5060   15.0470 C.ar  186  TYR186      0.0417
     56  CE2       50.5770   11.4090   13.6880 C.ar  186  TYR186      0.0417
     57  CZ        49.2320   11.2160   13.9390 C.ar  186  TYR186      0.1957
     58  OH        48.2930   11.7430   13.0800 O.3   186  TYR186     -0.2866
     59  N         46.6560    7.2760   16.3640 N.3   204  LYS204     -0.1245
     60  CA        46.2160    6.2580   15.4230 C.3   204  LYS204      0.1561
     61  C         46.3330    4.8770   16.0650 C.2   204  LYS204      0.2260
     62  O         47.0910    4.6710   17.0110 O.2   204  LYS204     -0.2867
     63  CB        47.0330    6.3110   14.1280 C.3   204  LYS204      0.0271
     64  CG        47.5460    7.6870   13.7530 C.3   204  LYS204      0.0035
     65  CD        48.2700    7.6770   12.4020 C.3   204  LYS204      0.0206
     66  CE        48.1000    9.0160   11.6470 C.3   204  LYS204      0.1093
     67  NZ        49.1910    9.2920   10.6330 N.3   204  LYS204     -0.1314
     68  N         40.1590    6.7560    8.5640 N.3   244  VAL244     -0.1231
     69  CA        40.7000    7.8940    7.8140 C.3   244  VAL244      0.1678
     70  C         41.6040    7.4080    6.6790 C.2   244  VAL244      0.2434
     71  O         42.5550    6.6560    6.9260 O.2   244  VAL244     -0.2733
     72  CB        41.4610    8.8390    8.7630 C.3   244  VAL244      0.0265
     73  CG1       41.9480   10.0510    8.0560 C.3   244  VAL244      0.0020
     74  CG2       40.6060    9.2290    9.9770 C.3   244  VAL244      0.0020
     75  N         41.3640    7.8080    5.4310 N.am  245  PRO245     -0.2718
     76  CA        42.3300    7.5030    4.3610 C.3   245  PRO245      0.1535
     77  C         43.6280    8.2680    4.5540 C.2   245  PRO245      0.2599
     78  O         43.6310    9.4690    4.8520 O.2   245  PRO245     -0.2715
     79  CB        41.6070    7.9590    3.0880 C.3   245  PRO245      0.0310
     80  CG        40.6960    9.0400    3.5520 C.3   245  PRO245      0.0237
     81  CD        40.2400    8.6260    4.9430 C.3   245  PRO245      0.0939
     82  N         44.7470    7.5650    4.3770 N.am  246  SER246     -0.1950
     83  CA        46.0230    8.1860    4.7140 C.3   246  SER246      0.1924
     84  C         46.4400    9.2220    3.6740 C.2   246  SER246      0.2314
     85  O         46.9550   10.2900    4.0310 O.2   246  SER246     -0.2863
     86  CB        47.0930    7.1210    4.8890 C.3   246  SER246      0.2116
     87  OG        48.1230    7.5760    5.7510 O.3   246  SER246     -0.2180
     88  N         53.4480   10.5500   -0.1670 N.3   294  LYS294     -0.1245
     89  CA        54.1340   10.3720    1.1010 C.3   294  LYS294      0.1561
     90  C         55.3620    9.4850    0.9250 C.2   294  LYS294      0.2260
     91  O         55.3220    8.4640    0.2260 O.2   294  LYS294     -0.2867
     92  CB        53.1830    9.7940    2.1490 C.3   294  LYS294      0.0271
     93  CG        52.1780   10.8260    2.6630 C.3   294  LYS294      0.0035
     94  CD        51.5740   10.4260    3.9630 C.3   294  LYS294      0.0206
     95  CE        50.5050   11.4070    4.4050 C.3   294  LYS294      0.1093
     96  NZ        49.7090   10.8380    5.5540 N.3   294  LYS294     -0.1314
@<TRIPOS>BOND
     1    88    89    1
     2    91    90    2
     3    90    89    1
     4    89    92    1
     5    92    93    1
     6     1     2    1
     7    93    94    1
     8     4     3    2
     9    79    80    1
    10    79    76    1
    11     2     3    1
    12     2     5    1
    13     3     9   am
    14    80    81    1
    15    84    85    2
    16    84    83    1
    17    94    95    1
    18    76    77    1
    19    76    75    1
    20    82    77   am
    21    82    83    1
    22    12    11    2
    23    95    96    1
    24     7     6   ar
    25     9    10    1
    26    77    78    2
    27     5     6    1
    28    10    11    1
    29    10    13    1
    30    83    86    1
    31     6     8   ar
    32    86    87    1
    33    81    75    1
    34    75    70   am
    35    70    71    2
    36    70    69    1
    37    69    68    1
    38    69    72    1
    39    73    72    1
    40    14    15    1
    41    72    74    1
    42    21    23   ar
    43    21    19   ar
    44    23    24   ar
    45    15    18    1
    46    15    16    1
    47    17    16    2
    48    18    19    1
    49    19    20   ar
    50    24    25    1
    51    24    22   ar
    52    67    66    1
    53    46    45    1
    54    20    22   ar
    55    45    42    1
    56    66    65    1
    57    65    64    1
    58    42    41    1
    59    42    43    1
    60    29    28    2
    61    41    32   am
    62    58    57    1
    63    39    38    1
    64    56    57   ar
    65    56    54   ar
    66    64    63    1
    67    43    44    2
    68    32    31    1
    69    32    33    2
    70    31    34    1
    71    31    30    1
    72    57    55   ar
    73    37    38    2
    74    37    36    1
    75    28    30   am
    76    28    27    1
    77    63    60    1
    78    35    34    1
    79    35    36    1
    80    38    40    1
    81    54    52   ar
    82    27    26    1
    83    55    53   ar
    84    60    61    1
    85    60    59    1
    86    52    53   ar
    87    52    51    1
    88    61    62    2
    89    51    48    1
    90    47    48    1
    91    48    49    1
    92    49    50    2
