@<TRIPOS>MOLECULE
tmp/6cthA00.pdb
 179 168 0 0 0
SMALL
GASTEIGER

@<TRIPOS>ATOM
      1  N        -16.1170   10.9930    4.4170 N.3    19  GLU19      -0.1245
      2  CA       -15.9990   12.3460    4.9260 C.3    19  GLU19       0.1567
      3  C        -15.2590   12.3530    6.2800 C.2    19  GLU19       0.2260
      4  O        -14.7160   13.3800    6.6750 O.2    19  GLU19      -0.2867
      5  CB       -17.3580   13.0400    5.0700 C.3    19  GLU19       0.0388
      6  CG       -18.0270   13.3800    3.7330 C.3    19  GLU19       0.1160
      7  CD       -19.3840   14.0680    3.8620 C.2    19  GLU19       0.3649
      8  OE1      -20.2680   13.7770    2.9980 O.co2  19  GLU19      -0.2457
      9  OE2      -19.5880   14.8710    4.8430 O.co2  19  GLU19      -0.2457
     10  N        -12.5770   10.3300    6.9320 N.3    21  LYS21      -0.1231
     11  CA       -11.2150    9.8520    6.7530 C.3    21  LYS21       0.1693
     12  C        -10.2250   10.9820    7.0520 C.2    21  LYS21       0.2592
     13  O        -10.3550   12.0950    6.5230 O.2    21  LYS21      -0.2718
     14  CB       -10.9900    9.3430    5.3260 C.3    21  LYS21       0.0285
     15  CG        -9.6440    8.5730    5.2480 C.3    21  LYS21       0.0035
     16  CD        -9.4700    7.8120    3.9840 C.3    21  LYS21       0.0206
     17  CE        -9.3180    8.7820    2.8330 C.3    21  LYS21       0.1093
     18  NZ        -9.3440    8.0630    1.5690 N.3    21  LYS21      -0.1314
     19  N         -9.2560   10.7070    7.9400 N.am   22  LEU22      -0.1966
     20  CA        -8.2260   11.6540    8.2850 C.3    22  LEU22       0.1728
     21  C         -6.9970   11.4560    7.4260 C.2    22  LEU22       0.2617
     22  O         -6.2860   12.4080    7.1340 O.2    22  LEU22      -0.2715
     23  CB        -7.8480   11.5160    9.7800 C.3    22  LEU22       0.0311
     24  CG        -8.9490   11.9470   10.7530 C.3    22  LEU22       0.0022
     25  CD1       -8.6190   11.5030   12.1870 C.3    22  LEU22       0.0001
     26  CD2       -9.1810   13.4550   10.6760 C.3    22  LEU22       0.0001
     27  N         -6.7510   10.2150    7.0210 N.am   23  GLY23      -0.1940
     28  CA        -5.5730    9.9050    6.1910 C.3    23  GLY23       0.2014
     29  C         -5.3260    8.4120    6.1550 C.2    23  GLY23       0.2639
     30  O         -6.1010    7.6110    6.6740 O.2    23  GLY23      -0.2714
     31  N         -4.2640    8.0430    5.4560 N.am   24  GLU24      -0.1963
     32  CA        -3.8180    6.6750    5.3940 C.3    24  GLU24       0.1733
     33  C         -2.7500    6.5010    6.4380 C.2    24  GLU24       0.2617
     34  O         -1.7290    7.1760    6.3870 O.2    24  GLU24      -0.2715
     35  CB        -3.2040    6.3630    4.0180 C.3    24  GLU24       0.0429
     36  CG        -4.2230    6.4870    2.8870 C.3    24  GLU24       0.1163
     37  CD        -5.4690    5.6690    3.0740 C.2    24  GLU24       0.3649
     38  OE1       -5.3930    4.5780    3.7000 O.co2  24  GLU24      -0.2457
     39  OE2       -6.5440    6.1060    2.5690 O.co2  24  GLU24      -0.2457
     40  N         -2.9750    5.5470    7.3160 N.am   25  GLY25      -0.1940
     41  CA        -1.9590    5.0430    8.2430 C.3    25  GLY25       0.2014
     42  C         -1.0860    4.0220    7.5350 C.2    25  GLY25       0.2639
     43  O         -1.2350    3.7670    6.3030 O.2    25  GLY25      -0.2714
     44  N         -0.1670    3.4260    8.2740 N.am   26  GLY26      -0.1954
     45  CA         0.7390    2.4620    7.6790 C.3    26  GLY26       0.1869
     46  C          0.1260    1.1730    7.1580 C.2    26  GLY26       0.2309
     47  O          0.6540    0.5510    6.2410 O.2    26  GLY26      -0.2863
     48  N         -7.2820    5.8240    8.5900 N.3    30  VAL30      -0.1245
     49  CA        -7.6540    6.3510    9.9150 C.3    30  VAL30       0.1561
     50  C         -8.8400    7.3070    9.7680 C.2    30  VAL30       0.2260
     51  O         -8.8310    8.2120    8.8980 O.2    30  VAL30      -0.2867
     52  CB        -6.4690    7.0820   10.5520 C.3    30  VAL30       0.0252
     53  CG1       -6.7930    7.5340   11.9780 C.3    30  VAL30       0.0019
     54  CG2       -5.2220    6.1880   10.5370 C.3    30  VAL30       0.0019
     55  N         -9.4450    8.9020   17.1400 N.3    43  ALA43      -0.1245
     56  CA        -8.9560    8.4940   15.8150 C.3    43  ALA43       0.1562
     57  C         -9.0000    6.9770   15.7540 C.2    43  ALA43       0.2260
     58  O         -8.4490    6.2990   16.6300 O.2    43  ALA43      -0.2867
     59  CB        -7.5510    9.0000   15.5900 C.3    43  ALA43       0.0290
     60  N         -8.2230    3.6420   13.5330 N.3    45  LYS45      -0.1245
     61  CA        -7.5610    2.9950   12.4090 C.3    45  LYS45       0.1561
     62  C         -8.2240    1.6620   12.0950 C.2    45  LYS45       0.2260
     63  O         -8.2710    0.7590   12.9360 O.2    45  LYS45      -0.2867
     64  CB        -6.0880    2.8040   12.7270 C.3    45  LYS45       0.0271
     65  CG        -5.3070    2.1790   11.5750 C.3    45  LYS45       0.0035
     66  CD        -3.8140    2.2720   11.7860 C.3    45  LYS45       0.0206
     67  CE        -3.0630    1.8650   10.5230 C.3    45  LYS45       0.1093
     68  NZ        -1.6350    2.1690   10.7080 N.3    45  LYS45      -0.1314
     69  N          3.0630    7.8470   20.8780 N.3    74  VAL74      -0.1245
     70  CA         1.6280    7.7480   20.7770 C.3    74  VAL74       0.1561
     71  C          1.1020    6.6160   21.6550 C.2    74  VAL74       0.2260
     72  O          1.7040    5.5350   21.6850 O.2    74  VAL74      -0.2867
     73  CB         1.2440    7.4580   19.2960 C.3    74  VAL74       0.0252
     74  CG1       -0.2240    7.1160   19.1730 C.3    74  VAL74       0.0019
     75  CG2        1.6250    8.6410   18.4450 C.3    74  VAL74       0.0019
     76  N         -7.0070    5.6610   19.0260 N.3    90  TYR90      -0.1227
     77  CA        -6.0370    6.6010   19.5780 C.3    90  TYR90       0.1736
     78  C         -6.7040    7.9420   19.8490 C.2    90  TYR90       0.2595
     79  O         -7.8310    8.1850   19.3760 O.2    90  TYR90      -0.2718
     80  CB        -4.9200    6.8520   18.5640 C.3    90  TYR90       0.0548
     81  CG        -4.2910    5.6410   17.9330 C.ar   90  TYR90      -0.0200
     82  CD1       -4.8060    5.0860   16.7820 C.ar   90  TYR90      -0.0009
     83  CD2       -3.1120    5.1050   18.4530 C.ar   90  TYR90      -0.0009
     84  CE1       -4.1650    4.0320   16.1490 C.ar   90  TYR90       0.0417
     85  CE2       -2.5070    4.0350   17.8590 C.ar   90  TYR90       0.0417
     86  CZ        -3.0180    3.4870   16.7270 C.ar   90  TYR90       0.1957
     87  OH        -2.3800    2.4400   16.1090 O.3    90  TYR90      -0.2866
     88  N         -6.0290    8.8140   20.5870 N.am   91  GLU91      -0.1965
     89  CA        -6.4610   10.2130   20.7020 C.3    91  GLU91       0.1733
     90  C         -6.4850   10.8960   19.3550 C.2    91  GLU91       0.2616
     91  O         -5.5790   10.6590   18.5080 O.2    91  GLU91      -0.2715
     92  CB        -5.5730   11.0540   21.6560 C.3    91  GLU91       0.0429
     93  CG        -4.0970   10.9850   21.2980 C.3    91  GLU91       0.1163
     94  CD        -3.3640    9.8970   22.0540 C.2    91  GLU91       0.3649
     95  OE1       -3.9630    8.8260   22.2860 O.co2  91  GLU91      -0.2457
     96  OE2       -2.1880   10.1100   22.4160 O.co2  91  GLU91      -0.2457
     97  N         -7.5080   11.7430   19.1440 N.am   92  PHE92      -0.1960
     98  CA        -7.5130   12.6280   17.9940 C.3    92  PHE92       0.1771
     99  C         -6.5930   13.7980   18.2480 C.2    92  PHE92       0.2619
    100  O         -6.7020   14.4650   19.2750 O.2    92  PHE92      -0.2715
    101  CB        -8.9060   13.1360   17.6850 C.3    92  PHE92       0.0574
    102  CG        -8.9390   14.1570   16.6090 C.ar   92  PHE92      -0.0200
    103  CD1       -8.6430   13.8020   15.2930 C.ar   92  PHE92      -0.0042
    104  CD2       -9.2500   15.4900   16.8990 C.ar   92  PHE92      -0.0042
    105  CE1       -8.6940   14.7430   14.2880 C.ar   92  PHE92      -0.0003
    106  CE2       -9.3060   16.4320   15.8820 C.ar   92  PHE92      -0.0003
    107  CZ        -9.0070   16.0650   14.5850 C.ar   92  PHE92      -0.0000
    108  N         -5.6870   14.0420   17.3000 N.am   93  MET93      -0.1963
    109  CA        -4.6680   15.0860   17.3870 C.3    93  MET93       0.1736
    110  C         -4.8550   16.0260   16.2010 C.2    93  MET93       0.2616
    111  O         -4.4350   15.7110   15.0660 O.2    93  MET93      -0.2715
    112  CB        -3.2880   14.4490   17.3820 C.3    93  MET93       0.0427
    113  CG        -3.1660   13.3910   18.4570 C.3    93  MET93       0.0599
    114  SD        -1.5280   12.6440   18.6710 S.3    93  MET93      -0.1393
    115  CE        -0.5940   13.9840   19.4020 C.3    93  MET93       0.0692
    116  N         -5.4770   17.1710   16.4760 N.am   94  ALA94      -0.1977
    117  CA        -5.9340   18.1000   15.4240 C.3    94  ALA94       0.1597
    118  C         -4.8280   18.6630   14.5320 C.2    94  ALA94       0.2287
    119  O         -5.0610   19.0450   13.3870 O.2    94  ALA94      -0.2864
    120  CB        -6.7220   19.2430   16.0780 C.3    94  ALA94       0.0319
    121  N         -2.3860   16.8210   13.3790 N.3    96  GLY96      -0.1210
    122  CA        -1.9870   15.7680   12.4670 C.3    96  GLY96       0.1956
    123  C         -0.5070   15.3800   12.5030 C.2    96  GLY96       0.2612
    124  O          0.1670   15.5310   13.5600 O.2    96  GLY96      -0.2717
    125  N         -0.0070   14.8840   11.3630 N.am   97  SER97      -0.1952
    126  CA         1.3360   14.3690   11.3100 C.3    97  SER97       0.1924
    127  C          2.3270   15.4090   10.8230 C.2    97  SER97       0.2314
    128  O          1.9890   16.3700   10.1340 O.2    97  SER97      -0.2863
    129  CB         1.4410   13.0750   10.4970 C.3    97  SER97       0.2116
    130  OG         0.8090   13.2040    9.2320 O.3    97  SER97      -0.2180
    131  N          2.7660   16.8060    7.1090 N.3   100  SER100     -0.1217
    132  CA         1.7630   17.7660    6.6360 C.3   100  SER100      0.1889
    133  C          2.2050   19.1800    6.8600 C.2   100  SER100      0.2288
    134  O          1.8690   20.0540    6.0650 O.2   100  SER100     -0.2866
    135  CB         0.4310   17.5490    7.2950 C.3   100  SER100      0.2089
    136  OG        -0.0670   16.3040    6.8760 O.3   100  SER100     -0.2183
    137  N          0.8680   22.7960    5.7390 N.3   106  LYS106     -0.1245
    138  CA        -0.2600   23.0000    6.6580 C.3   106  LYS106      0.1561
    139  C         -0.0050   24.1940    7.6010 C.2   106  LYS106      0.2260
    140  O         -0.9290   24.9300    7.9270 O.2   106  LYS106     -0.2867
    141  CB        -0.5700   21.7300    7.4810 C.3   106  LYS106      0.0271
    142  CG        -1.7520   21.9290    8.4110 C.3   106  LYS106      0.0035
    143  CD        -2.1180   20.6600    9.1020 C.3   106  LYS106      0.0206
    144  CE        -3.3060   20.9330   10.0170 C.3   106  LYS106      0.1093
    145  NZ        -3.6800   19.7350   10.7430 N.3   106  LYS106     -0.1314
    146  N          5.8390   11.1290    8.5910 N.3   144  SER144     -0.1202
    147  CA         4.4380   10.7490    8.6290 C.3   144  SER144      0.2020
    148  C          4.0300    9.8800    9.8170 C.2   144  SER144      0.2618
    149  O          2.8440    9.6390   10.0240 O.2   144  SER144     -0.2717
    150  CB         3.9810   10.0350    7.3390 C.3   144  SER144      0.2103
    151  OG         4.7800    8.9040    7.0610 O.3   144  SER144     -0.2182
    152  N          5.0170    9.3580   10.5500 N.am  145  ASN145     -0.1974
    153  CA         4.7760    8.6350   11.7730 C.3   145  ASN145      0.1688
    154  C          4.9920    9.4710   13.0080 C.2   145  ASN145      0.2292
    155  O          4.9260    8.9040   14.1360 O.2   145  ASN145     -0.2864
    156  CB         5.6640    7.3900   11.8470 C.3   145  ASN145      0.1181
    157  CG         5.1590    6.2750   10.9500 C.2   145  ASN145      0.2629
    158  OD1        3.9560    6.2060   10.6170 O.2   145  ASN145     -0.2716
    159  ND2        6.0380    5.4250   10.5570 N.am  145  ASN145     -0.0877
    160  N          3.3490   12.4380   15.2270 N.3   147  MET147     -0.1245
    161  CA         2.1420   13.2140   15.4640 C.3   147  MET147      0.1570
    162  C          2.4540   14.4410   16.2730 C.2   147  MET147      0.2261
    163  O          3.3900   14.4250   17.1250 O.2   147  MET147     -0.2867
    164  CB         1.1110   12.3560   16.2100 C.3   147  MET147      0.0387
    165  CG         0.6510   11.1190   15.4780 C.3   147  MET147      0.0595
    166  SD        -0.0740   11.5310   13.8540 S.3   147  MET147     -0.1393
    167  CE        -1.4390   12.4730   14.4560 C.3   147  MET147      0.0692
    168  N          4.7390    7.3450   16.5370 N.3   157  GLY157     -0.1210
    169  CA         3.8680    6.1990   16.5000 C.3   157  GLY157      0.1956
    170  C          4.2110    5.2440   15.3880 C.2   157  GLY157      0.2611
    171  O          5.2850    5.3290   14.7950 O.2   157  GLY157     -0.2717
    172  N          3.2170    4.4170   15.0630 N.am  158  ASP158     -0.1973
    173  CA         3.3080    3.2990   14.1100 C.3   158  ASP158      0.1709
    174  C          4.3220    2.2460   14.4920 C.2   158  ASP158      0.2293
    175  O          5.4780    2.2700   14.0180 O.2   158  ASP158     -0.2864
    176  CB         3.6810    3.8060   12.6740 C.3   158  ASP158      0.1436
    177  CG         3.7070    2.6830   11.6290 C.2   158  ASP158      0.3671
    178  OD1        3.0760    1.6330   11.8340 O.co2 158  ASP158     -0.2456
    179  OD2        4.4300    2.8960   10.6220 O.co2 158  ASP158     -0.2456
@<TRIPOS>BOND
     1    18    17    1
     2    39    37   ar
     3    17    16    1
     4    36    37    1
     5    36    35    1
     6     8     7   ar
     7    37    38   ar
     8     6     7    1
     9     6     5    1
    10     7     9   ar
    11    16    15    1
    12    35    32    1
    13     1     2    1
    14     2     5    1
    15     2     3    1
    16    15    14    1
    17    14    11    1
    18    32    31    1
    19    32    33    1
    20    31    29   am
    21   137   138    1
    22   134   133    2
    23    29    28    1
    24    29    30    2
    25    28    27    1
    26    47    46    2
    27     3     4    2
    28    43    42    2
    29    34    33    2
    30    33    40   am
    31    13    12    2
    32   132   133    1
    33   132   131    1
    34   132   135    1
    35   138   141    1
    36   138   139    1
    37    11    10    1
    38    11    12    1
    39   136   135    1
    40    27    21   am
    41    12    19   am
    42   151   150    1
    43    22    21    2
    44    46    45    1
    45    40    41    1
    46   150   147    1
    47    21    20    1
    48   141   142    1
    49    42    41    1
    50    42    44   am
    51   139   140    2
    52    45    44    1
    53    19    20    1
    54    20    23    1
    55   142   143    1
    56    48    49    1
    57   146   147    1
    58   147   148    1
    59    51    50    2
    60   143   144    1
    61   130   129    1
    62    50    49    1
    63    23    24    1
    64   148   149    2
    65   148   152   am
    66    49    52    1
    67   144   145    1
    68   128   127    2
    69   129   126    1
    70    67    68    1
    71    67    66    1
    72    54    52    1
    73   152   153    1
    74    52    53    1
    75   159   157   am
    76   158   157    2
    77   179   177   ar
    78    26    24    1
    79    24    25    1
    80   127   126    1
    81   157   156    1
    82   126   125    1
    83   125   123   am
    84    65    66    1
    85    65    64    1
    86   177   178   ar
    87   177   176    1
    88   153   156    1
    89   153   154    1
    90    62    61    1
    91    62    63    2
    92    61    64    1
    93    61    60    1
    94   122   123    1
    95   122   121    1
    96   123   124    2
    97   176   173    1
    98   154   155    2
    99   119   118    2
   100   166   167    1
   101   166   165    1
   102   175   174    2
   103   173   174    1
   104   173   172    1
   105   105   107   ar
   106   105   103   ar
   107   118   117    1
   108   107   106   ar
   109   171   170    2
   110   172   170   am
   111   111   110    2
   112   160   161    1
   113   103   102   ar
   114   170   169    1
   115   117   120    1
   116   117   116    1
   117   161   164    1
   118   161   162    1
   119   165   164    1
   120    59    56    1
   121    57    56    1
   122    57    58    2
   123    56    55    1
   124   106   104   ar
   125    87    86    1
   126    84    86   ar
   127    84    82   ar
   128   110   116   am
   129   110   109    1
   130   162   163    2
   131   169   168    1
   132   102   104   ar
   133   102   101    1
   134    86    85   ar
   135    82    81   ar
   136   108   109    1
   137   108    99   am
   138   112   109    1
   139   112   113    1
   140   101    98    1
   141    85    83   ar
   142    81    83   ar
   143    81    80    1
   144    98    99    1
   145    98    97    1
   146    99   100    2
   147    75    73    1
   148   113   114    1
   149    91    90    2
   150    80    77    1
   151   114   115    1
   152    76    77    1
   153    97    90   am
   154    74    73    1
   155    73    70    1
   156    90    89    1
   157    79    78    2
   158    77    78    1
   159    78    88   am
   160    88    89    1
   161    89    92    1
   162    70    69    1
   163    70    71    1
   164    93    92    1
   165    93    94    1
   166    71    72    2
   167    94    95   ar
   168    94    96   ar
