@<TRIPOS>MOLECULE
tmp/6ctrD00.pdb
 153 145 0 0 0
SMALL
GASTEIGER

@<TRIPOS>ATOM
      1  N         18.1340   -1.6330    9.0760 N.3    31  ARG31      -0.1245
      2  CA        16.6940   -1.8410    9.2150 C.3    31  ARG31       0.1563
      3  C         16.0570   -2.2220    7.8840 C.2    31  ARG31       0.2260
      4  O         15.1350   -3.0420    7.8460 O.2    31  ARG31      -0.2867
      5  CB        16.0390   -0.5930    9.7920 C.3    31  ARG31       0.0307
      6  CG        16.3490   -0.4230   11.2740 C.3    31  ARG31       0.0489
      7  CD        15.0730   -0.2020   12.0200 C.3    31  ARG31       0.2205
      8  NE        14.4970    1.0550   11.5790 N.pl3  31  ARG31      -0.0865
      9  CZ        13.2170    1.3710   11.6950 C.cat  31  ARG31       0.5346
     10  NH1       12.3620    0.5040   12.2350 N.pl3  31  ARG31       0.1354
     11  NH2       12.8020    2.5560   11.2620 N.pl3  31  ARG31       0.1354
     12  N          3.2570   -3.4320   24.8360 N.3   140  ARG140     -0.1245
     13  CA         2.4360   -3.2760   23.6410 C.3   140  ARG140      0.1563
     14  C          0.9690   -3.1030   24.0260 C.2   140  ARG140      0.2260
     15  O          0.5560   -3.4140   25.1460 O.2   140  ARG140     -0.2867
     16  CB         2.5510   -4.4860   22.7120 C.3   140  ARG140      0.0307
     17  CG         3.9480   -4.9310   22.3380 C.3   140  ARG140      0.0489
     18  CD         3.9700   -5.2870   20.8630 C.3   140  ARG140      0.2205
     19  NE         4.4430   -4.1310   20.1250 N.pl3 140  ARG140     -0.0865
     20  CZ         3.9600   -3.7270   18.9670 C.cat 140  ARG140      0.5346
     21  NH1        2.9610   -4.3830   18.3940 N.pl3 140  ARG140      0.1354
     22  NH2        4.4700   -2.6470   18.3990 N.pl3 140  ARG140      0.1354
     23  N         -1.0940    4.4450   11.9000 N.3   170  GLY170     -0.1210
     24  CA        -0.1200    3.5230   12.4990 C.3   170  GLY170      0.1956
     25  C         -0.3880    2.0490   12.2040 C.2   170  GLY170      0.2612
     26  O         -1.0980    1.6770   11.2690 O.2   170  GLY170     -0.2717
     27  N          0.2130    1.1950   13.0410 N.am  171  SER171     -0.1952
     28  CA         0.0030   -0.2440   12.9200 C.3   171  SER171      0.1924
     29  C         -1.4660   -0.6170   13.0750 C.2   171  SER171      0.2314
     30  O         -1.8930   -1.6550   12.5660 O.2   171  SER171     -0.2863
     31  CB         0.8280   -0.9930   13.9730 C.3   171  SER171      0.2116
     32  OG         0.6340   -0.4200   15.2620 O.3   171  SER171     -0.2180
     33  N         -2.9580   -0.6370    9.7290 N.3   174  ARG174     -0.1245
     34  CA        -2.3990   -1.7780    9.0190 C.3   174  ARG174      0.1563
     35  C         -2.9360   -3.1010    9.5490 C.2   174  ARG174      0.2260
     36  O         -2.4810   -4.1610    9.1100 O.2   174  ARG174     -0.2867
     37  CB        -0.8680   -1.7430    9.1000 C.3   174  ARG174      0.0307
     38  CG        -0.2500   -0.4560    8.5050 C.3   174  ARG174      0.0489
     39  CD         1.2480   -0.6100    8.2280 C.3   174  ARG174      0.2205
     40  NE         1.9590   -1.1750    9.3820 N.pl3 174  ARG174     -0.0865
     41  CZ         2.5300   -0.4610   10.3470 C.cat 174  ARG174      0.5346
     42  NH1        2.4900    0.8750   10.3290 N.pl3 174  ARG174      0.1354
     43  NH2        3.1540   -1.0920   11.3370 N.pl3 174  ARG174      0.1354
     44  N         -0.3270   -2.8930   18.9900 N.3   179  SER179     -0.1202
     45  CA         0.3110   -1.6490   18.5780 C.3   179  SER179      0.2020
     46  C          1.2470   -1.1480   19.6710 C.2   179  SER179      0.2619
     47  O          1.0280   -1.3890   20.8580 O.2   179  SER179     -0.2717
     48  CB        -0.7300   -0.5680   18.2620 C.3   179  SER179      0.2103
     49  OG        -1.4740   -0.9250   17.1080 O.3   179  SER179     -0.2182
     50  N          2.2930   -0.4280   19.2570 N.am  180  GLY180     -0.1942
     51  CA         3.1920    0.1670   20.2310 C.3   180  GLY180      0.2014
     52  C          2.6190    1.4090   20.8790 C.2   180  GLY180      0.2638
     53  O          2.9730    1.7340   22.0160 O.2   180  GLY180     -0.2714
     54  N          1.7260    2.1080   20.1810 N.am  181  ASP181     -0.1971
     55  CA         1.1430    3.3550   20.6640 C.3   181  ASP181      0.1709
     56  C         -0.0980    3.6410   19.8250 C.2   181  ASP181      0.2293
     57  O         -0.5050    2.8190   18.9970 O.2   181  ASP181     -0.2864
     58  CB         2.1640    4.4990   20.6150 C.3   181  ASP181      0.1436
     59  CG         2.5660    4.8960   19.1980 C.2   181  ASP181      0.3671
     60  OD1        1.9490    4.4560   18.2050 O.co2 181  ASP181     -0.2456
     61  OD2        3.5290    5.6780   19.0790 O.co2 181  ASP181     -0.2456
     62  N         -1.7660    6.3670   17.0910 N.3   183  ASP183     -0.1239
     63  CA        -1.5130    7.4470   16.1450 C.3   183  ASP183      0.1674
     64  C         -2.8470    7.9180   15.5890 C.2   183  ASP183      0.2266
     65  O         -3.6020    7.1120   15.0270 O.2   183  ASP183     -0.2867
     66  CB        -0.5940    6.9570   15.0250 C.3   183  ASP183      0.1410
     67  CG         0.7110    6.4120   15.5670 C.2   183  ASP183      0.3668
     68  OD1        1.4520    7.2010   16.1710 O.co2 183  ASP183     -0.2456
     69  OD2        0.9640    5.2050   15.4530 O.co2 183  ASP183     -0.2456
     70  N          0.0820   10.0910   19.6520 N.3   247  ASP247     -0.1239
     71  CA         0.4810   11.1290   18.7110 C.3   247  ASP247      0.1674
     72  C         -0.7630   11.5650   17.9580 C.2   247  ASP247      0.2266
     73  O         -1.5040   10.7190   17.4530 O.2   247  ASP247     -0.2867
     74  CB         1.5110   10.6020   17.7080 C.3   247  ASP247      0.1410
     75  CG         2.8140   10.1860   18.3570 C.2   247  ASP247      0.3668
     76  OD1        3.3360   10.9570   19.1750 O.co2 247  ASP247     -0.2456
     77  OD2        3.3070    9.0770   18.0460 O.co2 247  ASP247     -0.2456
     78  N          1.2300    8.8710    4.8410 N.3   262  TYR262     -0.1227
     79  CA         2.3630    9.0710    5.7440 C.3   262  TYR262      0.1736
     80  C          2.1130    8.4160    7.1000 C.2   262  TYR262      0.2595
     81  O          2.9560    7.6650    7.6040 O.2   262  TYR262     -0.2718
     82  CB         2.6380   10.5680    5.9220 C.3   262  TYR262      0.0548
     83  CG         3.3040   10.9100    7.2420 C.ar  262  TYR262     -0.0200
     84  CD1        4.6620   10.6540    7.4520 C.ar  262  TYR262     -0.0009
     85  CD2        2.5740   11.4970    8.2800 C.ar  262  TYR262     -0.0009
     86  CE1        5.2760   10.9700    8.6760 C.ar  262  TYR262      0.0417
     87  CE2        3.1680   11.8110    9.4870 C.ar  262  TYR262      0.0417
     88  CZ         4.5090   11.5480    9.6890 C.ar  262  TYR262      0.1957
     89  OH         5.0760   11.8730   10.9090 O.3   262  TYR262     -0.2866
     90  N          0.9720    8.7170    7.7210 N.am  263  PHE263     -0.1962
     91  CA         0.7470    8.3110    9.1060 C.3   263  PHE263      0.1771
     92  C          0.3860    6.8370    9.2300 C.2   263  PHE263      0.2620
     93  O          0.4100    6.2930   10.3400 O.2   263  PHE263     -0.2715
     94  CB        -0.3530    9.1770    9.7430 C.3   263  PHE263      0.0574
     95  CG        -0.0570    9.6000   11.1630 C.ar  263  PHE263     -0.0200
     96  CD1        1.2470    9.6290   11.6420 C.ar  263  PHE263     -0.0042
     97  CD2       -1.0860    9.9820   12.0100 C.ar  263  PHE263     -0.0042
     98  CE1        1.5180   10.0230   12.9510 C.ar  263  PHE263     -0.0003
     99  CE2       -0.8280   10.3820   13.3120 C.ar  263  PHE263     -0.0003
    100  CZ         0.4780   10.4070   13.7850 C.ar  263  PHE263     -0.0000
    101  N          0.0530    6.1720    8.1290 N.am  264  THR264     -0.1937
    102  CA        -0.1660    4.7380    8.1960 C.3   264  THR264      0.2028
    103  C          1.1460    3.9680    8.1780 C.2   264  THR264      0.2643
    104  O          1.2350    2.8930    8.7820 O.2   264  THR264     -0.2714
    105  CB        -1.0730    4.3140    7.0440 C.3   264  THR264      0.1808
    106  OG1       -2.3540    4.9090    7.2690 O.3   264  THR264     -0.2208
    107  CG2       -1.2300    2.8030    6.9990 C.3   264  THR264      0.0379
    108  N          2.1690    4.4980    7.5100 N.am  265  GLY265     -0.1939
    109  CA         3.4620    3.8300    7.5110 C.3   265  GLY265      0.2014
    110  C          3.4360    2.4470    6.8670 C.2   265  GLY265      0.2640
    111  O          2.6380    2.2040    5.9660 O.2   265  GLY265     -0.2714
    112  N          4.2770    1.5190    7.3170 N.am  266  SER266     -0.1935
    113  CA         5.2660    1.7180    8.3760 C.3   266  SER266      0.2055
    114  C          6.3570    2.7410    8.0350 C.2   266  SER266      0.2643
    115  O          6.3980    3.2920    6.9230 O.2   266  SER266     -0.2714
    116  CB         5.9390    0.3850    8.6860 C.3   266  SER266      0.2130
    117  OG         6.8220    0.0470    7.6210 O.3   266  SER266     -0.2179
    118  N          7.2430    2.9880    8.9980 N.am  267  ASP267     -0.1971
    119  CA         8.3220    3.9360    8.7560 C.3   267  ASP267      0.1709
    120  C          9.2350    3.4460    7.6420 C.2   267  ASP267      0.2293
    121  O          9.6280    4.2240    6.7660 O.2   267  ASP267     -0.2864
    122  CB         9.1060    4.2000   10.0450 C.3   267  ASP267      0.1436
    123  CG         9.6630    2.9300   10.6870 C.2   267  ASP267      0.3671
    124  OD1        9.2770    1.8070   10.2930 O.co2 267  ASP267     -0.2456
    125  OD2       10.4830    3.0670   11.6220 O.co2 267  ASP267     -0.2456
    126  N          7.5230    3.8470    4.3120 N.3   270  ASN270     -0.1225
    127  CA         7.5400    5.2260    3.8330 C.3   270  ASN270      0.1785
    128  C          8.8910    5.5710    3.2210 C.2   270  ASN270      0.2597
    129  O          8.9590    6.2120    2.1670 O.2   270  ASN270     -0.2718
    130  CB         7.2280    6.1930    4.9800 C.3   270  ASN270      0.1169
    131  CG         5.7680    6.1800    5.3860 C.2   270  ASN270      0.2627
    132  OD1        4.9280    5.5940    4.7060 O.2   270  ASN270     -0.2716
    133  ND2        5.4540    6.8400    6.5060 N.am  270  ASN270     -0.0877
    134  N          9.9790    5.1790    3.8910 N.am  271  LYS271     -0.1980
    135  CA        11.3150    5.4140    3.3460 C.3   271  LYS271      0.1596
    136  C         11.4820    4.7410    1.9890 C.2   271  LYS271      0.2287
    137  O         11.9550    5.3610    1.0270 O.2   271  LYS271     -0.2864
    138  CB        12.3760    4.9140    4.3340 C.3   271  LYS271      0.0298
    139  CG        12.6860    5.8740    5.4710 C.3   271  LYS271      0.0038
    140  CD        13.8000    5.3190    6.3630 C.3   271  LYS271      0.0206
    141  CE        13.2590    4.8210    7.7000 C.3   271  LYS271      0.1093
    142  NZ        14.3030    4.1200    8.5280 N.3   271  LYS271     -0.1314
    143  N          9.1350    6.6640   -0.5810 N.3   274  ARG274     -0.1245
    144  CA         9.6770    7.9700   -0.9220 C.3   274  ARG274      0.1563
    145  C         10.9770    7.8410   -1.7170 C.2   274  ARG274      0.2260
    146  O         11.2070    8.6040   -2.6610 O.2   274  ARG274     -0.2867
    147  CB         9.8630    8.7900    0.3560 C.3   274  ARG274      0.0307
    148  CG         8.5280    9.1300    1.0140 C.3   274  ARG274      0.0489
    149  CD         8.6890    9.8860    2.3170 C.3   274  ARG274      0.2205
    150  NE         7.3690   10.2000    2.8690 N.pl3 274  ARG274     -0.0865
    151  CZ         7.1520   11.1290    3.7930 C.cat 274  ARG274      0.5346
    152  NH1        8.1680   11.8450    4.2690 N.pl3 274  ARG274      0.1354
    153  NH2        5.9180   11.3530    4.2280 N.pl3 274  ARG274      0.1354
@<TRIPOS>BOND
     1   146   145    2
     2   145   144    1
     3   144   143    1
     4   144   147    1
     5   147   148    1
     6   148   149    1
     7   137   136    2
     8   136   135    1
     9   129   128    2
    10   149   150    1
    11   150   151    2
    12   128   127    1
    13   128   134   am
    14   135   134    1
    15   135   138    1
    16   151   153    1
    17   151   152    1
    18   127   126    1
    19   127   130    1
    20   138   139    1
    21   132   131    2
    22    78    79    1
    23   130   131    1
    24   131   133   am
    25   139   140    1
    26    79    82    1
    27    79    80    1
    28    82    83    1
    29   111   110    2
    30   140   141    1
    31   121   120    2
    32   110   112   am
    33   110   109    1
    34   115   114    2
    35   107   105    1
    36   105   106    1
    37   105   102    1
    38    80    81    2
    39    80    90   am
    40    83    84   ar
    41    83    85   ar
    42   112   113    1
    43    84    86   ar
    44   108   109    1
    45   108   103   am
    46   117   116    1
    47   120   119    1
    48   141   142    1
    49    90    91    1
    50     4     3    2
    51     3     2    1
    52   114   113    1
    53   114   118   am
    54   101   102    1
    55   101    92   am
    56   103   102    1
    57   103   104    2
    58    39    38    1
    59    39    40    1
    60    85    87   ar
    61   113   116    1
    62    38    37    1
    63    86    88   ar
    64   119   118    1
    65   119   122    1
    66    34    37    1
    67    34    35    1
    68    34    33    1
    69     1     2    1
    70    91    92    1
    71    91    94    1
    72    36    35    2
    73     2     5    1
    74    92    93    2
    75    40    41    2
    76    87    88   ar
    77    88    89    1
    78    94    95    1
    79     5     6    1
    80   122   123    1
    81   124   123   ar
    82    42    41    1
    83    41    43    1
    84   123   125   ar
    85    95    96   ar
    86    95    97   ar
    87    11     9    1
    88    26    25    2
    89     6     7    1
    90     8     9    2
    91     8     7    1
    92    96    98   ar
    93     9    10    1
    94    23    24    1
    95    97    99   ar
    96    25    24    1
    97    25    27   am
    98    30    29    2
    99    28    27    1
   100    28    29    1
   101    28    31    1
   102    98   100   ar
   103    99   100   ar
   104    31    32    1
   105    66    67    1
   106    66    63    1
   107    65    64    2
   108    69    67   ar
   109    67    68   ar
   110    64    63    1
   111    63    62    1
   112    49    48    1
   113    73    72    2
   114    74    75    1
   115    74    71    1
   116    72    71    1
   117    77    75   ar
   118    60    59   ar
   119    48    45    1
   120    75    76   ar
   121    21    20    1
   122    22    20    1
   123    45    44    1
   124    45    46    1
   125    71    70    1
   126    20    19    2
   127    57    56    2
   128    61    59   ar
   129    59    58    1
   130    50    46   am
   131    50    51    1
   132    46    47    2
   133    56    55    1
   134    19    18    1
   135    54    55    1
   136    54    52   am
   137    51    52    1
   138    58    55    1
   139    18    17    1
   140    52    53    2
   141    17    16    1
   142    16    13    1
   143    13    14    1
   144    13    12    1
   145    14    15    2
