@<TRIPOS>MOLECULE
tmp/6ctyC00.pdb
 125 118 0 0 0
SMALL
GASTEIGER

@<TRIPOS>ATOM
      1  N         11.2490   41.7900   88.0180 N.3    23  HIS23      -0.1241
      2  CA        12.3540   41.1160   87.3570 C.3    23  HIS23       0.1621
      3  C         13.0540   40.1330   88.2870 C.2    23  HIS23       0.2264
      4  O         13.8530   40.5440   89.1370 O.2    23  HIS23      -0.2867
      5  CB        13.3790   42.1560   86.9190 C.3    23  HIS23       0.0745
      6  CG        14.4380   41.6170   86.0160 C.ar   23  HIS23       0.0817
      7  ND1       14.7710   42.2360   84.8350 N.ar   23  HIS23      -0.2268
      8  CD2       15.2370   40.5270   86.1120 C.ar   23  HIS23       0.1154
      9  CE1       15.7380   41.5590   84.2450 C.ar   23  HIS23       0.1986
     10  NE2       16.0350   40.5120   84.9990 N.ar   23  HIS23      -0.2212
     11  N         14.8530   35.9030   88.7380 N.3    25  HIS25      -0.1241
     12  CA        15.1940   34.5440   88.3250 C.3    25  HIS25       0.1621
     13  C         14.9510   33.5950   89.4750 C.2    25  HIS25       0.2264
     14  O         15.5820   33.7160   90.5280 O.2    25  HIS25      -0.2867
     15  CB        16.6500   34.4610   87.8980 C.3    25  HIS25       0.0745
     16  CG        16.9890   35.3900   86.7820 C.ar   25  HIS25       0.0817
     17  ND1       16.9930   34.9910   85.4680 N.ar   25  HIS25      -0.2268
     18  CD2       17.2820   36.7110   86.7740 C.ar   25  HIS25       0.1154
     19  CE1       17.3010   36.0170   84.6990 C.ar   25  HIS25       0.1986
     20  NE2       17.4770   37.0770   85.4660 N.ar   25  HIS25      -0.2212
     21  N         15.1010   30.1910   88.9260 N.3    27  ARG27      -0.1245
     22  CA        15.7450   28.9230   88.5700 C.3    27  ARG27       0.1563
     23  C         14.7330   27.7670   88.6340 C.2    27  ARG27       0.2260
     24  O         13.5540   27.9670   88.3440 O.2    27  ARG27      -0.2867
     25  CB        16.9670   28.6540   89.4560 C.3    27  ARG27       0.0307
     26  CG        17.9050   29.8360   89.6240 C.3    27  ARG27       0.0489
     27  CD        18.4480   30.3460   88.2970 C.3    27  ARG27       0.2205
     28  NE        19.5390   31.2950   88.5140 N.pl3  27  ARG27      -0.0865
     29  CZ        19.9630   32.2020   87.6340 C.cat  27  ARG27       0.5346
     30  NH1       19.4070   32.3280   86.4390 N.pl3  27  ARG27       0.1354
     31  NH2       20.9700   33.0010   87.9640 N.pl3  27  ARG27       0.1354
     32  N         15.0340   32.2380   81.3440 N.3    51  ASN51      -0.1240
     33  CA        16.3470   31.7250   80.9240 C.3    51  ASN51       0.1653
     34  C         16.8060   30.5030   81.7190 C.2    51  ASN51       0.2266
     35  O         17.8660   30.5130   82.3430 O.2    51  ASN51      -0.2867
     36  CB        17.4180   32.8290   80.9490 C.3    51  ASN51       0.1155
     37  CG        17.6690   33.3790   82.3390 C.2    51  ASN51       0.2627
     38  OD1       16.7860   33.3350   83.2060 O.2    51  ASN51      -0.2716
     39  ND2       18.8720   33.9060   82.5600 N.am   51  ASN51      -0.0877
     40  N         16.8180   38.6290   75.1320 N.3   110  TYR110     -0.1241
     41  CA        18.2430   38.4800   75.4410 C.3   110  TYR110      0.1605
     42  C         19.0410   38.5370   74.1550 C.2   110  TYR110      0.2264
     43  O         18.8670   37.6810   73.2890 O.2   110  TYR110     -0.2867
     44  CB        18.5470   37.1230   76.0710 C.3   110  TYR110      0.0534
     45  CG        17.9690   36.9140   77.4350 C.ar  110  TYR110     -0.0201
     46  CD1       18.5870   37.4470   78.5670 C.ar  110  TYR110     -0.0009
     47  CD2       16.8060   36.1700   77.6030 C.ar  110  TYR110     -0.0009
     48  CE1       18.0540   37.2680   79.8140 C.ar  110  TYR110      0.0417
     49  CE2       16.2610   35.9700   78.8510 C.ar  110  TYR110      0.0417
     50  CZ        16.8860   36.5150   79.9550 C.ar  110  TYR110      0.1957
     51  OH        16.3330   36.3000   81.2000 O.3   110  TYR110     -0.2866
     52  N         24.4330   37.1160   78.4400 N.3   115  THR115     -0.1203
     53  CA        24.4110   36.7130   79.8380 C.3   115  THR115      0.1994
     54  C         24.1960   35.2000   80.0380 C.2   115  THR115      0.2618
     55  O         24.4230   34.4040   79.1290 O.2   115  THR115     -0.2717
     56  CB        23.3440   37.5450   80.6030 C.3   115  THR115      0.1784
     57  OG1       23.4830   37.3260   82.0160 O.3   115  THR115     -0.2211
     58  CG2       21.9000   37.1950   80.1270 C.3   115  THR115      0.0376
     59  N         23.7950   34.8280   81.2560 N.am  116  THR116     -0.1952
     60  CA        23.4890   33.4440   81.6480 C.3   116  THR116      0.1897
     61  C         22.3720   32.8120   80.8000 C.2   116  THR116      0.2313
     62  O         21.2870   33.3900   80.6550 O.2   116  THR116     -0.2863
     63  CB        23.0630   33.3900   83.1340 C.3   116  THR116      0.1794
     64  OG1       24.0790   33.9950   83.9430 O.3   116  THR116     -0.2208
     65  CG2       22.8290   31.9510   83.6050 C.3   116  THR116      0.0378
     66  N         17.0080   43.0030   77.9700 N.3   145  HIS145     -0.1241
     67  CA        18.3410   43.0610   78.5500 C.3   145  HIS145      0.1621
     68  C         19.1580   43.8720   77.5530 C.2   145  HIS145      0.2264
     69  O         19.5540   43.3530   76.5210 O.2   145  HIS145     -0.2867
     70  CB        18.9280   41.6610   78.7360 C.3   145  HIS145      0.0745
     71  CG        20.3310   41.6660   79.2530 C.ar  145  HIS145      0.0817
     72  ND1       20.6730   41.2070   80.5120 N.ar  145  HIS145     -0.2268
     73  CD2       21.4820   42.1100   78.6850 C.ar  145  HIS145      0.1154
     74  CE1       21.9760   41.3560   80.6810 C.ar  145  HIS145      0.1986
     75  NE2       22.4870   41.9130   79.5970 N.ar  145  HIS145     -0.2212
     76  N         16.8670   46.4290   84.3860 N.3   183  HIS183     -0.1241
     77  CA        18.0550   46.7140   85.1960 C.3   183  HIS183      0.1621
     78  C         19.0360   47.7210   84.6100 C.2   183  HIS183      0.2264
     79  O         20.1610   47.3850   84.2190 O.2   183  HIS183     -0.2867
     80  CB        18.7690   45.4130   85.6110 C.3   183  HIS183      0.0745
     81  CG        18.9870   44.4330   84.5010 C.ar  183  HIS183      0.0817
     82  ND1       19.4160   44.8060   83.2470 N.ar  183  HIS183     -0.2268
     83  CD2       18.8640   43.0840   84.4650 C.ar  183  HIS183      0.1154
     84  CE1       19.5220   43.7340   82.4830 C.ar  183  HIS183      0.1986
     85  NE2       19.2060   42.6740   83.1950 N.ar  183  HIS183     -0.2212
     86  N         25.3690   41.0680   85.4580 N.3   228  LEU228     -0.1245
     87  CA        25.2410   41.6800   84.1400 C.3   228  LEU228      0.1561
     88  C         23.9130   42.4090   84.1300 C.2   228  LEU228      0.2260
     89  O         22.9140   41.8510   84.5960 O.2   228  LEU228     -0.2867
     90  CB        25.3260   40.6530   83.0280 C.3   228  LEU228      0.0270
     91  CG        26.7320   40.0330   82.9160 C.3   228  LEU228      0.0019
     92  CD1       26.8370   39.0700   81.7560 C.3   228  LEU228      0.0001
     93  CD2       27.8340   41.0820   82.7990 C.3   228  LEU228      0.0001
     94  N         16.3190   41.6490   89.8310 N.3   256  ASP256     -0.1239
     95  CA        17.1790   40.7680   89.0490 C.3   256  ASP256      0.1674
     96  C         17.9320   39.8110   89.9680 C.2   256  ASP256      0.2266
     97  O         19.1050   39.5210   89.7550 O.2   256  ASP256     -0.2867
     98  CB        18.1260   41.5630   88.1310 C.3   256  ASP256      0.1410
     99  CG        18.9260   40.6550   87.1640 C.2   256  ASP256      0.3668
    100  OD1       18.3200   39.7360   86.5250 O.co2 256  ASP256     -0.2456
    101  OD2       20.1670   40.8840   87.0330 O.co2 256  ASP256     -0.2456
    102  N         19.4420   36.7290   90.9620 N.3   258  ALA258     -0.1245
    103  CA        20.0040   35.7570   90.0370 C.3   258  ALA258      0.1562
    104  C         20.9640   34.8240   90.7790 C.2   258  ALA258      0.2260
    105  O         22.1870   34.9710   90.6750 O.2   258  ALA258     -0.2867
    106  CB        20.7230   36.4870   88.9120 C.3   258  ALA258      0.0290
    107  N         23.2950   31.7950   92.1490 N.3   260  HIS260     -0.1241
    108  CA        24.1400   30.6730   91.7550 C.3   260  HIS260      0.1621
    109  C         24.7880   30.0850   92.9880 C.2   260  HIS260      0.2264
    110  O         25.0420   30.7990   93.9630 O.2   260  HIS260     -0.2867
    111  CB        25.2560   31.1290   90.8300 C.3   260  HIS260      0.0745
    112  CG        24.7770   31.7980   89.5870 C.ar  260  HIS260      0.0817
    113  ND1       24.4610   31.0940   88.4450 N.ar  260  HIS260     -0.2268
    114  CD2       24.5660   33.1060   89.3010 C.ar  260  HIS260      0.1154
    115  CE1       24.0810   31.9470   87.5100 C.ar  260  HIS260      0.1986
    116  NE2       24.1330   33.1720   88.0030 N.ar  260  HIS260     -0.2212
    117  N         27.6830   35.3440   86.4450 N.3   270  ALA270     -0.1231
    118  CA        27.0960   36.6350   86.7660 C.3   270  ALA270      0.1694
    119  C         25.7630   36.4810   87.4790 C.2   270  ALA270      0.2592
    120  O         24.9140   35.6810   87.0800 O.2   270  ALA270     -0.2718
    121  CB        26.9040   37.4530   85.5070 C.3   270  ALA270      0.0304
    122  N         25.5800   37.2650   88.5370 N.am  271  GLY271     -0.1957
    123  CA        24.2940   37.3520   89.2020 C.3   271  GLY271      0.1869
    124  C         24.4190   37.4770   90.6980 C.2   271  GLY271      0.2309
    125  O         25.2130   36.7750   91.3240 O.2   271  GLY271     -0.2863
@<TRIPOS>BOND
     1    43    42    2
     2    42    41    1
     3    40    41    1
     4    41    44    1
     5    44    45    1
     6    69    68    2
     7    45    47   ar
     8    45    46   ar
     9    68    67    1
    10    47    49   ar
    11    66    67    1
    12    52    53    1
    13    67    70    1
    14    46    48   ar
    15    73    71   ar
    16    73    75   ar
    17    70    71    1
    18    49    50   ar
    19    55    54    2
    20    71    72   ar
    21    75    74   ar
    22    48    50   ar
    23    53    54    1
    24    53    56    1
    25    50    51    1
    26    54    59   am
    27    58    56    1
    28    72    74   ar
    29    56    57    1
    30    62    61    2
    31    61    60    1
    32    33    36    1
    33    33    32    1
    34    33    34    1
    35    36    37    1
    36    59    60    1
    37    60    63    1
    38    34    35    2
    39    92    91    1
    40    37    39   am
    41    37    38    2
    42    84    85   ar
    43    84    82   ar
    44    93    91    1
    45    91    90    1
    46    90    87    1
    47    63    65    1
    48    63    64    1
    49    85    83   ar
    50    82    81   ar
    51    88    87    1
    52    88    89    2
    53    87    86    1
    54    79    78    2
    55     9     7   ar
    56     9    10   ar
    57    76    77    1
    58    83    81   ar
    59    81    80    1
    60    78    77    1
    61    19    20   ar
    62    19    17   ar
    63     7     6   ar
    64    10     8   ar
    65    77    80    1
    66    20    18   ar
    67    17    16   ar
    68   121   118    1
    69     6     8   ar
    70     6     5    1
    71    30    29    1
    72   117   118    1
    73   100    99   ar
    74   118   119    1
    75    18    16   ar
    76    16    15    1
    77     5     2    1
    78   101    99   ar
    79   120   119    2
    80    99    98    1
    81     2     1    1
    82     2     3    1
    83   119   122   am
    84   115   116   ar
    85   115   113   ar
    86    29    31    1
    87    29    28    2
    88    15    12    1
    89   116   114   ar
    90    98    95    1
    91     3     4    2
    92    27    28    1
    93    27    26    1
    94    12    11    1
    95    12    13    1
    96    24    23    2
    97   113   112   ar
    98   122   123    1
    99    22    23    1
   100    22    21    1
   101    22    25    1
   102   106   103    1
   103    95    94    1
   104    95    96    1
   105   123   124    1
   106   114   112   ar
   107    25    26    1
   108    13    14    2
   109   112   111    1
   110    97    96    2
   111   103   104    1
   112   103   102    1
   113   105   104    2
   114   124   125    2
   115   111   108    1
   116   108   107    1
   117   108   109    1
   118   109   110    2
