@<TRIPOS>MOLECULE
tmp/6cu5A00.pdb
 173 163 0 0 0
SMALL
GASTEIGER

@<TRIPOS>ATOM
      1  N          8.8220    5.8620   28.0410 N.3     3  ILE3       -0.1231
      2  CA         8.8940    4.7400   28.9750 C.3     3  ILE3        0.1692
      3  C          8.6380    5.2210   30.3930 C.2     3  ILE3        0.2592
      4  O          7.8940    4.6000   31.1580 O.2     3  ILE3       -0.2718
      5  CB        10.2580    4.0340   28.8710 C.3     3  ILE3        0.0266
      6  CG1       10.3240    3.2900   27.5210 C.3     3  ILE3        0.0019
      7  CG2       10.4920    3.1120   30.0430 C.3     3  ILE3        0.0020
      8  CD1       11.6950    2.7820   27.1700 C.3     3  ILE3        0.0001
      9  N          9.2860    6.3200   30.7750 N.am    4  HIS4       -0.1976
     10  CA         9.2410    6.7580   32.1620 C.3     4  HIS4        0.1656
     11  C          7.8930    7.3670   32.5340 C.2     4  HIS4        0.2291
     12  O          7.4430    7.2060   33.6750 O.2     4  HIS4       -0.2864
     13  CB        10.3900    7.7240   32.4100 C.3     4  HIS4        0.0771
     14  CG        11.7150    7.1540   32.0240 C.ar    4  HIS4        0.0820
     15  ND1       12.3340    7.4480   30.8270 N.ar    4  HIS4       -0.2267
     16  CD2       12.5100    6.2530   32.6500 C.ar    4  HIS4        0.1154
     17  CE1       13.4730    6.7820   30.7490 C.ar    4  HIS4        0.1986
     18  NE2       13.6000    6.0460   31.8400 N.ar    4  HIS4       -0.2212
     19  N          6.0140    4.1840   33.1740 N.3     7  MET7       -0.1230
     20  CA         6.4440    3.6050   34.4370 C.3     7  MET7        0.1702
     21  C          5.8420    4.3630   35.6230 C.2     7  MET7        0.2592
     22  O          5.3040    3.7500   36.5580 O.2     7  MET7       -0.2718
     23  CB         7.9700    3.6150   34.4920 C.3     7  MET7        0.0401
     24  CG         8.6240    2.5820   35.3810 C.3     7  MET7        0.0596
     25  SD         9.0550    1.0820   34.4790 S.3     7  MET7       -0.1393
     26  CE         7.8310   -0.0190   35.1210 C.3     7  MET7        0.0692
     27  N          5.9270    5.7090   35.6000 N.am    8  LEU8       -0.1980
     28  CA         5.5210    6.5310   36.7440 C.3     8  LEU8        0.1596
     29  C          4.0130    6.5670   36.9470 C.2     8  LEU8        0.2287
     30  O          3.5500    6.6800   38.0900 O.2     8  LEU8       -0.2864
     31  CB         6.0310    7.9570   36.5830 C.3     8  LEU8        0.0297
     32  CG         7.5080    8.2680   36.7980 C.3     8  LEU8        0.0022
     33  CD1        7.7620    9.7670   36.5390 C.3     8  LEU8        0.0001
     34  CD2        7.9830    7.8380   38.1990 C.3     8  LEU8        0.0001
     35  N          2.6710   -0.4910   40.7280 N.3    13  ARG13      -0.1245
     36  CA         4.1030   -0.7440   40.7670 C.3    13  ARG13       0.1563
     37  C          4.8510    0.2980   41.6070 C.2    13  ARG13       0.2260
     38  O          5.6190   -0.0610   42.5120 O.2    13  ARG13      -0.2867
     39  CB         4.6730   -0.7810   39.3660 C.3    13  ARG13       0.0307
     40  CG         6.1570   -0.8160   39.4410 C.3    13  ARG13       0.0489
     41  CD         6.7540   -0.1270   38.2950 C.3    13  ARG13       0.2205
     42  NE         6.9690    1.3060   38.4960 N.pl3  13  ARG13      -0.0865
     43  CZ         8.1720    1.8690   38.5180 C.cat  13  ARG13       0.5346
     44  NH1        9.2550    1.1150   38.3730 N.pl3  13  ARG13       0.1354
     45  NH2        8.2950    3.1790   38.6770 N.pl3  13  ARG13       0.1354
     46  N         20.9970    2.2300   42.6720 N.3    35  ASP35      -0.1239
     47  CA        19.7550    2.2260   41.8980 C.3    35  ASP35       0.1674
     48  C         20.1010    1.8730   40.4510 C.2    35  ASP35       0.2266
     49  O         20.7270    2.6730   39.7470 O.2    35  ASP35      -0.2867
     50  CB        19.0380    3.5740   42.0030 C.3    35  ASP35       0.1410
     51  CG        17.6510    3.5650   41.3420 C.2    35  ASP35       0.3668
     52  OD1       17.2430    2.5000   40.8000 O.co2  35  ASP35      -0.2456
     53  OD2       16.9690    4.6250   41.3720 O.co2  35  ASP35      -0.2456
     54  N         19.2950    1.3780   36.7420 N.3    37  GLY37      -0.1210
     55  CA        18.2790    1.9450   35.8840 C.3    37  GLY37       0.1956
     56  C         17.4520    2.9590   36.6400 C.2    37  GLY37       0.2612
     57  O         16.2600    2.7450   36.8890 O.2    37  GLY37      -0.2717
     58  N         18.0870    4.0740   37.0200 N.am   38  CYS38      -0.1956
     59  CA        17.4330    5.0440   37.8970 C.3    38  CYS38       0.1843
     60  C         16.3860    5.8780   37.1740 C.2    38  CYS38       0.2626
     61  O         15.4500    6.3560   37.8230 O.2    38  CYS38      -0.2714
     62  CB        18.4680    5.9650   38.5440 C.3    38  CYS38       0.0997
     63  SG        19.5820    6.7550   37.3700 S.3    38  CYS38      -0.0797
     64  N         16.5160    6.0510   35.8610 N.am   39  GLY39      -0.1940
     65  CA        15.5230    6.8070   35.1170 C.3    39  GLY39       0.2014
     66  C         15.4710    8.2600   35.5500 C.2    39  GLY39       0.2639
     67  O         16.4850    8.9740   35.5580 O.2    39  GLY39      -0.2714
     68  N         14.2640    8.7220   35.8860 N.am   40  THR40      -0.1950
     69  CA        14.1010   10.0780   36.3890 C.3    40  THR40       0.1897
     70  C         14.6340   10.2440   37.8020 C.2    40  THR40       0.2313
     71  O         14.7310   11.3790   38.2690 O.2    40  THR40      -0.2863
     72  CB        12.6270   10.4890   36.3730 C.3    40  THR40       0.1794
     73  OG1       11.8430    9.5220   37.0920 O.3    40  THR40      -0.2208
     74  CG2       12.1000   10.6540   34.9370 C.3    40  THR40       0.0378
     75  N         13.1760    8.7270   40.5520 N.3    42  ILE42      -0.1231
     76  CA        12.1050    8.6370   41.5460 C.3    42  ILE42       0.1692
     77  C         12.4950    7.7290   42.7190 C.2    42  ILE42       0.2591
     78  O         12.2620    8.0700   43.8870 O.2    42  ILE42      -0.2718
     79  CB        10.7950    8.1720   40.8730 C.3    42  ILE42       0.0266
     80  CG1        9.6540    8.0660   41.8850 C.3    42  ILE42       0.0019
     81  CG2       10.9710    6.8280   40.1430 C.3    42  ILE42       0.0020
     82  CD1        9.4040    9.3330   42.6510 C.3    42  ILE42       0.0001
     83  N         13.1080    6.5670   42.4380 N.am   43  LEU43      -0.1980
     84  CA        13.4390    5.6340   43.5160 C.3    43  LEU43       0.1596
     85  C         14.6130    6.1460   44.3500 C.2    43  LEU43       0.2287
     86  O         14.6120    6.0060   45.5780 O.2    43  LEU43      -0.2864
     87  CB        13.7260    4.2500   42.9390 C.3    43  LEU43       0.0297
     88  CG        12.5770    3.7480   42.0510 C.3    43  LEU43       0.0022
     89  CD1       12.9610    2.5110   41.2890 C.3    43  LEU43       0.0001
     90  CD2       11.3490    3.4700   42.8930 C.3    43  LEU43       0.0001
     91  N         22.3950    4.7980   38.3600 N.3    58  ILE58      -0.1231
     92  CA        23.0570    4.4890   37.0970 C.3    58  ILE58       0.1692
     93  C         22.0090    4.3140   36.0050 C.2    58  ILE58       0.2592
     94  O         20.9750    3.6620   36.2060 O.2    58  ILE58      -0.2718
     95  CB        23.9330    3.2220   37.2000 C.3    58  ILE58       0.0266
     96  CG1       24.8440    3.2890   38.4190 C.3    58  ILE58       0.0019
     97  CG2       24.7260    3.0070   35.9070 C.3    58  ILE58       0.0020
     98  CD1       25.9760    2.3080   38.3420 C.3    58  ILE58       0.0001
     99  N         22.2870    4.8830   34.8410 N.am   59  ASP59      -0.1960
    100  CA        21.3760    4.7540   33.7230 C.3    59  ASP59       0.1840
    101  C         22.1380    5.0940   32.4620 C.2    59  ASP59       0.2622
    102  O         23.0170    5.9600   32.4800 O.2    59  ASP59      -0.2715
    103  CB        20.1560    5.6540   33.8850 C.3    59  ASP59       0.1450
    104  CG        18.9050    5.0260   33.3210 C.2    59  ASP59       0.3671
    105  OD1       18.8450    4.8090   32.0790 O.co2  59  ASP59      -0.2456
    106  OD2       17.9790    4.7640   34.1180 O.co2  59  ASP59      -0.2456
    107  N         21.8390    4.3480   31.3950 N.am   60  MET60      -0.1963
    108  CA        22.5320    4.4520   30.1200 C.3    60  MET60       0.1736
    109  C         21.9200    5.4900   29.1800 C.2    60  MET60       0.2617
    110  O         22.6080    5.9400   28.2560 O.2    60  MET60      -0.2715
    111  CB        22.5500    3.0870   29.4330 C.3    60  MET60       0.0427
    112  CG        21.1710    2.3990   29.4280 C.3    60  MET60       0.0599
    113  SD        21.0190    0.8490   28.4740 S.3    60  MET60      -0.1393
    114  CE        21.6120    1.3820   26.8670 C.3    60  MET60       0.0692
    115  N         20.6520    5.8670   29.3690 N.am   61  SER61      -0.1950
    116  CA        20.0390    6.8190   28.4530 C.3    61  SER61       0.1924
    117  C         20.3450    8.2620   28.8540 C.2    61  SER61       0.2314
    118  O         20.8650    8.5500   29.9330 O.2    61  SER61      -0.2863
    119  CB        18.5210    6.6050   28.3550 C.3    61  SER61       0.2116
    120  OG        17.8930    6.3920   29.6030 O.3    61  SER61      -0.2180
    121  N         25.8700    5.6510   31.9610 N.3    85  GLY85      -0.1210
    122  CA        26.5770    4.5640   31.3120 C.3    85  GLY85       0.1956
    123  C         25.8990    3.2510   31.6100 C.2    85  GLY85       0.2612
    124  O         25.0910    3.1420   32.5270 O.2    85  GLY85      -0.2717
    125  N         26.2720    2.2280   30.8410 N.am   86  LYS86      -0.1965
    126  CA        25.7870    0.8850   31.1460 C.3    86  LYS86       0.1728
    127  C         26.4700    0.3970   32.4110 C.2    86  LYS86       0.2616
    128  O         27.6760    0.5990   32.5930 O.2    86  LYS86      -0.2715
    129  CB        26.0710   -0.0880   30.0010 C.3    86  LYS86       0.0311
    130  CG        25.0580   -0.0640   28.8590 C.3    86  LYS86       0.0038
    131  CD        25.5380   -0.9240   27.6930 C.3    86  LYS86       0.0206
    132  CE        24.5270   -0.9260   26.5530 C.3    86  LYS86       0.1093
    133  NZ        24.7220   -2.0270   25.5550 N.3    86  LYS86      -0.1314
    134  N         25.6850   -0.2160   33.3040 N.am   87  VAL87      -0.1963
    135  CA        26.2510   -0.7680   34.5310 C.3    87  VAL87       0.1727
    136  C         27.4340   -1.6730   34.2110 C.2    87  VAL87       0.2616
    137  O         28.4800   -1.6110   34.8650 O.2    87  VAL87      -0.2715
    138  CB        25.1680   -1.5040   35.3380 C.3    87  VAL87       0.0290
    139  CG1       25.7840   -2.1320   36.5990 C.3    87  VAL87       0.0023
    140  CG2       24.0400   -0.5520   35.6980 C.3    87  VAL87       0.0023
    141  N         27.3060   -2.4880   33.1690 N.am   88  GLU88      -0.1977
    142  CA        28.3850   -3.3900   32.7900 C.3    88  GLU88       0.1602
    143  C         29.6100   -2.6650   32.2470 C.2    88  GLU88       0.2287
    144  O         30.6070   -3.3220   31.9450 O.2    88  GLU88      -0.2864
    145  CB        27.8890   -4.3980   31.7530 C.3    88  GLU88       0.0415
    146  CG        26.8420   -5.3570   32.2850 C.3    88  GLU88       0.1163
    147  CD        25.4230   -4.8300   32.1310 C.2    88  GLU88       0.3649
    148  OE1       25.2380   -3.7120   31.5890 O.co2  88  GLU88      -0.2457
    149  OE2       24.4860   -5.5420   32.5530 O.co2  88  GLU88      -0.2457
    150  N         14.2700   -1.5030   39.2000 N.3   106  GLU106     -0.1245
    151  CA        13.0870   -1.8170   38.4160 C.3   106  GLU106      0.1567
    152  C         13.6230   -2.5300   37.1770 C.2   106  GLU106      0.2260
    153  O         14.1350   -1.8980   36.2440 O.2   106  GLU106     -0.2867
    154  CB        12.3110   -0.5510   38.0830 C.3   106  GLU106      0.0388
    155  CG        11.3730   -0.6780   36.9100 C.3   106  GLU106      0.1160
    156  CD        10.2750   -1.6800   37.1690 C.2   106  GLU106      0.3649
    157  OE1        9.4420   -1.4010   38.0670 O.co2 106  GLU106     -0.2457
    158  OE2       10.2490   -2.7240   36.4670 O.co2 106  GLU106     -0.2457
    159  N         16.1220   -6.6610   32.9200 N.3   117  MET117     -0.1245
    160  CA        17.4470   -6.2440   33.3440 C.3   117  MET117      0.1570
    161  C         18.0370   -7.1800   34.3880 C.2   117  MET117      0.2261
    162  O         19.1100   -6.8940   34.9040 O.2   117  MET117     -0.2867
    163  CB        17.4010   -4.8180   33.8910 C.3   117  MET117      0.0387
    164  CG        17.4010   -3.7170   32.8430 C.3   117  MET117      0.0595
    165  SD        16.6250   -2.2220   33.5040 S.3   117  MET117     -0.1393
    166  CE        17.6460   -1.9880   34.9660 C.3   117  MET117      0.0692
    167  N         21.6560   -7.8600   34.5190 N.3   120  THR120     -0.1218
    168  CA        22.4130   -6.6710   34.9160 C.3   120  THR120      0.1862
    169  C         22.3670   -6.4660   36.4220 C.2   120  THR120      0.2287
    170  O         23.3990   -6.1750   37.0460 O.2   120  THR120     -0.2866
    171  CB        21.8470   -5.4230   34.2440 C.3   120  THR120      0.1770
    172  OG1       22.1150   -5.4570   32.8370 O.3   120  THR120     -0.2211
    173  CG2       22.4390   -4.1610   34.8940 C.3   120  THR120      0.0375
@<TRIPOS>BOND
     1   133   132    1
     2   132   131    1
     3   114   113    1
     4     8     6    1
     5     6     5    1
     6   131   130    1
     7     1     2    1
     8   110   109    2
     9   119   116    1
    10   119   120    1
    11   116   117    1
    12   116   115    1
    13   113   112    1
    14   117   118    2
    15   130   129    1
    16     5     2    1
    17     5     7    1
    18     2     3    1
    19   109   115   am
    20   109   108    1
    21   112   111    1
    22   111   108    1
    23   129   126    1
    24   108   107    1
    25     3     9   am
    26     3     4    2
    27    17    15   ar
    28    17    18   ar
    29     9    10    1
    30    15    14   ar
    31   125   126    1
    32   125   123   am
    33   126   127    1
    34   122   123    1
    35   122   121    1
    36   107   101   am
    37   148   147   ar
    38   123   124    2
    39   145   146    1
    40   145   142    1
    41    18    16   ar
    42   144   143    2
    43    14    13    1
    44    14    16   ar
    45   105   104   ar
    46   147   146    1
    47   147   149   ar
    48    10    13    1
    49    10    11    1
    50   143   142    1
    51   127   128    2
    52   127   134   am
    53   101   102    2
    54   101   100    1
    55    11    12    2
    56   142   141    1
    57   172   171    1
    58   164   165    1
    59   164   163    1
    60   159   160    1
    61   141   136   am
    62    19    20    1
    63   134   135    1
    64   104   103    1
    65   104   106   ar
    66   160   163    1
    67   160   161    1
    68   165   166    1
    69   100   103    1
    70   100    99    1
    71   136   135    1
    72   136   137    2
    73   171   173    1
    74   171   168    1
    75   161   162    2
    76    20    23    1
    77    20    21    1
    78    25    26    1
    79    25    24    1
    80    23    24    1
    81   167   168    1
    82   135   138    1
    83    99    93   am
    84   168   169    1
    85    74    72    1
    86    65    66    1
    87    65    64    1
    88   138   140    1
    89   138   139    1
    90    66    67    2
    91    66    68   am
    92    27    21   am
    93    27    28    1
    94    21    22    2
    95    64    60   am
    96    55    56    1
    97    55    54    1
    98    68    69    1
    99    97    95    1
   100    93    94    2
   101    93    92    1
   102   153   152    2
   103    72    69    1
   104    72    73    1
   105    69    70    1
   106   169   170    2
   107   158   156   ar
   108    33    32    1
   109    31    28    1
   110    31    32    1
   111    56    57    2
   112    56    58   am
   113    28    29    1
   114    32    34    1
   115   155   156    1
   116   155   154    1
   117    29    30    2
   118    58    59    1
   119    92    95    1
   120    92    91    1
   121   156   157   ar
   122    60    61    2
   123    60    59    1
   124   152   151    1
   125    95    96    1
   126    63    62    1
   127    70    71    2
   128    59    62    1
   129   154   151    1
   130    41    42    1
   131    41    40    1
   132    98    96    1
   133    44    43    1
   134   151   150    1
   135    42    43    2
   136    43    45    1
   137    39    40    1
   138    39    36    1
   139    49    48    2
   140    81    79    1
   141    48    47    1
   142    75    76    1
   143    35    36    1
   144    36    37    1
   145    52    51   ar
   146    79    76    1
   147    79    80    1
   148    89    88    1
   149    51    53   ar
   150    51    50    1
   151    76    77    1
   152    37    38    2
   153    80    82    1
   154    47    50    1
   155    47    46    1
   156    88    90    1
   157    88    87    1
   158    83    77   am
   159    83    84    1
   160    77    78    2
   161    87    84    1
   162    84    85    1
   163    85    86    2
