@<TRIPOS>MOLECULE
tmp/6cudD01.pdb
 184 177 0 0 0
SMALL
GASTEIGER

@<TRIPOS>ATOM
      1  N        177.6030  178.9970  216.4010 N.3   290  TRP290     -0.1227
      2  CA       177.9630  179.0040  214.9850 C.3   290  TRP290      0.1737
      3  C        178.2140  177.5980  214.4540 C.2   290  TRP290      0.2595
      4  O        177.9600  177.3200  213.2780 O.2   290  TRP290     -0.2718
      5  CB       179.1890  179.8880  214.7750 C.3   290  TRP290      0.0564
      6  CG       179.6310  180.0130  213.3620 C.ar  290  TRP290      0.0003
      7  CD1      180.7300  179.4520  212.7980 C.ar  290  TRP290      0.0946
      8  CD2      178.9810  180.7520  212.3290 C.ar  290  TRP290      0.0152
      9  NE1      180.8130  179.7990  211.4750 N.ar  290  TRP290     -0.2442
     10  CE2      179.7460  180.5970  211.1630 C.ar  290  TRP290      0.0810
     11  CE3      177.8270  181.5310  212.2780 C.ar  290  TRP290      0.0012
     12  CZ2      179.3920  181.1870  209.9610 C.ar  290  TRP290      0.0191
     13  CZ3      177.4800  182.1170  211.0880 C.ar  290  TRP290      0.0001
     14  CH2      178.2570  181.9430  209.9440 C.ar  290  TRP290      0.0015
     15  N        178.6930  176.6960  215.3000 N.am  291  TYR291     -0.1976
     16  CA       178.7340  175.2710  214.9910 C.3   291  TYR291      0.1639
     17  C        177.8510  174.5690  216.0160 C.2   291  TYR291      0.2290
     18  O        178.3510  174.0900  217.0340 O.2   291  TYR291     -0.2864
     19  CB       180.1480  174.7220  215.0760 C.3   291  TYR291      0.0560
     20  CG       181.2070  175.4100  214.2660 C.ar  291  TYR291     -0.0198
     21  CD1      181.3510  175.1650  212.9130 C.ar  291  TYR291     -0.0009
     22  CD2      182.1100  176.2610  214.8770 C.ar  291  TYR291     -0.0009
     23  CE1      182.3460  175.7830  212.1860 C.ar  291  TYR291      0.0417
     24  CE2      183.1050  176.8790  214.1640 C.ar  291  TYR291      0.0417
     25  CZ       183.2190  176.6390  212.8210 C.ar  291  TYR291      0.1957
     26  OH       184.2140  177.2620  212.1110 O.3   291  TYR291     -0.2866
     27  N        192.3560  173.6930  207.0500 N.3   302  ILE302     -0.1245
     28  CA       191.6640  174.4440  206.0060 C.3   302  ILE302      0.1561
     29  C        191.3750  173.5470  204.8060 C.2   302  ILE302      0.2260
     30  O        190.4370  173.8020  204.0370 O.2   302  ILE302     -0.2867
     31  CB       192.5070  175.6850  205.6370 C.3   302  ILE302      0.0252
     32  CG1      192.8490  176.4690  206.9030 C.3   302  ILE302      0.0019
     33  CG2      191.7590  176.6360  204.7080 C.3   302  ILE302      0.0019
     34  CD1      191.6350  176.9870  207.6500 C.3   302  ILE302      0.0001
     35  N        188.0830  172.0170  205.3840 N.3   305  LYS305     -0.1245
     36  CA       187.0450  173.0220  205.1730 C.3   305  LYS305      0.1561
     37  C        186.8170  173.2800  203.6900 C.2   305  LYS305      0.2260
     38  O        185.6930  173.5790  203.2690 O.2   305  LYS305     -0.2867
     39  CB       187.4120  174.3210  205.8880 C.3   305  LYS305      0.0271
     40  CG       187.3920  174.2340  207.4040 C.3   305  LYS305      0.0035
     41  CD       187.7120  175.5800  208.0300 C.3   305  LYS305      0.0206
     42  CE       187.7870  175.4840  209.5420 C.3   305  LYS305      0.1093
     43  NZ       186.4580  175.2000  210.1380 N.3   305  LYS305     -0.1314
     44  N        183.2610  172.8420  201.2860 N.3   309  VAL309     -0.1245
     45  CA       182.6390  173.8160  200.3930 C.3   309  VAL309      0.1561
     46  C        182.6360  173.2990  198.9590 C.2   309  VAL309      0.2260
     47  O        181.7240  173.6070  198.1840 O.2   309  VAL309     -0.2867
     48  CB       183.3120  175.2000  200.5160 C.3   309  VAL309      0.0252
     49  CG1      183.2260  175.7030  201.9470 C.3   309  VAL309      0.0019
     50  CG2      184.7510  175.1940  200.0400 C.3   309  VAL309      0.0019
     51  N        179.1690  172.8260  197.0520 N.3   313  ALA313     -0.1245
     52  CA       179.0450  173.5060  195.7660 C.3   313  ALA313      0.1562
     53  C        178.7460  172.5240  194.6390 C.2   313  ALA313      0.2260
     54  O        178.0930  172.8830  193.6530 O.2   313  ALA313     -0.2867
     55  CB       180.3170  174.2960  195.4690 C.3   313  ALA313      0.0290
     56  N        176.4950  177.7200  209.8610 N.3   339  PHE339     -0.1241
     57  CA       177.6650  177.5130  209.0200 C.3   339  PHE339      0.1605
     58  C        177.2800  176.9040  207.6770 C.2   339  PHE339      0.2264
     59  O        177.8380  177.2750  206.6360 O.2   339  PHE339     -0.2867
     60  CB       178.6720  176.6280  209.7500 C.3   339  PHE339      0.0534
     61  CG       179.9290  176.3850  208.9860 C.ar  339  PHE339     -0.0203
     62  CD1      180.8650  177.3860  208.8360 C.ar  339  PHE339     -0.0042
     63  CD2      180.1890  175.1500  208.4330 C.ar  339  PHE339     -0.0042
     64  CE1      182.0290  177.1650  208.1330 C.ar  339  PHE339     -0.0003
     65  CE2      181.3520  174.9220  207.7310 C.ar  339  PHE339     -0.0003
     66  CZ       182.2710  175.9320  207.5820 C.ar  339  PHE339     -0.0000
     67  N        175.7660  179.6290  205.5100 N.3   342  PHE342     -0.1227
     68  CA       176.8210  180.4710  204.9550 C.3   342  PHE342      0.1736
     69  C        177.5180  179.7970  203.7780 C.2   342  PHE342      0.2595
     70  O        177.7610  180.4340  202.7420 O.2   342  PHE342     -0.2718
     71  CB       177.8230  180.8120  206.0500 C.3   342  PHE342      0.0547
     72  CG       178.9610  181.6500  205.5870 C.ar  342  PHE342     -0.0202
     73  CD1      178.7720  182.9800  205.2880 C.ar  342  PHE342     -0.0042
     74  CD2      180.2260  181.1130  205.4720 C.ar  342  PHE342     -0.0042
     75  CE1      179.8190  183.7570  204.8650 C.ar  342  PHE342     -0.0003
     76  CE2      181.2810  181.8850  205.0510 C.ar  342  PHE342     -0.0003
     77  CZ       181.0760  183.2090  204.7470 C.ar  342  PHE342     -0.0000
     78  N        177.8010  178.4970  203.9040 N.am  343  VAL343     -0.1980
     79  CA       178.4610  177.7660  202.8230 C.3   343  VAL343      0.1595
     80  C        177.5340  177.6340  201.6140 C.2   343  VAL343      0.2287
     81  O        177.9770  177.7390  200.4640 O.2   343  VAL343     -0.2864
     82  CB       178.9520  176.4030  203.3480 C.3   343  VAL343      0.0276
     83  CG1      179.4360  175.4990  202.2330 C.3   343  VAL343      0.0022
     84  CG2      180.0830  176.6220  204.3350 C.3   343  VAL343      0.0022
     85  N        177.4870  181.0550  199.7870 N.3   346  ALA346     -0.1231
     86  CA       178.7560  181.2610  199.0950 C.3   346  ALA346      0.1694
     87  C        178.8760  180.3720  197.8620 C.2   346  ALA346      0.2591
     88  O        179.3700  180.8130  196.8150 O.2   346  ALA346     -0.2718
     89  CB       179.9170  181.0030  200.0510 C.3   346  ALA346      0.0304
     90  N        178.3680  179.1390  197.9440 N.am  347  ALA347     -0.1980
     91  CA       178.4450  178.2310  196.8060 C.3   347  ALA347      0.1597
     92  C        177.5380  178.6820  195.6700 C.2   347  ALA347      0.2287
     93  O        177.9240  178.6060  194.4940 O.2   347  ALA347     -0.2864
     94  CB       178.0820  176.8170  197.2460 C.3   347  ALA347      0.0319
     95  N        179.1940  181.4950  193.8970 N.3   350  ILE350     -0.1245
     96  CA       180.3100  181.0640  193.0540 C.3   350  ILE350      0.1561
     97  C        179.8010  180.4660  191.7420 C.2   350  ILE350      0.2260
     98  O        180.3690  180.7190  190.6640 O.2   350  ILE350     -0.2867
     99  CB       181.2250  180.0970  193.8340 C.3   350  ILE350      0.0252
    100  CG1      181.9990  180.8730  194.8940 C.3   350  ILE350      0.0019
    101  CG2      182.2160  179.3860  192.9320 C.3   350  ILE350      0.0019
    102  CD1      182.7560  180.0010  195.8540 C.3   350  ILE350      0.0001
    103  N        182.2300  189.7360  196.8720 N.3   509  ILE509     -0.1245
    104  CA       183.0520  188.8110  197.6550 C.3   509  ILE509      0.1561
    105  C        183.3750  189.4230  199.0210 C.2   509  ILE509      0.2260
    106  O        183.8100  188.7330  199.9570 O.2   509  ILE509     -0.2867
    107  CB       184.3130  188.4380  196.8490 C.3   509  ILE509      0.0252
    108  CG1      183.9070  187.9170  195.4760 C.3   509  ILE509      0.0019
    109  CG2      185.0840  187.2860  197.4620 C.3   509  ILE509      0.0019
    110  CD1      185.0730  187.6930  194.5410 C.3   509  ILE509      0.0001
    111  N        181.9390  187.7300  201.7630 N.3   512  ILE512     -0.1231
    112  CA       182.5380  186.4550  202.1420 C.3   512  ILE512      0.1692
    113  C        183.7830  186.6730  202.9900 C.2   512  ILE512      0.2591
    114  O        183.9790  185.9990  204.0080 O.2   512  ILE512     -0.2718
    115  CB       182.8370  185.6210  200.8830 C.3   512  ILE512      0.0266
    116  CG1      181.5530  185.3840  200.0870 C.3   512  ILE512      0.0019
    117  CG2      183.4810  184.2980  201.2420 C.3   512  ILE512      0.0020
    118  CD1      180.4840  184.6530  200.8540 C.3   512  ILE512      0.0001
    119  N        184.6220  187.6340  202.5990 N.am  513  LEU513     -0.1980
    120  CA       185.9670  187.7660  203.1710 C.3   513  LEU513      0.1596
    121  C        186.1140  188.0080  204.6820 C.2   513  LEU513      0.2287
    122  O        187.1530  187.5890  205.2200 O.2   513  LEU513     -0.2864
    123  CB       186.7230  188.8670  202.4180 C.3   513  LEU513      0.0297
    124  CG       187.1520  188.4880  201.0070 C.3   513  LEU513      0.0022
    125  CD1      187.7900  189.6670  200.2960 C.3   513  LEU513      0.0001
    126  CD2      188.1060  187.3090  201.0660 C.3   513  LEU513      0.0001
    127  N        184.8770  186.4190  207.1170 N.3   515  ALA515     -0.1231
    128  CA       184.8030  185.1590  207.8580 C.3   515  ALA515      0.1694
    129  C        186.0710  184.3260  207.6500 C.2   515  ALA515      0.2592
    130  O        186.0310  183.1510  207.2870 O.2   515  ALA515     -0.2718
    131  CB       183.5620  184.3790  207.4460 C.3   515  ALA515      0.0304
    132  N        187.2120  184.9580  207.9100 N.am  516  ASN516     -0.1960
    133  CA       188.5120  184.3360  207.7090 C.3   516  ASN516      0.1819
    134  C        189.5340  185.1390  208.4930 C.2   516  ASN516      0.2621
    135  O        189.4600  186.3670  208.5350 O.2   516  ASN516     -0.2715
    136  CB       188.8940  184.2930  206.2250 C.3   516  ASN516      0.1195
    137  CG       190.0720  183.3850  205.9500 C.2   516  ASN516      0.2630
    138  OD1      190.6240  182.7650  206.8570 O.2   516  ASN516     -0.2716
    139  ND2      190.4620  183.2990  204.6860 N.am  516  ASN516     -0.0877
    140  N        190.4860  184.4400  209.1080 N.am  517  GLU517     -0.1977
    141  CA       191.4230  185.1180  209.9940 C.3   517  GLU517      0.1602
    142  C        192.5260  185.8160  209.2130 C.2   517  GLU517      0.2287
    143  O        193.0110  186.8740  209.6280 O.2   517  GLU517     -0.2864
    144  CB       192.0150  184.1220  210.9930 C.3   517  GLU517      0.0415
    145  CG       192.7010  184.7610  212.2020 C.3   517  GLU517      0.1163
    146  CD       194.1600  185.1000  211.9630 C.2   517  GLU517      0.3649
    147  OE1      194.8050  184.4040  211.1530 O.co2 517  GLU517     -0.2457
    148  OE2      194.6570  186.0660  212.5790 O.co2 517  GLU517     -0.2457
    149  N        192.6440  186.9590  205.8620 N.3   519  PHE519     -0.1241
    150  CA       192.2050  188.0810  205.0440 C.3   519  PHE519      0.1605
    151  C        191.2240  188.9890  205.7670 C.2   519  PHE519      0.2264
    152  O        190.6080  189.8460  205.1320 O.2   519  PHE519     -0.2867
    153  CB       191.5740  187.5670  203.7530 C.3   519  PHE519      0.0534
    154  CG       192.5160  186.7800  202.9050 C.ar  519  PHE519     -0.0203
    155  CD1      193.4670  187.4180  202.1330 C.ar  519  PHE519     -0.0042
    156  CD2      192.4500  185.3970  202.8790 C.ar  519  PHE519     -0.0042
    157  CE1      194.3410  186.6950  201.3550 C.ar  519  PHE519     -0.0003
    158  CE2      193.3210  184.6660  202.1010 C.ar  519  PHE519     -0.0003
    159  CZ       194.2680  185.3160  201.3410 C.ar  519  PHE519     -0.0000
    160  N        183.4040  190.2920  212.2840 N.3   645  ARG645     -0.1245
    161  CA       182.9710  188.9440  211.9160 C.3   645  ARG645      0.1563
    162  C        181.7360  188.5410  212.6990 C.2   645  ARG645      0.2260
    163  O        180.8500  187.8660  212.1590 O.2   645  ARG645     -0.2867
    164  CB       184.1050  187.9290  212.1210 C.3   645  ARG645      0.0307
    165  CG       184.4890  187.6900  213.5680 C.3   645  ARG645      0.0489
    166  CD       185.6570  186.7550  213.7880 C.3   645  ARG645      0.2205
    167  NE       185.4140  185.3910  213.3580 N.pl3 645  ARG645     -0.0865
    168  CZ       186.3350  184.4360  213.4020 C.cat 645  ARG645      0.5346
    169  NH1      187.5350  184.6990  213.8910 N.pl3 645  ARG645      0.1354
    170  NH2      186.0510  183.2130  212.9840 N.pl3 645  ARG645      0.1354
    171  N        178.1520  186.9430  211.6940 N.3   649  TRP649     -0.1241
    172  CA       177.5430  185.7640  212.2960 C.3   649  TRP649      0.1605
    173  C        176.1100  186.0470  212.7110 C.2   649  TRP649      0.2264
    174  O        175.2180  185.2160  212.4940 O.2   649  TRP649     -0.2867
    175  CB       178.3560  185.2880  213.4970 C.3   649  TRP649      0.0550
    176  CG       179.6680  184.6680  213.1610 C.ar  649  TRP649      0.0003
    177  CD1      180.1240  184.3330  211.9270 C.ar  649  TRP649      0.0946
    178  CD2      180.7020  184.3130  214.0790 C.ar  649  TRP649      0.0152
    179  NE1      181.3770  183.7880  212.0170 N.ar  649  TRP649     -0.2442
    180  CE2      181.7550  183.7660  213.3320 C.ar  649  TRP649      0.0810
    181  CE3      180.8380  184.4060  215.4650 C.ar  649  TRP649      0.0012
    182  CZ2      182.9230  183.3140  213.9170 C.ar  649  TRP649      0.0191
    183  CZ3      182.0020  183.9570  216.0430 C.ar  649  TRP649      0.0001
    184  CH2      183.0300  183.4210  215.2720 C.ar  649  TRP649      0.0015
@<TRIPOS>BOND
     1    98    97    2
     2    97    96    1
     3   101    99    1
     4    96    99    1
     5    96    95    1
     6    54    53    2
     7    99   100    1
     8    93    92    2
     9   110   108    1
    10    53    52    1
    11   100   102    1
    12    55    52    1
    13   108   107    1
    14    92    91    1
    15    52    51    1
    16    91    94    1
    17    91    90    1
    18    88    87    2
    19   107   109    1
    20   107   104    1
    21   103   104    1
    22   104   105    1
    23    87    90   am
    24    87    86    1
    25    47    46    2
    26    46    45    1
    27   105   106    2
    28    86    85    1
    29    86    89    1
    30    50    48    1
    31   116   118    1
    32   116   115    1
    33   125   124    1
    34    45    48    1
    35    45    44    1
    36    81    80    2
    37    48    49    1
    38   115   117    1
    39   115   112    1
    40   124   126    1
    41   124   123    1
    42   159   157   ar
    43   159   158   ar
    44   157   155   ar
    45    80    79    1
    46   111   112    1
    47   158   156   ar
    48   155   154   ar
    49   112   113    1
    50    83    82    1
    51   123   120    1
    52   119   113   am
    53   119   120    1
    54    70    69    2
    55    79    82    1
    56    79    78    1
    57   156   154   ar
    58   154   153    1
    59   113   114    2
    60   120   121    1
    61    38    37    2
    62    82    84    1
    63    37    36    1
    64   153   150    1
    65    69    78   am
    66    69    68    1
    67    30    29    2
    68   121   122    2
    69   139   137   am
    70    33    31    1
    71    77    75   ar
    72    77    76   ar
    73    29    28    1
    74    75    73   ar
    75    68    67    1
    76    68    71    1
    77   150   151    1
    78   150   149    1
    79    76    74   ar
    80   152   151    2
    81    36    35    1
    82    36    39    1
    83    73    72   ar
    84    74    72   ar
    85    72    71    1
    86    31    28    1
    87    31    32    1
    88    39    40    1
    89   137   136    1
    90   137   138    2
    91    28    27    1
    92   136   133    1
    93    59    58    2
    94    32    34    1
    95   127   128    1
    96   130   129    2
    97    40    41    1
    98   131   128    1
    99    66    65   ar
   100    66    64   ar
   101   129   128    1
   102   129   132   am
   103    58    57    1
   104   133   132    1
   105   133   134    1
   106    65    63   ar
   107    41    42    1
   108    64    62   ar
   109    63    61   ar
   110   134   135    2
   111   134   140   am
   112    62    61   ar
   113    61    60    1
   114    57    60    1
   115    57    56    1
   116   140   141    1
   117   142   143    2
   118   142   141    1
   119    42    43    1
   120    14    12   ar
   121    14    13   ar
   122    12    10   ar
   123   141   144    1
   124   144   145    1
   125    13    11   ar
   126   147   146   ar
   127    10     9   ar
   128    10     8   ar
   129     9     7   ar
   130   171   172    1
   131   161   164    1
   132   161   160    1
   133   161   162    1
   134   177   179   ar
   135   177   176   ar
   136   146   145    1
   137   146   148   ar
   138   179   180   ar
   139    26    25    1
   140   164   165    1
   141   163   162    2
   142    23    25   ar
   143    23    21   ar
   144    11     8   ar
   145   172   173    1
   146   172   175    1
   147     8     6   ar
   148   174   173    2
   149     7     6   ar
   150    25    24   ar
   151    21    20   ar
   152   170   168    1
   153   176   175    1
   154   176   178   ar
   155     4     3    2
   156   180   182   ar
   157   180   178   ar
   158   167   168    2
   159   167   166    1
   160     6     5    1
   161   168   169    1
   162   165   166    1
   163   182   184   ar
   164   178   181   ar
   165    24    22   ar
   166    20    22   ar
   167    20    19    1
   168     3     2    1
   169     3    15   am
   170     5     2    1
   171     2     1    1
   172    16    19    1
   173    16    15    1
   174    16    17    1
   175   184   183   ar
   176   181   183   ar
   177    17    18    2
