@<TRIPOS>MOLECULE
tmp/6cuoB00.pdb
 127 120 0 0 0
SMALL
GASTEIGER

@<TRIPOS>ATOM
      1  N         26.7080   37.8790   17.9780 N.3   275  VAL275     -0.1245
      2  CA        27.5400   37.3710   19.0720 C.3   275  VAL275      0.1561
      3  C         28.2950   38.5180   19.7380 C.2   275  VAL275      0.2260
      4  O         28.3970   38.5880   20.9730 O.2   275  VAL275     -0.2867
      5  CB        28.4930   36.2760   18.5500 C.3   275  VAL275      0.0252
      6  CG1       29.5700   35.9280   19.5820 C.3   275  VAL275      0.0019
      7  CG2       27.6950   35.0220   18.1440 C.3   275  VAL275      0.0019
      8  N         28.1880   39.7650   23.7240 N.3   279  ILE279     -0.1245
      9  CA        29.3660   39.9610   24.5740 C.3   279  ILE279      0.1561
     10  C         29.4090   41.3790   25.1430 C.2   279  ILE279      0.2260
     11  O         29.8690   41.5900   26.2780 O.2   279  ILE279     -0.2867
     12  CB        30.6430   39.6150   23.7820 C.3   279  ILE279      0.0252
     13  CG1       30.6390   38.1220   23.4480 C.3   279  ILE279      0.0019
     14  CG2       31.8970   39.9730   24.5890 C.3   279  ILE279      0.0019
     15  CD1       31.7950   37.6950   22.5080 C.3   279  ILE279      0.0001
     16  N         27.5860   33.2820   29.4180 N.3   298  VAL298     -0.1245
     17  CA        28.6150   32.2460   29.3420 C.3   298  VAL298      0.1561
     18  C         28.0000   30.8830   29.0340 C.2   298  VAL298      0.2260
     19  O         28.5260   30.1310   28.2020 O.2   298  VAL298     -0.2867
     20  CB        29.4390   32.2170   30.6380 C.3   298  VAL298      0.0252
     21  CG1       30.4070   31.0370   30.6220 C.3   298  VAL298      0.0019
     22  CG2       30.1920   33.5480   30.8010 C.3   298  VAL298      0.0019
     23  N         27.2150   30.6860   25.4030 N.3   301  MET301     -0.1230
     24  CA        28.3970   30.5720   24.5450 C.3   301  MET301      0.1702
     25  C         29.0230   29.1860   24.6280 C.2   301  MET301      0.2592
     26  O         29.6590   28.7410   23.6650 O.2   301  MET301     -0.2718
     27  CB        29.4360   31.6350   24.9230 C.3   301  MET301      0.0401
     28  CG        28.9460   33.0730   24.7700 C.3   301  MET301      0.0596
     29  SD        28.4320   33.4290   23.0690 S.3   301  MET301     -0.1393
     30  CE        27.8370   35.1090   23.2190 C.3   301  MET301      0.0692
     31  N         28.8630   28.4980   25.7600 N.am  302  ASN302     -0.1974
     32  CA        29.3660   27.1420   25.9470 C.3   302  ASN302      0.1688
     33  C         28.3910   26.0670   25.4930 C.2   302  ASN302      0.2292
     34  O         28.7310   24.8780   25.5630 O.2   302  ASN302     -0.2864
     35  CB        29.6990   26.8910   27.4230 C.3   302  ASN302      0.1181
     36  CG        31.0820   27.3540   27.7940 C.2   302  ASN302      0.2629
     37  OD1       32.0450   27.1340   27.0590 O.2   302  ASN302     -0.2716
     38  ND2       31.1920   28.0060   28.9460 N.am  302  ASN302     -0.0877
     39  N         26.2610   26.6610   19.9600 N.3   306  VAL306     -0.1231
     40  CA        27.0150   27.8970   19.7490 C.3   306  VAL306      0.1692
     41  C         28.5170   27.6540   19.7720 C.2   306  VAL306      0.2592
     42  O         29.2520   28.1940   18.9370 O.2   306  VAL306     -0.2718
     43  CB        26.5990   28.9380   20.8150 C.3   306  VAL306      0.0266
     44  CG1       27.4630   30.1820   20.7170 C.3   306  VAL306      0.0020
     45  CG2       25.1230   29.2960   20.6490 C.3   306  VAL306      0.0020
     46  N         28.9800   26.8410   20.7280 N.am  307  TYR307     -0.1976
     47  CA        30.4120   26.6440   20.9310 C.3   307  TYR307      0.1639
     48  C         31.1140   26.1420   19.6760 C.2   307  TYR307      0.2290
     49  O         32.2960   26.4380   19.4680 O.2   307  TYR307     -0.2864
     50  CB        30.6290   25.6570   22.0790 C.3   307  TYR307      0.0560
     51  CG        32.0620   25.5580   22.5580 C.ar  307  TYR307     -0.0198
     52  CD1       32.6020   26.5340   23.3840 C.ar  307  TYR307     -0.0009
     53  CD2       32.8670   24.4800   22.1950 C.ar  307  TYR307     -0.0009
     54  CE1       33.9030   26.4480   23.8360 C.ar  307  TYR307      0.0417
     55  CE2       34.1760   24.3860   22.6510 C.ar  307  TYR307      0.0417
     56  CZ        34.6860   25.3750   23.4650 C.ar  307  TYR307      0.1957
     57  OH        35.9850   25.3040   23.9210 O.3   307  TYR307     -0.2866
     58  N         30.6980   26.9720   16.5870 N.3   309  LEU309     -0.1231
     59  CA        30.6570   27.8910   15.4430 C.3   309  LEU309      0.1693
     60  C         32.0110   28.5840   15.2690 C.2   309  LEU309      0.2592
     61  O         32.1660   29.7920   15.4480 O.2   309  LEU309     -0.2718
     62  CB        29.5230   28.8950   15.6140 C.3   309  LEU309      0.0284
     63  CG        28.1220   28.2860   15.7120 C.3   309  LEU309      0.0019
     64  CD1       27.0890   29.3700   15.9660 C.3   309  LEU309      0.0001
     65  CD2       27.7700   27.4810   14.4440 C.3   309  LEU309      0.0001
     66  N         32.9950   27.7820   14.8480 N.am  310  ASP310     -0.1974
     67  CA        34.3720   28.2610   14.7350 C.3   310  ASP310      0.1709
     68  C         34.5190   29.4150   13.7460 C.2   310  ASP310      0.2293
     69  O         35.3480   30.3110   13.9630 O.2   310  ASP310     -0.2864
     70  CB        35.2920   27.1160   14.3180 C.3   310  ASP310      0.1436
     71  CG        35.3720   26.0170   15.3570 C.2   310  ASP310      0.3671
     72  OD1       35.2100   26.3160   16.5560 O.co2 310  ASP310     -0.2456
     73  OD2       35.6060   24.8500   14.9710 O.co2 310  ASP310     -0.2456
     74  N         32.3580   31.7260   13.1620 N.3   312  THR312     -0.1203
     75  CA        31.8600   32.9220   13.8280 C.3   312  THR312      0.1994
     76  C         32.8620   33.4140   14.8580 C.2   312  THR312      0.2617
     77  O         33.2240   34.5960   14.8730 O.2   312  THR312     -0.2717
     78  CB        30.5130   32.6140   14.4870 C.3   312  THR312      0.1784
     79  OG1       29.6410   32.0290   13.5170 O.3   312  THR312     -0.2211
     80  CG2       29.8600   33.8850   15.0520 C.3   312  THR312      0.0376
     81  N         33.3380   32.5070   15.7130 N.am  313  PHE313     -0.1975
     82  CA        34.2730   32.8900   16.7670 C.3   313  PHE313      0.1639
     83  C         35.5510   33.4660   16.1750 C.2   313  PHE313      0.2290
     84  O         36.1480   34.3800   16.7530 O.2   313  PHE313     -0.2864
     85  CB        34.5730   31.6720   17.6460 C.3   313  PHE313      0.0560
     86  CG        35.3700   31.9800   18.8830 C.ar  313  PHE313     -0.0200
     87  CD1       34.8490   32.7950   19.8770 C.ar  313  PHE313     -0.0042
     88  CD2       36.6310   31.4270   19.0640 C.ar  313  PHE313     -0.0042
     89  CE1       35.5820   33.0710   21.0210 C.ar  313  PHE313     -0.0003
     90  CE2       37.3680   31.6970   20.2040 C.ar  313  PHE313     -0.0003
     91  CZ        36.8440   32.5200   21.1830 C.ar  313  PHE313     -0.0000
     92  N         36.8680   38.6370   22.6580 N.3   321  LYS321     -0.1245
     93  CA        37.2990   37.3120   23.0830 C.3   321  LYS321      0.1561
     94  C         37.8480   37.3540   24.4970 C.2   321  LYS321      0.2260
     95  O         37.6070   36.4410   25.2930 O.2   321  LYS321     -0.2867
     96  CB        38.3530   36.7600   22.1280 C.3   321  LYS321      0.0271
     97  CG        37.8020   36.3330   20.7870 C.3   321  LYS321      0.0035
     98  CD        38.8640   35.5840   20.0110 C.3   321  LYS321      0.0206
     99  CE        38.2760   34.8990   18.8010 C.3   321  LYS321      0.1093
    100  NZ        39.0200   35.2310   17.5640 N.3   321  LYS321     -0.1314
    101  N         34.9660   37.6260   27.0720 N.3   324  LEU324     -0.1231
    102  CA        34.2800   36.3520   27.2460 C.3   324  LEU324      0.1693
    103  C         35.1600   35.3560   27.9890 C.2   324  LEU324      0.2591
    104  O         34.6830   34.6200   28.8660 O.2   324  LEU324     -0.2718
    105  CB        33.8630   35.7990   25.8770 C.3   324  LEU324      0.0284
    106  CG        33.1940   34.4280   25.8550 C.3   324  LEU324      0.0019
    107  CD1       31.9340   34.4160   26.7090 C.3   324  LEU324      0.0001
    108  CD2       32.8720   34.0550   24.4080 C.3   324  LEU324      0.0001
    109  N         36.4570   35.3490   27.6830 N.am  325  GLU325     -0.1979
    110  CA        37.3560   34.4250   28.3610 C.3   325  GLU325      0.1602
    111  C         37.4320   34.7270   29.8520 C.2   325  GLU325      0.2287
    112  O         37.3810   33.8090   30.6780 O.2   325  GLU325     -0.2864
    113  CB        38.7500   34.4820   27.7280 C.3   325  GLU325      0.0415
    114  CG        39.7470   33.4990   28.3410 C.3   325  GLU325      0.1163
    115  CD        39.3050   32.0510   28.2200 C.2   325  GLU325      0.3649
    116  OE1       38.5370   31.7310   27.2860 O.co2 325  GLU325     -0.2457
    117  OE2       39.7270   31.2310   29.0630 O.co2 325  GLU325     -0.2457
    118  N         34.2830   33.4190   31.3770 N.3   328  HIS328     -0.1241
    119  CA        34.3050   31.9620   31.4670 C.3   328  HIS328      0.1621
    120  C         35.1880   31.4870   32.6180 C.2   328  HIS328      0.2264
    121  O         34.8630   30.5090   33.3030 O.2   328  HIS328     -0.2867
    122  CB        34.7940   31.3660   30.1450 C.3   328  HIS328      0.0745
    123  CG        35.0700   29.8970   30.2200 C.ar  328  HIS328      0.0817
    124  ND1       34.0670   28.9520   30.2830 N.ar  328  HIS328     -0.2268
    125  CD2       36.2370   29.2130   30.2770 C.ar  328  HIS328      0.1154
    126  CE1       34.6060   27.7480   30.3560 C.ar  328  HIS328      0.1986
    127  NE2       35.9210   27.8790   30.3620 N.ar  328  HIS328     -0.2212
@<TRIPOS>BOND
     1    74    75    1
     2    79    78    1
     3    68    69    2
     4    68    67    1
     5    75    78    1
     6    75    76    1
     7    70    67    1
     8    70    71    1
     9    65    63    1
    10    78    80    1
    11    67    66    1
    12    66    60   am
    13    76    77    2
    14    76    81   am
    15    73    71   ar
    16    60    59    1
    17    60    61    2
    18    71    72   ar
    19    59    62    1
    20    59    58    1
    21    62    63    1
    22    63    64    1
    23    81    82    1
    24    83    84    2
    25    83    82    1
    26    82    85    1
    27   100    99    1
    28    85    86    1
    29     1     2    1
    30     7     5    1
    31     5     2    1
    32     5     6    1
    33    99    98    1
    34    86    88   ar
    35    86    87   ar
    36    42    41    2
    37    88    90   ar
    38     2     3    1
    39    49    48    2
    40    48    47    1
    41     3     4    2
    42    40    41    1
    43    40    39    1
    44    40    43    1
    45    41    46   am
    46    87    89   ar
    47    98    97    1
    48    90    91   ar
    49    45    43    1
    50    44    43    1
    51    46    47    1
    52    97    96    1
    53    47    50    1
    54    89    91   ar
    55    50    51    1
    56    96    93    1
    57    53    51   ar
    58    53    55   ar
    59    15    13    1
    60    51    52   ar
    61    55    56   ar
    62    92    93    1
    63    29    30    1
    64    29    28    1
    65    93    94    1
    66    52    54   ar
    67    13    12    1
    68    56    54   ar
    69    56    57    1
    70    26    25    2
    71     8     9    1
    72    12     9    1
    73    12    14    1
    74   108   106    1
    75    94    95    2
    76    24    25    1
    77    24    27    1
    78    24    23    1
    79     9    10    1
    80    25    31   am
    81    28    27    1
    82    10    11    2
    83    33    34    2
    84    33    32    1
    85    31    32    1
    86   106   105    1
    87   106   107    1
    88   105   102    1
    89    32    35    1
    90    37    36    2
    91   101   102    1
    92   102   103    1
    93   116   115   ar
    94    35    36    1
    95   109   103   am
    96   109   110    1
    97   113   114    1
    98   113   110    1
    99    36    38   am
   100   103   104    2
   101    19    18    2
   102   115   114    1
   103   115   117   ar
   104   110   111    1
   105    18    17    1
   106    17    16    1
   107    17    20    1
   108   111   112    2
   109   122   123    1
   110   122   119    1
   111   123   125   ar
   112   123   124   ar
   113   125   127   ar
   114   124   126   ar
   115   126   127   ar
   116    21    20    1
   117    20    22    1
   118   118   119    1
   119   119   120    1
   120   120   121    2
