@<TRIPOS>MOLECULE
tmp/6cupB00.pdb
 119 113 0 0 0
SMALL
GASTEIGER

@<TRIPOS>ATOM
      1  N         26.9230   38.0020   18.1250 N.3   275  VAL275     -0.1245
      2  CA        27.7720   37.5040   19.2100 C.3   275  VAL275      0.1561
      3  C         28.5230   38.6550   19.8720 C.2   275  VAL275      0.2260
      4  O         28.6300   38.7220   21.1060 O.2   275  VAL275     -0.2867
      5  CB        28.7310   36.4230   18.6790 C.3   275  VAL275      0.0252
      6  CG1       29.8650   36.1690   19.6790 C.3   275  VAL275      0.0019
      7  CG2       27.9580   35.1350   18.3690 C.3   275  VAL275      0.0019
      8  N         27.7880   33.2820   29.5690 N.3   298  VAL298     -0.1245
      9  CA        28.8040   32.2270   29.5140 C.3   298  VAL298      0.1561
     10  C         28.1750   30.8750   29.1820 C.2   298  VAL298      0.2260
     11  O         28.7020   30.1190   28.3570 O.2   298  VAL298     -0.2867
     12  CB        29.5840   32.1690   30.8390 C.3   298  VAL298      0.0252
     13  CG1       30.5430   30.9730   30.8370 C.3   298  VAL298      0.0019
     14  CG2       30.3490   33.4690   31.0600 C.3   298  VAL298      0.0019
     15  N         27.3770   30.7320   25.5040 N.3   301  MET301     -0.1230
     16  CA        28.5440   30.5920   24.6310 C.3   301  MET301      0.1702
     17  C         29.1620   29.2050   24.7340 C.2   301  MET301      0.2592
     18  O         29.8330   28.7570   23.7970 O.2   301  MET301     -0.2718
     19  CB        29.5960   31.6570   24.9590 C.3   301  MET301      0.0401
     20  CG        29.1120   33.1010   24.8170 C.3   301  MET301      0.0596
     21  SD        28.5700   33.4630   23.1240 S.3   301  MET301     -0.1393
     22  CE        28.1960   35.2140   23.2430 C.3   301  MET301      0.0692
     23  N         28.9680   28.5130   25.8580 N.am  302  ASN302     -0.1974
     24  CA        29.4810   27.1560   25.9950 C.3   302  ASN302      0.1688
     25  C         28.4680   26.0820   25.6330 C.2   302  ASN302      0.2292
     26  O         28.7910   24.8940   25.7420 O.2   302  ASN302     -0.2864
     27  CB        29.9760   26.9250   27.4250 C.3   302  ASN302      0.1181
     28  CG        31.2880   27.6320   27.6910 C.2   302  ASN302      0.2629
     29  OD1       32.3220   27.2730   27.1240 O.2   302  ASN302     -0.2716
     30  ND2       31.2500   28.6560   28.5310 N.am  302  ASN302     -0.0877
     31  N         26.4070   26.6880   20.1050 N.3   306  VAL306     -0.1231
     32  CA        27.1850   27.9130   19.8940 C.3   306  VAL306      0.1692
     33  C         28.6780   27.6400   19.9290 C.2   306  VAL306      0.2592
     34  O         29.4400   28.2020   19.1330 O.2   306  VAL306     -0.2718
     35  CB        26.8020   28.9660   20.9540 C.3   306  VAL306      0.0266
     36  CG1       27.6850   30.2150   20.8060 C.3   306  VAL306      0.0020
     37  CG2       25.3150   29.3190   20.8280 C.3   306  VAL306      0.0020
     38  N         29.0990   26.8000   20.8780 N.am  307  TYR307     -0.1976
     39  CA        30.5180   26.5490   21.1070 C.3   307  TYR307      0.1639
     40  C         31.2400   26.1080   19.8340 C.2   307  TYR307      0.2290
     41  O         32.4050   26.4700   19.6310 O.2   307  TYR307     -0.2864
     42  CB        30.6680   25.4870   22.1970 C.3   307  TYR307      0.0560
     43  CG        32.0930   25.2220   22.6290 C.ar  307  TYR307     -0.0198
     44  CD1       32.7070   26.0180   23.5960 C.ar  307  TYR307     -0.0009
     45  CD2       32.8190   24.1770   22.0790 C.ar  307  TYR307     -0.0009
     46  CE1       34.0130   25.7760   23.9980 C.ar  307  TYR307      0.0417
     47  CE2       34.1230   23.9270   22.4770 C.ar  307  TYR307      0.0417
     48  CZ        34.7120   24.7310   23.4320 C.ar  307  TYR307      0.1957
     49  OH        36.0080   24.4800   23.8170 O.3   307  TYR307     -0.2866
     50  N         30.8490   27.0020   16.7160 N.3   309  LEU309     -0.1231
     51  CA        30.7970   27.9270   15.5750 C.3   309  LEU309      0.1693
     52  C         32.1520   28.6080   15.3690 C.2   309  LEU309      0.2592
     53  O         32.3070   29.8170   15.5350 O.2   309  LEU309     -0.2718
     54  CB        29.6830   28.9530   15.7710 C.3   309  LEU309      0.0284
     55  CG        28.2740   28.3630   15.9000 C.3   309  LEU309      0.0019
     56  CD1       27.2740   29.4610   16.2100 C.3   309  LEU309      0.0001
     57  CD2       27.8960   27.6130   14.6210 C.3   309  LEU309      0.0001
     58  N         33.1290   27.7980   14.9370 N.am  310  ASP310     -0.1974
     59  CA        34.5120   28.2720   14.8360 C.3   310  ASP310      0.1709
     60  C         34.6560   29.4470   13.8710 C.2   310  ASP310      0.2293
     61  O         35.4780   30.3440   14.1010 O.2   310  ASP310     -0.2864
     62  CB        35.4330   27.1340   14.4020 C.3   310  ASP310      0.1436
     63  CG        35.5760   26.0540   15.4580 C.2   310  ASP310      0.3671
     64  OD1       35.1960   26.2910   16.6180 O.co2 310  ASP310     -0.2456
     65  OD2       36.0610   24.9580   15.1240 O.co2 310  ASP310     -0.2456
     66  N         32.5460   31.8030   13.3400 N.3   312  THR312     -0.1203
     67  CA        32.0520   33.0080   13.9990 C.3   312  THR312      0.1994
     68  C         33.0520   33.5010   15.0320 C.2   312  THR312      0.2617
     69  O         33.4170   34.6850   15.0570 O.2   312  THR312     -0.2717
     70  CB        30.7030   32.7030   14.6560 C.3   312  THR312      0.1784
     71  OG1       29.8340   32.1230   13.6800 O.3   312  THR312     -0.2211
     72  CG2       30.0440   33.9670   15.2260 C.3   312  THR312      0.0376
     73  N         33.5120   32.5930   15.8920 N.am  313  PHE313     -0.1975
     74  CA        34.3940   33.0720   16.9400 C.3   313  PHE313      0.1639
     75  C         35.7530   33.4850   16.3980 C.2   313  PHE313      0.2290
     76  O         36.3930   34.3460   17.0070 O.2   313  PHE313     -0.2864
     77  CB        34.5020   32.0350   18.0470 C.3   313  PHE313      0.0560
     78  CG        33.3240   32.0530   18.9700 C.ar  313  PHE313     -0.0200
     79  CD1       33.1960   33.0540   19.9180 C.ar  313  PHE313     -0.0042
     80  CD2       32.3250   31.1040   18.8630 C.ar  313  PHE313     -0.0042
     81  CE1       32.1070   33.0930   20.7620 C.ar  313  PHE313     -0.0003
     82  CE2       31.2320   31.1370   19.7050 C.ar  313  PHE313     -0.0003
     83  CZ        31.1230   32.1330   20.6560 C.ar  313  PHE313     -0.0000
     84  N         37.0770   38.6610   22.8140 N.3   321  LYS321     -0.1245
     85  CA        37.4770   37.3210   23.2300 C.3   321  LYS321      0.1561
     86  C         38.0550   37.3460   24.6310 C.2   321  LYS321      0.2260
     87  O         37.8140   36.4340   25.4300 O.2   321  LYS321     -0.2867
     88  CB        38.5110   36.7410   22.2670 C.3   321  LYS321      0.0271
     89  CG        37.9610   36.2760   20.9510 C.3   321  LYS321      0.0035
     90  CD        39.0620   35.5550   20.1970 C.3   321  LYS321      0.0206
     91  CE        38.5240   34.8450   18.9870 C.3   321  LYS321      0.1093
     92  NZ        39.1370   35.3740   17.7380 N.3   321  LYS321     -0.1314
     93  N         35.2180   37.6800   27.2050 N.3   324  LEU324     -0.1231
     94  CA        34.4800   36.4310   27.3560 C.3   324  LEU324      0.1693
     95  C         35.3170   35.3830   28.0800 C.2   324  LEU324      0.2591
     96  O         34.8050   34.6530   28.9430 O.2   324  LEU324     -0.2718
     97  CB        34.0300   35.9260   25.9810 C.3   324  LEU324      0.0284
     98  CG        33.2620   34.6060   25.9230 C.3   324  LEU324      0.0019
     99  CD1       31.9990   34.6640   26.7830 C.3   324  LEU324      0.0001
    100  CD2       32.9220   34.2750   24.4560 C.3   324  LEU324      0.0001
    101  N         36.6100   35.3050   27.7530 N.am  325  GLU325     -0.1979
    102  CA        37.4940   34.3540   28.4190 C.3   325  GLU325      0.1602
    103  C         37.5680   34.6240   29.9200 C.2   325  GLU325      0.2287
    104  O         37.4910   33.6970   30.7330 O.2   325  GLU325     -0.2864
    105  CB        38.8890   34.4170   27.7860 C.3   325  GLU325      0.0415
    106  CG        39.9430   33.5560   28.4920 C.3   325  GLU325      0.1163
    107  CD        39.5990   32.0750   28.5140 C.2   325  GLU325      0.3649
    108  OE1       38.8020   31.6160   27.6700 O.co2 325  GLU325     -0.2457
    109  OE2       40.1340   31.3540   29.3790 O.co2 325  GLU325     -0.2457
    110  N         34.3660   33.3850   31.4430 N.3   328  HIS328     -0.1241
    111  CA        34.3790   31.9250   31.5010 C.3   328  HIS328      0.1621
    112  C         35.2450   31.4170   32.6550 C.2   328  HIS328      0.2264
    113  O         34.8820   30.4530   33.3420 O.2   328  HIS328     -0.2867
    114  CB        34.8810   31.3530   30.1700 C.3   328  HIS328      0.0745
    115  CG        34.9580   29.8560   30.1560 C.ar  328  HIS328      0.0817
    116  ND1       33.8390   29.0530   30.2180 N.ar  328  HIS328     -0.2268
    117  CD2       36.0200   29.0160   30.1120 C.ar  328  HIS328      0.1154
    118  CE1       34.2050   27.7840   30.1950 C.ar  328  HIS328      0.1986
    119  NE2       35.5240   27.7340   30.1400 N.ar  328  HIS328     -0.2212
@<TRIPOS>BOND
     1    66    67    1
     2    71    70    1
     3    60    61    2
     4    60    59    1
     5    67    70    1
     6    67    68    1
     7    62    59    1
     8    62    63    1
     9    57    55    1
    10    70    72    1
    11    59    58    1
    12    58    52   am
    13    68    69    2
    14    68    73   am
    15    65    63   ar
    16    52    53    2
    17    52    51    1
    18    63    64   ar
    19    51    54    1
    20    51    50    1
    21    54    55    1
    22    73    74    1
    23    55    56    1
    24    75    74    1
    25    75    76    2
    26    74    77    1
    27    92    91    1
    28    77    78    1
    29     1     2    1
    30     7     5    1
    31     5     2    1
    32     5     6    1
    33    80    78   ar
    34    80    82   ar
    35    78    79   ar
    36    91    90    1
    37    34    33    2
    38     2     3    1
    39    41    40    2
    40    82    83   ar
    41    40    39    1
    42     3     4    2
    43    32    33    1
    44    32    31    1
    45    32    35    1
    46    79    81   ar
    47    33    38   am
    48    90    89    1
    49    83    81   ar
    50    36    35    1
    51    37    35    1
    52    38    39    1
    53    89    88    1
    54    39    42    1
    55    45    47   ar
    56    45    43   ar
    57    42    43    1
    58    88    85    1
    59    47    48   ar
    60    43    44   ar
    61    84    85    1
    62    21    22    1
    63    21    20    1
    64    85    86    1
    65    48    49    1
    66    48    46   ar
    67    44    46   ar
    68    18    17    2
    69   100    98    1
    70    86    87    2
    71    16    17    1
    72    16    19    1
    73    16    15    1
    74    17    23   am
    75    20    19    1
    76    25    26    2
    77    25    24    1
    78    23    24    1
    79    98    97    1
    80    98    99    1
    81    97    94    1
    82    24    27    1
    83    29    28    2
    84    93    94    1
    85    94    95    1
    86    27    28    1
    87   108   107   ar
    88    28    30   am
    89   101    95   am
    90   101   102    1
    91   105   102    1
    92   105   106    1
    93    95    96    2
    94    11    10    2
    95   102   103    1
    96   106   107    1
    97   107   109   ar
    98    10     9    1
    99     9     8    1
   100     9    12    1
   101   103   104    2
   102   117   119   ar
   103   117   115   ar
   104   119   118   ar
   105   115   114    1
   106   115   116   ar
   107   114   111    1
   108   118   116   ar
   109    13    12    1
   110    12    14    1
   111   110   111    1
   112   111   112    1
   113   112   113    2
