@<TRIPOS>MOLECULE
tmp/6curB00.pdb
 146 139 0 0 0
SMALL
GASTEIGER

@<TRIPOS>ATOM
      1  N         21.6430   33.6580   18.0760 N.3   262  ILE262     -0.1245
      2  CA        22.8890   33.3690   17.3730 C.3   262  ILE262      0.1561
      3  C         22.6360   32.4170   16.2060 C.2   262  ILE262      0.2260
      4  O         22.9440   32.7330   15.0500 O.2   262  ILE262     -0.2867
      5  CB        23.9380   32.8020   18.3480 C.3   262  ILE262      0.0252
      6  CG1       24.3940   33.8910   19.3370 C.3   262  ILE262      0.0019
      7  CG2       25.1530   32.2630   17.5830 C.3   262  ILE262      0.0019
      8  CD1       25.1780   33.3430   20.5450 C.3   262  ILE262      0.0001
      9  N         26.7990   38.0220   18.0450 N.3   275  VAL275     -0.1245
     10  CA        27.6490   37.5310   19.1340 C.3   275  VAL275      0.1561
     11  C         28.3890   38.6880   19.7960 C.2   275  VAL275      0.2260
     12  O         28.5000   38.7540   21.0290 O.2   275  VAL275     -0.2867
     13  CB        28.6270   36.4670   18.6010 C.3   275  VAL275      0.0252
     14  CG1       29.7630   36.2390   19.5920 C.3   275  VAL275      0.0019
     15  CG2       27.8840   35.1510   18.3070 C.3   275  VAL275      0.0019
     16  N         27.6110   33.2330   29.5780 N.3   298  VAL298     -0.1245
     17  CA        28.6400   32.1880   29.5570 C.3   298  VAL298      0.1561
     18  C         28.0280   30.8200   29.2480 C.2   298  VAL298      0.2260
     19  O         28.5940   30.0390   28.4730 O.2   298  VAL298     -0.2867
     20  CB        29.4130   32.1710   30.8880 C.3   298  VAL298      0.0252
     21  CG1       30.2770   30.9000   30.9970 C.3   298  VAL298      0.0019
     22  CG2       30.2680   33.4390   31.0150 C.3   298  VAL298      0.0019
     23  N         27.3030   30.6190   25.5200 N.3   301  MET301     -0.1230
     24  CA        28.4770   30.4560   24.6590 C.3   301  MET301      0.1702
     25  C         29.0920   29.0720   24.8030 C.2   301  MET301      0.2592
     26  O         29.7280   28.5860   23.8630 O.2   301  MET301     -0.2718
     27  CB        29.5290   31.5230   24.9690 C.3   301  MET301      0.0401
     28  CG        29.0410   32.9580   24.8100 C.3   301  MET301      0.0596
     29  SD        28.2640   33.2330   23.2180 S.3   301  MET301     -0.1393
     30  CE        28.2680   35.0270   23.1480 C.3   301  MET301      0.0692
     31  N         28.9150   28.4250   25.9600 N.am  302  ASN302     -0.1974
     32  CA        29.3690   27.0570   26.1830 C.3   302  ASN302      0.1688
     33  C         28.4260   26.0000   25.6160 C.2   302  ASN302      0.2292
     34  O         28.7740   24.8130   25.6420 O.2   302  ASN302     -0.2864
     35  CB        29.5370   26.8000   27.6940 C.3   302  ASN302      0.1181
     36  CG        30.9150   27.1890   28.2100 C.2   302  ASN302      0.2629
     37  OD1       31.8630   26.4160   28.1020 O.2   302  ASN302     -0.2716
     38  ND2       31.0270   28.3860   28.7860 N.am  302  ASN302     -0.0877
     39  N         26.3360   26.6570   20.0000 N.3   306  VAL306     -0.1231
     40  CA        27.1260   27.8740   19.8010 C.3   306  VAL306      0.1692
     41  C         28.6200   27.5870   19.8260 C.2   306  VAL306      0.2592
     42  O         29.3770   28.1040   18.9930 O.2   306  VAL306     -0.2718
     43  CB        26.7420   28.9070   20.8810 C.3   306  VAL306      0.0266
     44  CG1       27.6510   30.1210   20.7920 C.3   306  VAL306      0.0020
     45  CG2       25.2740   29.3190   20.7150 C.3   306  VAL306      0.0020
     46  N         29.0500   26.7770   20.7970 N.am  307  TYR307     -0.1962
     47  CA        30.4750   26.5480   21.0290 C.3   307  TYR307      0.1771
     48  C         31.1740   26.0290   19.7780 C.2   307  TYR307      0.2619
     49  O         32.3630   26.3000   19.5710 O.2   307  TYR307     -0.2715
     50  CB        30.6310   25.5570   22.1810 C.3   307  TYR307      0.0574
     51  CG        32.0160   25.4200   22.7780 C.ar  307  TYR307     -0.0198
     52  CD1       32.5200   26.3840   23.6440 C.ar  307  TYR307     -0.0009
     53  CD2       32.7980   24.3010   22.5160 C.ar  307  TYR307     -0.0009
     54  CE1       33.7680   26.2530   24.2200 C.ar  307  TYR307      0.0417
     55  CE2       34.0580   24.1640   23.0900 C.ar  307  TYR307      0.0417
     56  CZ        34.5320   25.1400   23.9350 C.ar  307  TYR307      0.1957
     57  OH        35.7730   25.0140   24.5150 O.3   307  TYR307     -0.2866
     58  N         30.4540   25.2940   18.9310 N.am  308  ARG308     -0.1963
     59  CA        31.0720   24.6660   17.7630 C.3   308  ARG308      0.1729
     60  C         31.2300   25.6060   16.5690 C.2   308  ARG308      0.2616
     61  O         31.7600   25.1760   15.5350 O.2   308  ARG308     -0.2715
     62  CB        30.2590   23.4370   17.3320 C.3   308  ARG308      0.0348
     63  CG        28.8150   23.7350   16.9270 C.3   308  ARG308      0.0492
     64  CD        28.1350   22.4790   16.3520 C.3   308  ARG308      0.2205
     65  NE        28.8770   21.9880   15.1870 N.pl3 308  ARG308     -0.0865
     66  CZ        28.7470   22.4830   13.9610 C.cat 308  ARG308      0.5346
     67  NH1       27.8920   23.4730   13.7220 N.pl3 308  ARG308      0.1354
     68  NH2       29.4860   21.9890   12.9690 N.pl3 308  ARG308      0.1354
     69  N         30.7980   26.8630   16.6690 N.am  309  LEU309     -0.1963
     70  CA        30.7760   27.7670   15.5130 C.3   309  LEU309      0.1728
     71  C         32.1380   28.4420   15.3260 C.2   309  LEU309      0.2616
     72  O         32.3180   29.6360   15.5650 O.2   309  LEU309     -0.2715
     73  CB        29.6660   28.7960   15.6730 C.3   309  LEU309      0.0311
     74  CG        28.2470   28.2230   15.7640 C.3   309  LEU309      0.0022
     75  CD1       27.2600   29.3420   16.0280 C.3   309  LEU309      0.0001
     76  CD2       27.8840   27.4640   14.4630 C.3   309  LEU309      0.0001
     77  N         33.0930   27.6540   14.8150 N.am  310  ASP310     -0.1971
     78  CA        34.4750   28.1180   14.6810 C.3   310  ASP310      0.1709
     79  C         34.6000   29.3220   13.7500 C.2   310  ASP310      0.2293
     80  O         35.4270   30.2130   13.9870 O.2   310  ASP310     -0.2864
     81  CB        35.3660   26.9900   14.1660 C.3   310  ASP310      0.1436
     82  CG        35.4230   25.8020   15.1060 C.2   310  ASP310      0.3671
     83  OD1       35.0830   25.9470   16.2970 O.co2 310  ASP310     -0.2456
     84  OD2       35.8170   24.7110   14.6450 O.co2 310  ASP310     -0.2456
     85  N         32.4600   31.7000   13.2380 N.3   312  THR312     -0.1203
     86  CA        31.9880   32.8890   13.9420 C.3   312  THR312      0.1994
     87  C         32.9980   33.3220   14.9930 C.2   312  THR312      0.2617
     88  O         33.3430   34.5080   15.0900 O.2   312  THR312     -0.2717
     89  CB        30.6300   32.5940   14.5960 C.3   312  THR312      0.1784
     90  OG1       29.7410   32.0300   13.6300 O.3   312  THR312     -0.2211
     91  CG2       29.9980   33.8640   15.1780 C.3   312  THR312      0.0376
     92  N         33.4770   32.3650   15.7930 N.am  313  PHE313     -0.1975
     93  CA        34.4280   32.6710   16.8580 C.3   313  PHE313      0.1639
     94  C         35.6780   33.3260   16.2930 C.2   313  PHE313      0.2290
     95  O         36.2250   34.2620   16.8870 O.2   313  PHE313     -0.2864
     96  CB        34.7900   31.3840   17.6060 C.3   313  PHE313      0.0560
     97  CG        35.6120   31.6040   18.8500 C.ar  313  PHE313     -0.0200
     98  CD1       35.0820   32.2880   19.9260 C.ar  313  PHE313     -0.0042
     99  CD2       36.9050   31.1080   18.9460 C.ar  313  PHE313     -0.0042
    100  CE1       35.8240   32.4910   21.0770 C.ar  313  PHE313     -0.0003
    101  CE2       37.6560   31.3060   20.0960 C.ar  313  PHE313     -0.0003
    102  CZ        37.1120   31.9950   21.1610 C.ar  313  PHE313     -0.0000
    103  N         35.3940   37.1610   16.0060 N.3   316  ILE316     -0.1245
    104  CA        35.1280   38.0210   17.1650 C.3   316  ILE316      0.1561
    105  C         36.3700   38.8530   17.4630 C.2   316  ILE316      0.2260
    106  O         37.4740   38.2910   17.5800 O.2   316  ILE316     -0.2867
    107  CB        34.7230   37.1790   18.3760 C.3   316  ILE316      0.0252
    108  CG1       33.4500   36.3940   18.0600 C.3   316  ILE316      0.0019
    109  CG2       34.4890   38.0690   19.5990 C.3   316  ILE316      0.0019
    110  CD1       32.3520   37.2530   17.4940 C.3   316  ILE316      0.0001
    111  N         36.9160   38.7460   22.6630 N.3   321  LYS321     -0.1245
    112  CA        37.3270   37.4150   23.0890 C.3   321  LYS321      0.1561
    113  C         37.8720   37.4550   24.5040 C.2   321  LYS321      0.2260
    114  O         37.6090   36.5530   25.3050 O.2   321  LYS321     -0.2867
    115  CB        38.3860   36.8380   22.1500 C.3   321  LYS321      0.0271
    116  CG        37.8880   36.3350   20.8130 C.3   321  LYS321      0.0035
    117  CD        38.9420   35.4110   20.2120 C.3   321  LYS321      0.0206
    118  CE        38.4850   34.7690   18.9150 C.3   321  LYS321      0.1093
    119  NZ        38.7650   35.6360   17.7330 N.3   321  LYS321     -0.1314
    120  N         35.0330   37.7590   27.0400 N.3   324  LEU324     -0.1231
    121  CA        34.3000   36.5050   27.2070 C.3   324  LEU324      0.1693
    122  C         35.1460   35.4680   27.9370 C.2   324  LEU324      0.2591
    123  O         34.6390   34.7290   28.7940 O.2   324  LEU324     -0.2718
    124  CB        33.8440   35.9770   25.8430 C.3   324  LEU324      0.0284
    125  CG        33.0860   34.6490   25.8640 C.3   324  LEU324      0.0019
    126  CD1       31.8000   34.7830   26.6650 C.3   324  LEU324      0.0001
    127  CD2       32.7700   34.2140   24.4300 C.3   324  LEU324      0.0001
    128  N         36.4470   35.4160   27.6350 N.am  325  GLU325     -0.1979
    129  CA        37.3110   34.4570   28.3150 C.3   325  GLU325      0.1602
    130  C         37.3710   34.7340   29.8130 C.2   325  GLU325      0.2287
    131  O         37.3010   33.8070   30.6280 O.2   325  GLU325     -0.2864
    132  CB        38.7190   34.4910   27.7140 C.3   325  GLU325      0.0415
    133  CG        39.7150   33.5620   28.4280 C.3   325  GLU325      0.1163
    134  CD        39.3470   32.0860   28.3220 C.2   325  GLU325      0.3649
    135  OE1       38.5980   31.7110   27.3970 O.co2 325  GLU325     -0.2457
    136  OE2       39.8130   31.2950   29.1660 O.co2 325  GLU325     -0.2457
    137  N         34.1700   33.4740   31.2990 N.3   328  HIS328     -0.1241
    138  CA        34.1940   32.0150   31.3580 C.3   328  HIS328      0.1621
    139  C         35.0750   31.5200   32.5010 C.2   328  HIS328      0.2264
    140  O         34.7280   30.5590   33.2000 O.2   328  HIS328     -0.2867
    141  CB        34.6980   31.4510   30.0270 C.3   328  HIS328      0.0745
    142  CG        34.8810   29.9660   30.0470 C.ar  328  HIS328      0.0817
    143  ND1       33.8230   29.0860   29.9430 N.ar  328  HIS328     -0.2268
    144  CD2       35.9900   29.2050   30.2080 C.ar  328  HIS328      0.1154
    145  CE1       34.2770   27.8460   30.0130 C.ar  328  HIS328      0.1986
    146  NE2       35.5880   27.8900   30.1840 N.ar  328  HIS328     -0.2212
@<TRIPOS>BOND
     1    68    66    1
     2    85    86    1
     3    90    89    1
     4    67    66    1
     5    79    80    2
     6    79    78    1
     7    86    89    1
     8    86    87    1
     9    66    65    2
    10    81    78    1
    11    81    82    1
    12    76    74    1
    13    89    91    1
    14    84    82   ar
    15    78    77    1
    16    77    71   am
    17    87    88    2
    18    87    92   am
    19     4     3    2
    20    82    83   ar
    21    65    64    1
    22    71    70    1
    23    71    72    2
    24    70    73    1
    25    70    69    1
    26    61    60    2
    27    73    74    1
    28    74    75    1
    29    92    93    1
    30   103   104    1
    31     3     2    1
    32    94    93    1
    33    94    95    2
    34    64    63    1
    35    60    69   am
    36    60    59    1
    37    93    96    1
    38    63    62    1
    39   104   105    1
    40   104   107    1
    41    62    59    1
    42     2     1    1
    43     2     5    1
    44   105   106    2
    45   110   108    1
    46     7     5    1
    47    96    97    1
    48   119   118    1
    49    59    58    1
    50     9    10    1
    51   108   107    1
    52    15    13    1
    53     5     6    1
    54   107   109    1
    55    13    10    1
    56    13    14    1
    57    97    99   ar
    58    97    98   ar
    59   118   117    1
    60    58    48   am
    61    99   101   ar
    62    42    41    2
    63    10    11    1
    64     6     8    1
    65    49    48    2
    66    48    47    1
    67    11    12    2
    68    40    41    1
    69    40    39    1
    70    40    43    1
    71    41    46   am
    72    98   100   ar
    73   101   102   ar
    74   117   116    1
    75    45    43    1
    76    44    43    1
    77    46    47    1
    78   116   115    1
    79    47    50    1
    80   100   102   ar
    81   115   112    1
    82    50    51    1
    83    53    51   ar
    84    53    55   ar
    85   111   112    1
    86    51    52   ar
    87   112   113    1
    88    55    56   ar
    89    30    29    1
    90    29    28    1
    91    52    54   ar
    92    26    25    2
    93    56    54   ar
    94    56    57    1
    95   127   125    1
    96   113   114    2
    97    24    25    1
    98    24    27    1
    99    24    23    1
   100    25    31   am
   101    28    27    1
   102    33    34    2
   103    33    32    1
   104   124   125    1
   105   124   121    1
   106   125   126    1
   107    31    32    1
   108    32    35    1
   109   120   121    1
   110   121   122    1
   111   135   134   ar
   112   128   122   am
   113   128   129    1
   114    35    36    1
   115   132   129    1
   116   132   133    1
   117   122   123    2
   118    37    36    2
   119    36    38   am
   120   129   130    1
   121   134   133    1
   122   134   136   ar
   123    19    18    2
   124    18    17    1
   125    17    16    1
   126    17    20    1
   127   130   131    2
   128   143   145   ar
   129   143   142   ar
   130   145   146   ar
   131   141   142    1
   132   141   138    1
   133   142   144   ar
   134   146   144   ar
   135    20    21    1
   136    20    22    1
   137   137   138    1
   138   138   139    1
   139   139   140    2
