@<TRIPOS>MOLECULE
tmp/6cv0B10.pdb
 83 79 0 0 0
SMALL
GASTEIGER

@<TRIPOS>ATOM
      1  N        187.5760  156.1390  111.0350 N.3   569  SER569     -0.1202
      2  CA       187.4730  154.9830  111.9040 C.3   569  SER569      0.2020
      3  C        186.9410  155.4440  113.2480 C.2   569  SER569      0.2619
      4  O        186.8780  156.6410  113.5320 O.2   569  SER569     -0.2717
      5  CB       188.8280  154.2910  112.0590 C.3   569  SER569      0.2103
      6  OG       189.7330  155.1310  112.7490 O.3   569  SER569     -0.2182
      7  N        186.5740  154.4840  114.0890 N.am  570  PHE570     -0.1961
      8  CA       185.8970  154.8410  115.3230 C.3   570  PHE570      0.1771
      9  C        186.0660  153.7430  116.3590 C.2   570  PHE570      0.2620
     10  O        186.2150  152.5660  116.0250 O.2   570  PHE570     -0.2715
     11  CB       184.4130  155.1360  115.0740 C.3   570  PHE570      0.0574
     12  CG       183.6580  154.0110  114.4260 C.ar  570  PHE570     -0.0200
     13  CD1      183.5730  153.9280  113.0450 C.ar  570  PHE570     -0.0042
     14  CD2      182.9970  153.0680  115.1910 C.ar  570  PHE570     -0.0042
     15  CE1      182.8720  152.9120  112.4450 C.ar  570  PHE570     -0.0003
     16  CE2      182.2970  152.0500  114.5930 C.ar  570  PHE570     -0.0003
     17  CZ       182.2330  151.9780  113.2190 C.ar  570  PHE570     -0.0000
     18  N        186.0180  154.1540  117.6180 N.am  571  ASN571     -0.1958
     19  CA       186.1720  153.2820  118.7650 C.3   571  ASN571      0.1819
     20  C        185.0130  153.4870  119.7260 C.2   571  ASN571      0.2621
     21  O        184.2040  154.4040  119.5740 O.2   571  ASN571     -0.2715
     22  CB       187.5070  153.5500  119.4540 C.3   571  ASN571      0.1195
     23  CG       188.6680  153.0100  118.6690 C.2   571  ASN571      0.2630
     24  OD1      188.6480  151.8550  118.2490 O.2   571  ASN571     -0.2716
     25  ND2      189.6780  153.8470  118.4440 N.am  571  ASN571     -0.0877
     26  N        184.9320  152.6160  120.7240 N.am  572  LEU572     -0.1963
     27  CA       183.8630  152.6540  121.7090 C.3   572  LEU572      0.1728
     28  C        184.4820  152.6840  123.0970 C.2   572  LEU572      0.2616
     29  O        185.3320  151.8490  123.4170 O.2   572  LEU572     -0.2715
     30  CB       182.9400  151.4440  121.5600 C.3   572  LEU572      0.0311
     31  CG       182.2560  151.2770  120.2010 C.3   572  LEU572      0.0022
     32  CD1      181.4260  150.0110  120.1590 C.3   572  LEU572      0.0001
     33  CD2      181.4100  152.4730  119.8630 C.3   572  LEU572      0.0001
     34  N        184.0610  153.6440  123.9150 N.am  573  THR573     -0.1951
     35  CA       184.5970  153.8230  125.2590 C.3   573  THR573      0.1897
     36  C        183.4840  153.5840  126.2650 C.2   573  THR573      0.2313
     37  O        182.5320  154.3670  126.3330 O.2   573  THR573     -0.2863
     38  CB       185.1740  155.2260  125.4430 C.3   573  THR573      0.1794
     39  OG1      184.1230  156.1920  125.3310 O.3   573  THR573     -0.2208
     40  CG2      186.2240  155.5100  124.3850 C.3   573  THR573      0.0378
     41  N        185.1730  145.9960  111.2720 N.3   766  LYS766     -0.1245
     42  CA       185.7130  147.1230  112.0190 C.3   766  LYS766      0.1561
     43  C        184.9410  147.3250  113.3150 C.2   766  LYS766      0.2260
     44  O        185.5390  147.5390  114.3800 O.2   766  LYS766     -0.2867
     45  CB       185.6610  148.3760  111.1490 C.3   766  LYS766      0.0271
     46  CG       186.3620  149.5850  111.7190 C.3   766  LYS766      0.0035
     47  CD       186.2530  150.7580  110.7630 C.3   766  LYS766      0.0206
     48  CE       187.4810  150.8670  109.8760 C.3   766  LYS766      0.1093
     49  NZ       187.4730  149.8880  108.7570 N.3   766  LYS766     -0.1314
     50  N        187.6390  145.0980  121.4650 N.3   773  LYS773     -0.1245
     51  CA       188.5490  145.8880  122.2930 C.3   773  LYS773      0.1561
     52  C        187.8090  146.6100  123.4170 C.2   773  LYS773      0.2260
     53  O        188.3380  146.7360  124.5330 O.2   773  LYS773     -0.2867
     54  CB       189.3030  146.8870  121.4180 C.3   773  LYS773      0.0271
     55  CG       190.3970  147.6530  122.1300 C.3   773  LYS773      0.0035
     56  CD       191.1010  148.6040  121.1820 C.3   773  LYS773      0.0206
     57  CE       191.9570  147.8480  120.1830 C.3   773  LYS773      0.1093
     58  NZ       193.1040  147.1690  120.8440 N.3   773  LYS773     -0.1314
     59  N        188.5510  146.1600  127.4630 N.3   777  ARG777     -0.1245
     60  CA       188.7230  147.2200  128.4560 C.3   777  ARG777      0.1563
     61  C        187.6580  147.1470  129.5460 C.2   777  ARG777      0.2260
     62  O        187.9240  147.4920  130.7050 O.2   777  ARG777     -0.2867
     63  CB       188.6880  148.5910  127.7820 C.3   777  ARG777      0.0307
     64  CG       189.7860  148.8080  126.7610 C.3   777  ARG777      0.0489
     65  CD       191.1370  148.8830  127.4370 C.3   777  ARG777      0.2205
     66  NE       192.2270  149.0500  126.4820 N.pl3 777  ARG777     -0.0865
     67  CZ       192.6760  150.2280  126.0630 C.cat 777  ARG777      0.5346
     68  NH1      192.1230  151.3450  126.5110 N.pl3 777  ARG777      0.1354
     69  NH2      193.6770  150.2890  125.1960 N.pl3 777  ARG777      0.1354
     70  N        189.1690  158.7630  117.2880 N.3   914  ASP914     -0.1225
     71  CA       190.3800  159.5730  117.3520 C.3   914  ASP914      0.1805
     72  C        191.0990  159.7120  116.0180 C.2   914  ASP914      0.2598
     73  O        191.6080  160.7940  115.7160 O.2   914  ASP914     -0.2718
     74  CB       191.3310  158.9940  118.4170 C.3   914  ASP914      0.1424
     75  CG       191.6490  157.5270  118.1900 C.2   914  ASP914      0.3668
     76  OD1      191.0800  156.9180  117.2600 O.co2 914  ASP914     -0.2456
     77  OD2      192.4690  156.9750  118.9530 O.co2 914  ASP914     -0.2456
     78  N        191.1470  158.6550  115.2100 N.am  915  SER915     -0.1952
     79  CA       191.8970  158.6930  113.9590 C.3   915  SER915      0.1924
     80  C        191.1310  159.5010  112.9190 C.2   915  SER915      0.2314
     81  O        189.9740  159.1960  112.6150 O.2   915  SER915     -0.2863
     82  CB       192.1580  157.2760  113.4590 C.3   915  SER915      0.2116
     83  OG       192.8820  157.2910  112.2410 O.3   915  SER915     -0.2180
@<TRIPOS>BOND
     1    49    48    1
     2    48    47    1
     3    47    46    1
     4     1     2    1
     5    45    46    1
     6    45    42    1
     7    41    42    1
     8     2     5    1
     9     2     3    1
    10    42    43    1
    11     5     6    1
    12    83    82    1
    13    15    13   ar
    14    15    17   ar
    15    81    80    2
    16    80    79    1
    17    13    12   ar
    18    17    16   ar
    19     3     4    2
    20     3     7   am
    21    43    44    2
    22    82    79    1
    23    79    78    1
    24     7     8    1
    25    12    11    1
    26    12    14   ar
    27    16    14   ar
    28    11     8    1
    29    78    72   am
    30     8     9    1
    31    73    72    2
    32    72    71    1
    33    10     9    2
    34     9    18   am
    35    76    75   ar
    36    70    71    1
    37    71    74    1
    38    18    19    1
    39    75    74    1
    40    75    77   ar
    41    24    23    2
    42    25    23   am
    43    23    22    1
    44    19    22    1
    45    19    20    1
    46    21    20    2
    47    20    26   am
    48    33    31    1
    49    32    31    1
    50    57    58    1
    51    57    56    1
    52    31    30    1
    53    26    27    1
    54    56    55    1
    55    54    55    1
    56    54    51    1
    57    50    51    1
    58    30    27    1
    59    27    28    1
    60    51    52    1
    61    28    29    2
    62    28    34   am
    63    52    53    2
    64    34    35    1
    65    40    38    1
    66    69    67    1
    67    35    38    1
    68    35    36    1
    69    39    38    1
    70    67    66    2
    71    67    68    1
    72    36    37    2
    73    66    65    1
    74    64    65    1
    75    64    63    1
    76    59    60    1
    77    63    60    1
    78    60    61    1
    79    61    62    2
