@<TRIPOS>MOLECULE
tmp/6cv0B06.pdb
 128 124 0 0 0
SMALL
GASTEIGER

@<TRIPOS>ATOM
      1  N        202.7830  120.6280  198.4600 N.3    50  ILE50      -0.1231
      2  CA       202.5970  122.0630  198.2780 C.3    50  ILE50       0.1692
      3  C        203.9260  122.7790  198.0180 C.2    50  ILE50       0.2592
      4  O        203.9330  123.9800  197.7130 O.2    50  ILE50      -0.2718
      5  CB       201.8480  122.5970  199.5220 C.3    50  ILE50       0.0266
      6  CG1      200.6960  121.6520  199.8930 C.3    50  ILE50       0.0019
      7  CG2      201.1920  123.9660  199.2840 C.3    50  ILE50       0.0020
      8  CD1      199.5850  121.5410  198.8460 C.3    50  ILE50       0.0001
      9  N        205.0510  122.0680  198.0770 N.am   51  HIS51      -0.1976
     10  CA       206.3580  122.7110  197.9880 C.3    51  HIS51       0.1656
     11  C        206.6610  123.1810  196.5630 C.2    51  HIS51       0.2291
     12  O        205.9220  122.9090  195.6140 O.2    51  HIS51      -0.2864
     13  CB       207.4580  121.7610  198.4690 C.3    51  HIS51       0.0771
     14  CG       207.4230  121.4850  199.9430 C.ar   51  HIS51       0.0820
     15  ND1      208.2170  120.5290  200.5390 N.ar   51  HIS51      -0.2267
     16  CD2      206.6900  122.0390  200.9390 C.ar   51  HIS51       0.1154
     17  CE1      207.9750  120.5050  201.8380 C.ar   51  HIS51       0.1986
     18  NE2      207.0530  121.4110  202.1060 N.ar   51  HIS51      -0.2212
     19  N        208.0840  126.7530  195.8210 N.3    53  GLY53      -0.1210
     20  CA       207.7090  128.1450  195.6850 C.3    53  GLY53       0.1956
     21  C        208.7560  128.9910  194.9780 C.2    53  GLY53       0.2612
     22  O        209.8050  128.5160  194.5420 O.2    53  GLY53      -0.2717
     23  N        208.4450  130.2840  194.8720 N.am   54  ARG54      -0.1965
     24  CA       209.3320  131.2680  194.2500 C.3    54  ARG54       0.1729
     25  C        208.9250  132.6450  194.7470 C.2    54  ARG54       0.2616
     26  O        207.8140  133.0970  194.4540 O.2    54  ARG54      -0.2715
     27  CB       209.2490  131.1970  192.7300 C.3    54  ARG54       0.0348
     28  CG       210.1700  132.1600  192.0190 C.3    54  ARG54       0.0492
     29  CD       210.1080  131.9500  190.5210 C.3    54  ARG54       0.2205
     30  NE       211.0100  132.8360  189.7950 N.pl3  54  ARG54      -0.0865
     31  CZ       210.6720  134.0400  189.3460 C.cat  54  ARG54       0.5346
     32  NH1      209.4470  134.5040  189.5460 N.pl3  54  ARG54       0.1354
     33  NH2      211.5570  134.7810  188.6960 N.pl3  54  ARG54       0.1354
     34  N        209.8180  133.3140  195.4720 N.am   55  VAL55      -0.1977
     35  CA       209.4710  134.5090  196.2390 C.3    55  VAL55       0.1596
     36  C        209.2920  135.6890  195.2900 C.2    55  VAL55       0.2287
     37  O        210.2500  136.1440  194.6630 O.2    55  VAL55      -0.2864
     38  CB       210.5330  134.8170  197.2980 C.3    55  VAL55       0.0276
     39  CG1      210.1940  136.1070  198.0220 C.3    55  VAL55       0.0022
     40  CG2      210.6540  133.6630  198.2740 C.3    55  VAL55       0.0022
     41  N        200.0860  126.2560  193.0470 N.3    81  HIS81      -0.1241
     42  CA       199.5110  127.0960  194.0870 C.3    81  HIS81       0.1621
     43  C        200.1610  128.4710  194.1610 C.2    81  HIS81       0.2264
     44  O        201.3440  128.6360  193.8530 O.2    81  HIS81      -0.2867
     45  CB       199.6660  126.4220  195.4430 C.3    81  HIS81       0.0745
     46  CG       201.0840  126.2860  195.8860 C.ar   81  HIS81       0.0817
     47  ND1      201.7320  127.2590  196.6140 N.ar   81  HIS81      -0.2268
     48  CD2      201.9860  125.2990  195.6870 C.ar   81  HIS81       0.1154
     49  CE1      202.9700  126.8720  196.8530 C.ar   81  HIS81       0.1986
     50  NE2      203.1500  125.6870  196.3000 N.ar   81  HIS81      -0.2212
     51  N        200.3990  131.5990  197.3600 N.3    83  ASN83      -0.1225
     52  CA       200.1510  131.7680  198.7850 C.3    83  ASN83       0.1785
     53  C        200.0700  133.2620  199.0800 C.2    83  ASN83       0.2597
     54  O        200.7030  134.0750  198.4040 O.2    83  ASN83      -0.2718
     55  CB       201.1940  131.0360  199.6730 C.3    83  ASN83       0.1169
     56  CG       202.6390  131.4280  199.3840 C.2    83  ASN83       0.2627
     57  OD1      202.8920  132.3670  198.6450 O.2    83  ASN83      -0.2716
     58  ND2      203.6120  130.7050  199.9620 N.am   83  ASN83      -0.0877
     59  N        199.2310  133.6210  200.0330 N.am   84  PHE84      -0.1962
     60  CA       199.1630  134.9850  200.5330 C.3    84  PHE84       0.1771
     61  C        200.0570  135.0610  201.7710 C.2    84  PHE84       0.2620
     62  O        200.9080  134.1890  201.9660 O.2    84  PHE84      -0.2715
     63  CB       197.7010  135.3660  200.7520 C.3    84  PHE84       0.0574
     64  CG       196.9140  135.4550  199.4760 C.ar   84  PHE84      -0.0200
     65  CD1      197.5380  135.7840  198.2860 C.ar   84  PHE84      -0.0042
     66  CD2      195.5700  135.1330  199.4500 C.ar   84  PHE84      -0.0042
     67  CE1      196.8250  135.8490  197.1110 C.ar   84  PHE84      -0.0003
     68  CE2      194.8590  135.1790  198.2700 C.ar   84  PHE84      -0.0003
     69  CZ       195.4830  135.5480  197.1050 C.ar   84  PHE84      -0.0000
     70  N        199.9120  136.1110  202.5880 N.am   85  SER85      -0.1936
     71  CA       200.7430  136.2490  203.7830 C.3    85  SER85       0.2055
     72  C        200.5050  135.1150  204.7750 C.2    85  SER85       0.2643
     73  O        201.4460  134.6350  205.4170 O.2    85  SER85      -0.2714
     74  CB       200.4880  137.5990  204.4490 C.3    85  SER85       0.2130
     75  OG       200.9420  138.6610  203.6330 O.3    85  SER85      -0.2179
     76  N        199.2610  134.6590  204.8960 N.am   86  ASP86      -0.1971
     77  CA       198.9390  133.5110  205.7320 C.3    86  ASP86       0.1709
     78  C        198.1550  132.4240  205.0210 C.2    86  ASP86       0.2293
     79  O        198.4120  131.2430  205.2780 O.2    86  ASP86      -0.2864
     80  CB       198.1370  133.9570  206.9620 C.3    86  ASP86       0.1436
     81  CG       198.9600  134.7770  207.9250 C.2    86  ASP86       0.3671
     82  OD1      200.1810  134.5340  208.0200 O.co2  86  ASP86      -0.2456
     83  OD2      198.3880  135.6720  208.5810 O.co2  86  ASP86      -0.2456
     84  N        196.5860  130.1790  201.7380 N.3    88  THR88      -0.1218
     85  CA       197.0210  129.6650  200.4510 C.3    88  THR88       0.1862
     86  C        195.8080  129.3330  199.6010 C.2    88  THR88       0.2287
     87  O        194.6810  129.2940  200.0880 O.2    88  THR88      -0.2866
     88  CB       197.8790  128.4130  200.6080 C.3    88  THR88       0.1770
     89  OG1      197.0810  127.3540  201.1420 O.3    88  THR88      -0.2211
     90  CG2      198.9950  128.6860  201.5630 C.3    88  THR88       0.0375
     91  N        193.5880  127.2860  202.5200 N.3   116  MET116     -0.1230
     92  CA       194.2060  126.6260  203.6590 C.3   116  MET116      0.1702
     93  C        194.9260  127.6520  204.5180 C.2   116  MET116      0.2592
     94  O        195.8060  128.3660  204.0300 O.2   116  MET116     -0.2718
     95  CB       195.1840  125.5400  203.2000 C.3   116  MET116      0.0401
     96  CG       195.8360  124.7630  204.3300 C.3   116  MET116      0.0596
     97  SD       196.9040  123.4250  203.7550 S.3   116  MET116     -0.1393
     98  CE       198.2820  124.3420  203.0710 C.3   116  MET116      0.0692
     99  N        194.5530  127.7180  205.7880 N.am  117  LYS117     -0.1966
    100  CA       195.2540  128.5430  206.7600 C.3   117  LYS117      0.1728
    101  C        196.3750  127.7140  207.3900 C.2   117  LYS117      0.2616
    102  O        196.7730  126.6830  206.8420 O.2   117  LYS117     -0.2715
    103  CB       194.2660  129.1170  207.7770 C.3   117  LYS117      0.0311
    104  CG       193.3590  130.1860  207.1860 C.3   117  LYS117      0.0038
    105  CD       192.3800  130.7300  208.2120 C.3   117  LYS117      0.0206
    106  CE       193.0780  131.6170  209.2300 C.3   117  LYS117      0.1093
    107  NZ       193.5610  132.8810  208.6150 N.3   117  LYS117     -0.1314
    108  N        196.9140  128.1820  208.5200 N.am  118  ASN118     -0.1972
    109  CA       198.1510  127.6290  209.0720 C.3   118  ASN118      0.1688
    110  C        198.0020  126.1770  209.5210 C.2   118  ASN118      0.2292
    111  O        198.9380  125.3810  209.3840 O.2   118  ASN118     -0.2864
    112  CB       198.6330  128.5100  210.2280 C.3   118  ASN118      0.1181
    113  CG       197.5600  128.7400  211.2840 C.2   118  ASN118      0.2629
    114  OD1      196.4510  128.2180  211.1920 O.2   118  ASN118     -0.2716
    115  ND2      197.8950  129.5280  212.2970 N.am  118  ASN118     -0.0877
    116  N        202.8930  136.8560  197.8970 N.3   164  THR164     -0.1203
    117  CA       204.2550  136.7030  198.3860 C.3   164  THR164      0.1994
    118  C        205.0530  135.6030  197.7010 C.2   164  THR164      0.2618
    119  O        206.2800  135.7060  197.6550 O.2   164  THR164     -0.2717
    120  CB       204.2700  136.4680  199.9040 C.3   164  THR164      0.1784
    121  OG1      205.6240  136.4150  200.3640 O.3   164  THR164     -0.2211
    122  CG2      203.5630  135.1860  200.2830 C.3   164  THR164      0.0376
    123  N        204.4120  134.5680  197.1570 N.am  165  SER165     -0.1951
    124  CA       205.1200  133.5190  196.4300 C.3   165  SER165      0.1924
    125  C        204.1250  132.7690  195.5600 C.2   165  SER165      0.2314
    126  O        202.9110  132.9260  195.6920 O.2   165  SER165     -0.2863
    127  CB       205.8360  132.5350  197.3660 C.3   165  SER165      0.2116
    128  OG       206.8750  133.1590  198.0980 O.3   165  SER165     -0.2180
@<TRIPOS>BOND
     1    33    31    1
     2    31    32    1
     3    31    30    2
     4    30    29    1
     5    29    28    1
     6    28    27    1
     7    27    24    1
     8    41    42    1
     9    44    43    2
    10    42    43    1
    11    42    45    1
    12    24    25    1
    13    24    23    1
    14    26    25    2
    15    22    21    2
    16    37    36    2
    17    25    34   am
    18    23    21   am
    19    21    20    1
    20    36    35    1
    21    45    46    1
    22    34    35    1
    23   125   126    2
    24   125   124    1
    25    12    11    2
    26    20    19    1
    27    48    46   ar
    28    48    50   ar
    29    46    47   ar
    30    35    38    1
    31    50    49   ar
    32   124   123    1
    33   124   127    1
    34    11    10    1
    35    47    49   ar
    36    69    67   ar
    37    69    68   ar
    38    67    65   ar
    39   123   118   am
    40    38    39    1
    41    38    40    1
    42    51    52    1
    43   127   128    1
    44   119   118    2
    45   118   117    1
    46     4     3    2
    47   116   117    1
    48    10     9    1
    49    10    13    1
    50     3     9   am
    51     3     2    1
    52    68    66   ar
    53     2     1    1
    54     2     5    1
    55    65    64   ar
    56   117   120    1
    57    54    53    2
    58    13    14    1
    59    57    56    2
    60    52    53    1
    61    52    55    1
    62     8     6    1
    63    53    59   am
    64     7     5    1
    65    56    55    1
    66    56    58   am
    67    66    64   ar
    68    64    63    1
    69     5     6    1
    70    86    87    2
    71    86    85    1
    72   120   122    1
    73   120   121    1
    74    14    15   ar
    75    14    16   ar
    76    59    60    1
    77    85    88    1
    78    85    84    1
    79    60    63    1
    80    60    61    1
    81    15    17   ar
    82    88    89    1
    83    88    90    1
    84    16    18   ar
    85    61    62    2
    86    61    70   am
    87    17    18   ar
    88    91    92    1
    89    70    71    1
    90    98    97    1
    91    95    92    1
    92    95    96    1
    93    75    74    1
    94    92    93    1
    95    97    96    1
    96    71    74    1
    97    71    72    1
    98    94    93    2
    99    93    99   am
   100    72    76   am
   101    72    73    2
   102    76    77    1
   103    78    79    2
   104    78    77    1
   105    77    80    1
   106    99   100    1
   107   100   101    1
   108   100   103    1
   109   102   101    2
   110    80    81    1
   111   104   103    1
   112   104   105    1
   113   101   108   am
   114    81    82   ar
   115    81    83   ar
   116   105   106    1
   117   108   109    1
   118   107   106    1
   119   109   110    1
   120   109   112    1
   121   111   110    2
   122   112   113    1
   123   114   113    2
   124   113   115   am
