@<TRIPOS>MOLECULE
tmp/6cv0B16.pdb
 80 72 0 0 0
SMALL
GASTEIGER

@<TRIPOS>ATOM
      1  N        198.9250  153.7920  175.1350 N.3   203  GLY203     -0.1225
      2  CA       199.4890  154.9160  174.4170 C.3   203  GLY203      0.1811
      3  C        199.9940  154.6100  173.0260 C.2   203  GLY203      0.2280
      4  O        200.6600  155.4630  172.4290 O.2   203  GLY203     -0.2866
      5  N        199.5740  154.1360  168.9530 N.3   205  PRO205     -0.2116
      6  CA       198.6610  154.7500  167.9740 C.3   205  PRO205      0.1372
      7  C        197.4920  153.8720  167.5760 C.2   205  PRO205      0.2244
      8  O        196.4310  154.4060  167.2410 O.2   205  PRO205     -0.2868
      9  CB       199.5740  155.0370  166.7780 C.3   205  PRO205      0.0268
     10  CG       200.9110  155.2120  167.3850 C.3   205  PRO205      0.0207
     11  CD       200.9770  154.2410  168.5210 C.3   205  PRO205      0.0892
     12  N        194.7660  154.0610  170.9200 N.3   208  LEU208     -0.1245
     13  CA       194.0090  155.2470  171.3180 C.3   208  LEU208      0.1561
     14  C        192.6680  155.3430  170.6080 C.2   208  LEU208      0.2260
     15  O        191.6960  155.8290  171.2000 O.2   208  LEU208     -0.2867
     16  CB       194.8230  156.5080  171.0550 C.3   208  LEU208      0.0270
     17  CG       196.0540  156.6560  171.9390 C.3   208  LEU208      0.0019
     18  CD1      196.8570  157.8640  171.5220 C.3   208  LEU208      0.0001
     19  CD2      195.6330  156.7660  173.3850 C.3   208  LEU208      0.0001
     20  N        191.3640  162.6920  167.7120 N.3   225  PHE225     -0.1241
     21  CA       191.7520  162.0700  168.9720 C.3   225  PHE225      0.1605
     22  C        192.5490  163.0730  169.7890 C.2   225  PHE225      0.2264
     23  O        192.8350  164.1810  169.3350 O.2   225  PHE225     -0.2867
     24  CB       192.5780  160.8080  168.7290 C.3   225  PHE225      0.0534
     25  CG       193.9870  161.0760  168.2910 C.ar  225  PHE225     -0.0203
     26  CD1      194.2640  161.4580  166.9980 C.ar  225  PHE225     -0.0042
     27  CD2      195.0430  160.8750  169.1570 C.ar  225  PHE225     -0.0042
     28  CE1      195.5590  161.6810  166.5890 C.ar  225  PHE225     -0.0003
     29  CE2      196.3380  161.0960  168.7520 C.ar  225  PHE225     -0.0003
     30  CZ       196.5950  161.4950  167.4650 C.ar  225  PHE225     -0.0000
     31  N        195.8400  163.1430  173.0930 N.3   227  ASN227     -0.1240
     32  CA       196.7060  162.5440  174.1050 C.3   227  ASN227      0.1653
     33  C        197.2120  163.6510  175.0230 C.2   227  ASN227      0.2266
     34  O        198.1430  164.3860  174.6760 O.2   227  ASN227     -0.2867
     35  CB       197.8550  161.7550  173.4740 C.3   227  ASN227      0.1155
     36  CG       198.5110  162.4940  172.3330 C.2   227  ASN227      0.2627
     37  OD1      198.0110  163.5310  171.9080 O.2   227  ASN227     -0.2716
     38  ND2      199.6510  162.0000  171.8520 N.am  227  ASN227     -0.0877
     39  N        199.1570  165.3530  177.8730 N.3   229  SER229     -0.1217
     40  CA       200.3950  165.1470  178.6190 C.3   229  SER229      0.1889
     41  C        201.0840  166.4910  178.7480 C.2   229  SER229      0.2288
     42  O        201.4640  167.0820  177.7330 O.2   229  SER229     -0.2866
     43  CB       201.3030  164.1540  177.9090 C.3   229  SER229      0.2089
     44  OG       201.7550  164.6990  176.6810 O.3   229  SER229     -0.2183
     45  N        194.1840  166.8910  166.1700 N.3   476  GLN476     -0.1245
     46  CA       194.9610  165.9820  165.3480 C.3   476  GLN476      0.1566
     47  C        194.0210  164.9500  164.7570 C.2   476  GLN476      0.2260
     48  O        193.0000  164.6130  165.3570 O.2   476  GLN476     -0.2867
     49  CB       196.0520  165.2820  166.1570 C.3   476  GLN476      0.0367
     50  CG       197.1900  166.1830  166.5670 C.3   476  GLN476      0.0905
     51  CD       198.2530  165.4580  167.3680 C.2   476  GLN476      0.2608
     52  OE1      198.0900  164.2960  167.7310 O.2   476  GLN476     -0.2717
     53  NE2      199.3600  166.1380  167.6280 N.am  476  GLN476     -0.0878
     54  N        199.2970  159.5190  161.1550 N.3   488  ILE488     -0.1245
     55  CA       198.7250  160.6560  161.8620 C.3   488  ILE488      0.1561
     56  C        198.8470  161.8990  160.9980 C.2   488  ILE488      0.2260
     57  O        199.9460  162.2730  160.5800 O.2   488  ILE488     -0.2867
     58  CB       199.4070  160.8610  163.2250 C.3   488  ILE488      0.0252
     59  CG1      199.0230  159.7560  164.2090 C.3   488  ILE488      0.0019
     60  CG2      199.0530  162.2060  163.8090 C.3   488  ILE488      0.0019
     61  CD1      199.9920  158.6200  164.2880 C.3   488  ILE488      0.0001
     62  N        201.6360  169.7470  163.7960 N.3   492  ARG492     -0.1245
     63  CA       203.0120  170.0520  164.1430 C.3   492  ARG492      0.1563
     64  C        203.9680  169.4470  163.1200 C.2   492  ARG492      0.2260
     65  O        203.5660  168.7540  162.1850 O.2   492  ARG492     -0.2867
     66  CB       203.3380  169.5280  165.5360 C.3   492  ARG492      0.0307
     67  CG       203.2810  168.0200  165.6250 C.3   492  ARG492      0.0489
     68  CD       203.5350  167.5220  167.0330 C.3   492  ARG492      0.2205
     69  NE       203.4940  166.0640  167.0890 N.pl3 492  ARG492     -0.0865
     70  CZ       203.7540  165.3500  168.1770 C.cat 492  ARG492      0.5346
     71  NH1      203.6930  164.0270  168.1330 N.pl3 492  ARG492      0.1354
     72  NH2      204.0820  165.9610  169.3060 N.pl3 492  ARG492      0.1354
     73  N        202.7650  162.7700  158.8940 N.3   506  ILE506     -0.1245
     74  CA       203.7950  161.8100  159.2560 C.3   506  ILE506      0.1561
     75  C        203.2790  160.4150  158.9230 C.2   506  ILE506      0.2260
     76  O        202.1800  160.2430  158.4000 O.2   506  ILE506     -0.2867
     77  CB       204.2290  161.9390  160.7320 C.3   506  ILE506      0.0252
     78  CG1      203.0650  161.7430  161.7040 C.3   506  ILE506      0.0019
     79  CG2      204.8790  163.2800  160.9760 C.3   506  ILE506      0.0019
     80  CD1      203.0020  160.3670  162.3440 C.3   506  ILE506      0.0001
@<TRIPOS>BOND
     1    76    75    2
     2    73    74    1
     3    75    74    1
     4    74    77    1
     5    57    56    2
     6    77    79    1
     7    77    78    1
     8    56    55    1
     9    54    55    1
    10    78    80    1
    11    55    58    1
    12    65    64    2
    13    64    63    1
    14    58    60    1
    15    58    59    1
    16    62    63    1
    17    63    66    1
    18    59    61    1
    19    47    46    1
    20    47    48    2
    21    46    49    1
    22    46    45    1
    23    66    67    1
    24    67    68    1
    25    49    50    1
    26    50    51    1
    27    28    26   ar
    28    28    30   ar
    29     9    10    1
    30     9     6    1
    31    26    25   ar
    32    68    69    1
    33    69    70    2
    34     8     7    2
    35    51    53   am
    36    51    52    2
    37    10    11    1
    38    30    29   ar
    39     7     6    1
    40    20    21    1
    41     6     5    1
    42    71    70    1
    43    70    72    1
    44    25    24    1
    45    25    27   ar
    46    11     5    1
    47    24    21    1
    48    29    27   ar
    49    21    22    1
    50    23    22    2
    51    14    15    2
    52    14    13    1
    53    12    13    1
    54    16    13    1
    55    16    17    1
    56    18    17    1
    57    38    36   am
    58    37    36    2
    59    17    19    1
    60    36    35    1
    61     4     3    2
    62     3     2    1
    63    31    32    1
    64    35    32    1
    65    32    33    1
    66     2     1    1
    67    34    33    2
    68    44    43    1
    69    42    41    2
    70    39    40    1
    71    43    40    1
    72    40    41    1
