@<TRIPOS>MOLECULE
tmp/6cv0C07.pdb
 99 94 0 0 0
SMALL
GASTEIGER

@<TRIPOS>ATOM
      1  N        185.1430  220.0310  198.4680 N.3    50  ILE50      -0.1231
      2  CA       183.9930  219.1520  198.2860 C.3    50  ILE50       0.1692
      3  C        182.7090  219.9450  198.0260 C.2    50  ILE50       0.2592
      4  O        181.6650  219.3500  197.7210 O.2    50  ILE50      -0.2718
      5  CB       183.9050  218.2350  199.5280 C.3    50  ILE50       0.0266
      6  CG1      185.3000  217.7100  199.9000 C.3    50  ILE50       0.0019
      7  CG2      183.0490  216.9830  199.2900 C.3    50  ILE50       0.0020
      8  CD1      185.9520  216.8040  198.8520 C.3    50  ILE50       0.0001
      9  N        182.7610  221.2750  198.0860 N.am   51  HIS51      -0.1976
     10  CA       181.5510  222.0850  197.9970 C.3    51  HIS51       0.1656
     11  C        180.9920  222.1130  196.5720 C.2    51  HIS51       0.2291
     12  O        181.5980  221.6090  195.6230 O.2    51  HIS51      -0.2864
     13  CB       181.8230  223.5120  198.4790 C.3    51  HIS51       0.0771
     14  CG       182.0800  223.6190  199.9530 C.ar   51  HIS51       0.0820
     15  ND1      182.5100  224.7840  200.5500 N.ar   51  HIS51      -0.2267
     16  CD2      181.9670  222.7070  200.9490 C.ar   51  HIS51       0.1154
     17  CE1      182.6520  224.5860  201.8490 C.ar   51  HIS51       0.1986
     18  NE2      182.3290  223.3340  202.1170 N.ar   51  HIS51      -0.2212
     19  N        170.6390  219.7780  195.4800 N.3    55  VAL55      -0.1245
     20  CA       169.7780  218.8790  196.2460 C.3    55  VAL55       0.1561
     21  C        168.8450  218.1350  195.2970 C.2    55  VAL55       0.2260
     22  O        167.9730  218.7370  194.6700 O.2    55  VAL55      -0.2867
     23  CB       168.9800  219.6440  197.3060 C.3    55  VAL55       0.0252
     24  CG1      168.0330  218.7050  198.0290 C.3    55  VAL55       0.0019
     25  CG2      169.9180  220.3260  198.2820 C.3    55  VAL55       0.0019
     26  N        181.6180  214.8840  193.0520 N.3    81  HIS81      -0.1241
     27  CA       181.1790  213.9650  194.0910 C.3    81  HIS81       0.1621
     28  C        179.6630  213.8400  194.1650 C.2    81  HIS81       0.2264
     29  O        178.9290  214.7820  193.8580 O.2    81  HIS81      -0.2867
     30  CB       181.6850  214.4360  195.4480 C.3    81  HIS81       0.0745
     31  CG       181.0940  215.7310  195.8910 C.ar   81  HIS81       0.0817
     32  ND1      179.9270  215.8050  196.6190 N.ar   81  HIS81      -0.2268
     33  CD2      181.4970  217.0060  195.6930 C.ar   81  HIS81       0.1154
     34  CE1      179.6420  217.0700  196.8590 C.ar   81  HIS81       0.1986
     35  NE2      180.5790  217.8200  196.3070 N.ar   81  HIS81      -0.2212
     36  N        176.8360  212.4790  197.3630 N.3    83  ASN83      -0.1225
     37  CA       176.8140  212.1790  198.7880 C.3    83  ASN83       0.1785
     38  C        175.5600  211.3610  199.0830 C.2    83  ASN83       0.2597
     39  O        174.5400  211.5030  198.4070 O.2    83  ASN83      -0.2718
     40  CB       176.9260  213.4480  199.6770 C.3    83  ASN83       0.1169
     41  CG       175.8630  214.5030  199.3890 C.2    83  ASN83       0.2627
     42  OD1      174.9240  214.2530  198.6500 O.2    83  ASN83      -0.2716
     43  ND2      176.0030  215.7070  199.9670 N.am   83  ASN83      -0.0877
     44  N        175.6690  210.4550  200.0350 N.am   84  PHE84      -0.1976
     45  CA       174.5220  209.7130  200.5350 C.3    84  PHE84       0.1639
     46  C        174.0100  210.4480  201.7730 C.2    84  PHE84       0.2290
     47  O        174.3380  211.6210  201.9690 O.2    84  PHE84      -0.2864
     48  CB       174.9240  208.2560  200.7520 C.3    84  PHE84       0.0560
     49  CG       175.2400  207.5310  199.4760 C.ar   84  PHE84      -0.0200
     50  CD1      174.6430  207.9080  198.2870 C.ar   84  PHE84      -0.0042
     51  CD2      176.1910  206.5290  199.4500 C.ar   84  PHE84      -0.0042
     52  CE1      174.9440  207.2580  197.1110 C.ar   84  PHE84      -0.0003
     53  CE2      176.5070  205.8910  198.2690 C.ar   84  PHE84      -0.0003
     54  CZ       175.8760  206.2480  197.1040 C.ar   84  PHE84      -0.0000
     55  N        174.7560  209.9580  204.8970 N.3    86  ASP86      -0.1239
     56  CA       175.9100  210.2530  205.7340 C.3    86  ASP86       0.1674
     57  C        177.2440  210.1180  205.0220 C.2    86  ASP86       0.2266
     58  O        178.1380  210.9320  205.2800 O.2    86  ASP86      -0.2867
     59  CB       175.9260  209.3350  206.9630 C.3    86  ASP86       0.1410
     60  CG       174.8040  209.6370  207.9270 C.2    86  ASP86       0.3668
     61  OD1      174.4040  210.8150  208.0220 O.co2  86  ASP86      -0.2456
     62  OD2      174.3150  208.6940  208.5820 O.co2  86  ASP86      -0.2456
     63  N        179.9730  209.8850  201.7390 N.3    88  THR88      -0.1218
     64  CA       180.2000  210.5190  200.4530 C.3    88  THR88       0.1862
     65  C        181.0950  209.6360  199.6020 C.2    88  THR88       0.2287
     66  O        181.6930  208.6790  200.0890 O.2    88  THR88      -0.2866
     67  CB       180.8550  211.8890  200.6110 C.3    88  THR88       0.1770
     68  OG1      182.1710  211.7270  201.1450 O.3    88  THR88      -0.2211
     69  CG2      180.0610  212.7180  201.5670 C.3    88  THR88       0.0375
     70  N        183.9780  208.7350  202.5210 N.3   116  MET116     -0.1230
     71  CA       184.2390  209.6000  203.6610 C.3   116  MET116      0.1702
     72  C        182.9920  209.7100  204.5190 C.2   116  MET116      0.2592
     73  O        181.9330  210.1150  204.0320 O.2   116  MET116     -0.2718
     74  CB       184.6910  210.9910  203.2020 C.3   116  MET116      0.0401
     75  CG       185.0380  211.9440  204.3330 C.3   116  MET116      0.0596
     76  SD       185.6620  213.5380  203.7590 S.3   116  MET116     -0.1393
     77  CE       184.1790  214.2730  203.0750 C.3   116  MET116      0.0692
     78  N        183.1210  209.3530  205.7900 N.am  117  LYS117     -0.1980
     79  CA       182.0560  209.5470  206.7620 C.3   117  LYS117      0.1596
     80  C        182.2130  210.9320  207.3920 C.2   117  LYS117      0.2287
     81  O        182.9070  211.7930  206.8450 O.2   117  LYS117     -0.2864
     82  CB       182.0530  208.4030  207.7780 C.3   117  LYS117      0.0298
     83  CG       181.5810  207.0840  207.1860 C.3   117  LYS117      0.0038
     84  CD       181.6000  205.9630  208.2110 C.3   117  LYS117      0.0206
     85  CE       180.4830  206.1230  209.2290 C.3   117  LYS117      0.1093
     86  NZ       179.1470  205.9100  208.6140 N.3   117  LYS117     -0.1314
     87  N        171.0360  212.0080  197.9000 N.3   164  THR164     -0.1203
     88  CA       170.4870  213.2640  198.3900 C.3   164  THR164      0.1994
     89  C        171.0410  214.5060  197.7050 C.2   164  THR164      0.2618
     90  O        170.3370  215.5160  197.6610 O.2   164  THR164     -0.2717
     91  CB       170.6840  213.3930  199.9080 C.3   164  THR164      0.1784
     92  OG1      170.0520  214.5930  200.3690 O.3   164  THR164     -0.2211
     93  CG2      172.1470  213.4230  200.2870 C.3   164  THR164      0.0376
     94  N        172.2570  214.4690  197.1610 N.am  165  SER165     -0.1951
     95  CA       172.8120  215.6070  196.4360 C.3   165  SER165      0.1924
     96  C        173.9590  215.1210  195.5650 C.2   165  SER165      0.2314
     97  O        174.4300  213.9910  195.6960 O.2   165  SER165     -0.2863
     98  CB       173.3050  216.7180  197.3720 C.3   165  SER165      0.2116
     99  OG       172.2450  217.3060  198.1040 O.3   165  SER165     -0.2180
@<TRIPOS>BOND
     1    26    27    1
     2    29    28    2
     3    27    28    1
     4    27    30    1
     5    22    21    2
     6    21    20    1
     7    30    31    1
     8    19    20    1
     9    96    97    2
    10    96    95    1
    11    12    11    2
    12    33    31   ar
    13    33    35   ar
    14    31    32   ar
    15    20    23    1
    16    35    34   ar
    17    95    94    1
    18    95    98    1
    19    11    10    1
    20    32    34   ar
    21    54    52   ar
    22    54    53   ar
    23    52    50   ar
    24    94    89   am
    25    23    24    1
    26    23    25    1
    27    36    37    1
    28    98    99    1
    29    90    89    2
    30    89    88    1
    31     4     3    2
    32    87    88    1
    33    10     9    1
    34    10    13    1
    35     3     9   am
    36     3     2    1
    37    53    51   ar
    38     2     1    1
    39     2     5    1
    40    50    49   ar
    41    88    91    1
    42    39    38    2
    43    13    14    1
    44    42    41    2
    45    37    38    1
    46    37    40    1
    47     8     6    1
    48    38    44   am
    49     7     5    1
    50    41    40    1
    51    41    43   am
    52    51    49   ar
    53    49    48    1
    54     5     6    1
    55    65    66    2
    56    65    64    1
    57    91    93    1
    58    91    92    1
    59    14    15   ar
    60    14    16   ar
    61    44    45    1
    62    64    67    1
    63    64    63    1
    64    45    48    1
    65    45    46    1
    66    15    17   ar
    67    67    68    1
    68    67    69    1
    69    16    18   ar
    70    46    47    2
    71    17    18   ar
    72    70    71    1
    73    77    76    1
    74    74    71    1
    75    74    75    1
    76    71    72    1
    77    76    75    1
    78    73    72    2
    79    72    78   am
    80    55    56    1
    81    57    58    2
    82    57    56    1
    83    56    59    1
    84    78    79    1
    85    79    80    1
    86    79    82    1
    87    81    80    2
    88    59    60    1
    89    83    82    1
    90    83    84    1
    91    60    61   ar
    92    60    62   ar
    93    84    85    1
    94    86    85    1
