@<TRIPOS>MOLECULE
tmp/6cv0B01.pdb
 93 91 0 0 0
SMALL
GASTEIGER

@<TRIPOS>ATOM
      1  N        180.0910  181.0250  217.5750 N.3   256  ASN256     -0.1225
      2  CA       178.8530  181.1480  218.3340 C.3   256  ASN256      0.1785
      3  C        179.1660  181.8310  219.6570 C.2   256  ASN256      0.2597
      4  O        180.0010  181.3500  220.4280 O.2   256  ASN256     -0.2718
      5  CB       178.2030  179.7900  218.5880 C.3   256  ASN256      0.1169
      6  CG       176.7940  179.9360  219.1230 C.2   256  ASN256      0.2627
      7  OD1      176.2460  181.0320  219.0450 O.2   256  ASN256     -0.2716
      8  ND2      176.2230  178.8580  219.7110 N.am  256  ASN256     -0.0877
      9  N        178.5090  182.9520  219.9230 N.am  257  GLU257     -0.1965
     10  CA       178.7490  183.6690  221.1610 C.3   257  GLU257      0.1733
     11  C        177.6110  183.4290  222.1470 C.2   257  GLU257      0.2617
     12  O        176.6170  182.7650  221.8450 O.2   257  GLU257     -0.2715
     13  CB       178.9000  185.1620  220.8880 C.3   257  GLU257      0.0429
     14  CG       177.5980  185.8490  220.5170 C.3   257  GLU257      0.1163
     15  CD       177.2690  185.7790  219.0370 C.2   257  GLU257      0.3649
     16  OE1      177.8570  184.9540  218.3050 O.co2 257  GLU257     -0.2457
     17  OE2      176.4110  186.5670  218.6030 O.co2 257  GLU257     -0.2457
     18  N        177.7650  183.9950  223.3450 N.am  258  THR258     -0.1937
     19  CA       176.7120  183.9850  224.3590 C.3   258  THR258      0.2028
     20  C        175.6350  184.9670  223.9100 C.2   258  THR258      0.2643
     21  O        175.6110  186.1390  224.2950 O.2   258  THR258     -0.2714
     22  CB       177.2650  184.3560  225.7290 C.3   258  THR258      0.1808
     23  OG1      177.8280  185.6730  225.6770 O.3   258  THR258     -0.2208
     24  CG2      178.3380  183.3700  226.1530 C.3   258  THR258      0.0379
     25  N        174.7310  184.4680  223.0730 N.am  259  GLY259     -0.1939
     26  CA       173.7630  185.3050  222.4030 C.3   259  GLY259      0.2014
     27  C        172.6920  185.8330  223.3310 C.2   259  GLY259      0.2638
     28  O        172.5930  185.4880  224.5080 O.2   259  GLY259     -0.2714
     29  N        171.8700  186.7040  222.7680 N.am  260  ALA260     -0.1977
     30  CA       170.8400  187.3900  223.5260 C.3   260  ALA260      0.1597
     31  C        169.5420  186.5910  223.4730 C.2   260  ALA260      0.2287
     32  O        169.5160  185.4200  223.0860 O.2   260  ALA260     -0.2864
     33  CB       170.6570  188.8120  223.0030 C.3   260  ALA260      0.0319
     34  N        178.0910  169.7810  215.0370 N.3   292  SER292     -0.1202
     35  CA       176.7890  169.3470  215.5480 C.3   292  SER292      0.2020
     36  C        175.6390  170.2430  215.1050 C.2   292  SER292      0.2618
     37  O        174.5980  170.2830  215.7640 O.2   292  SER292     -0.2717
     38  CB       176.7910  169.2160  217.0790 C.3   292  SER292      0.2103
     39  OG       176.8950  170.4760  217.7170 O.3   292  SER292     -0.2182
     40  N        175.7890  170.9620  213.9990 N.am  293  PHE293     -0.1975
     41  CA       174.7120  171.7710  213.4460 C.3   293  PHE293      0.1639
     42  C        174.2300  171.1050  212.1680 C.2   293  PHE293      0.2290
     43  O        174.9590  171.0650  211.1720 O.2   293  PHE293     -0.2864
     44  CB       175.1660  173.2040  213.1690 C.3   293  PHE293      0.0560
     45  CG       175.4070  174.0280  214.4050 C.ar  293  PHE293     -0.0200
     46  CD1      174.9560  173.6170  215.6440 C.ar  293  PHE293     -0.0042
     47  CD2      176.0760  175.2330  214.3150 C.ar  293  PHE293     -0.0042
     48  CE1      175.1850  174.3840  216.7650 C.ar  293  PHE293     -0.0003
     49  CE2      176.3020  176.0000  215.4320 C.ar  293  PHE293     -0.0003
     50  CZ       175.8540  175.5760  216.6570 C.ar  293  PHE293     -0.0000
     51  N        169.8430  184.9150  215.1310 N.3   331  TYR331     -0.1241
     52  CA       169.1650  183.8390  215.8510 C.3   331  TYR331      0.1605
     53  C        167.6640  184.1090  215.8640 C.2   331  TYR331      0.2264
     54  O        167.1070  184.5810  216.8540 O.2   331  TYR331     -0.2867
     55  CB       169.7040  183.7330  217.2510 C.3   331  TYR331      0.0534
     56  CG       171.1480  183.3320  217.3210 C.ar  331  TYR331     -0.0201
     57  CD1      171.5230  182.0040  217.2530 C.ar  331  TYR331     -0.0009
     58  CD2      172.1390  184.2860  217.4510 C.ar  331  TYR331     -0.0009
     59  CE1      172.8430  181.6390  217.3230 C.ar  331  TYR331      0.0417
     60  CE2      173.4600  183.9300  217.5170 C.ar  331  TYR331      0.0417
     61  CZ       173.8050  182.6060  217.4490 C.ar  331  TYR331      0.1957
     62  OH       175.1260  182.2500  217.5120 O.3   331  TYR331     -0.2866
     63  N        169.9840  173.3110  215.7340 N.3   355  TYR355     -0.1227
     64  CA       170.6440  172.6130  216.8270 C.3   355  TYR355      0.1736
     65  C        169.5710  172.2580  217.8470 C.2   355  TYR355      0.2596
     66  O        168.3720  172.3430  217.5610 O.2   355  TYR355     -0.2718
     67  CB       171.7730  173.4620  217.4240 C.3   355  TYR355      0.0548
     68  CG       171.3440  174.7930  218.0000 C.ar  355  TYR355     -0.0200
     69  CD1      171.2380  175.9170  217.1930 C.ar  355  TYR355     -0.0009
     70  CD2      171.0900  174.9370  219.3560 C.ar  355  TYR355     -0.0009
     71  CE1      170.8560  177.1360  217.7100 C.ar  355  TYR355      0.0417
     72  CE2      170.7080  176.1560  219.8840 C.ar  355  TYR355      0.0417
     73  CZ       170.5950  177.2510  219.0550 C.ar  355  TYR355      0.1957
     74  OH       170.2180  178.4670  219.5720 O.3   355  TYR355     -0.2866
     75  N        169.9950  171.8620  219.0410 N.am  356  GLY356     -0.1957
     76  CA       169.0330  171.6130  220.0940 C.3   356  GLY356      0.1869
     77  C        168.7040  172.8980  220.8210 C.2   356  GLY356      0.2309
     78  O        169.4430  173.3270  221.7120 O.2   356  GLY356     -0.2863
     79  N        165.8190  175.6260  222.7810 N.3   358  PRO358     -0.2116
     80  CA       164.5690  175.6950  223.5420 C.3   358  PRO358      0.1372
     81  C        163.4210  176.1720  222.6670 C.2   358  PRO358      0.2244
     82  O        163.5890  177.0370  221.8050 O.2   358  PRO358     -0.2868
     83  CB       164.8840  176.7060  224.6500 C.3   358  PRO358      0.0268
     84  CG       166.3630  176.6820  224.7700 C.3   358  PRO358      0.0207
     85  CD       166.8670  176.4660  223.3780 C.3   358  PRO358      0.0892
     86  N        170.0880  178.9160  214.3300 N.3   377  LEU377     -0.1245
     87  CA       170.7690  180.0800  213.7870 C.3   377  LEU377      0.1561
     88  C        170.6340  180.0960  212.2780 C.2   377  LEU377      0.2260
     89  O        170.8020  179.0740  211.6110 O.2   377  LEU377     -0.2867
     90  CB       172.2440  180.0990  214.1910 C.3   377  LEU377      0.0270
     91  CG       173.3050  179.0760  213.7910 C.3   377  LEU377      0.0019
     92  CD1      174.0200  179.4360  212.5010 C.3   377  LEU377      0.0001
     93  CD2      174.3020  178.9660  214.9130 C.3   377  LEU377      0.0001
@<TRIPOS>BOND
     1    43    42    2
     2    89    88    2
     3    42    41    1
     4    88    87    1
     5    92    91    1
     6    44    41    1
     7    44    45    1
     8    41    40    1
     9    87    90    1
    10    87    86    1
    11    91    90    1
    12    91    93    1
    13    40    36   am
    14    47    45   ar
    15    47    49   ar
    16    45    46   ar
    17    34    35    1
    18    36    35    1
    19    36    37    2
    20    51    52    1
    21    49    50   ar
    22    35    38    1
    23    46    48   ar
    24    63    64    1
    25    52    53    1
    26    52    55    1
    27    53    54    2
    28    50    48   ar
    29    64    67    1
    30    64    65    1
    31    38    39    1
    32    69    71   ar
    33    69    68   ar
    34    55    56    1
    35    57    56   ar
    36    57    59   ar
    37    56    58   ar
    38    59    61   ar
    39    67    68    1
    40    61    62    1
    41    61    60   ar
    42    58    60   ar
    43    66    65    2
    44     1     2    1
    45    71    73   ar
    46    65    75   am
    47    68    70   ar
    48    16    15   ar
    49     2     5    1
    50     2     3    1
    51     5     6    1
    52    17    15   ar
    53    15    14    1
    54    75    76    1
    55     7     6    2
    56    73    74    1
    57    73    72   ar
    58     6     8   am
    59    70    72   ar
    60     3     9   am
    61     3     4    2
    62     9    10    1
    63    76    77    1
    64    14    13    1
    65    77    78    2
    66    13    10    1
    67    10    11    1
    68    82    81    2
    69    12    11    2
    70    11    18   am
    71    26    25    1
    72    26    27    1
    73    81    80    1
    74    29    27   am
    75    29    30    1
    76    79    85    1
    77    79    80    1
    78    33    30    1
    79    25    20   am
    80    32    31    2
    81    27    28    2
    82    18    19    1
    83    85    84    1
    84    31    30    1
    85    80    83    1
    86    20    21    2
    87    20    19    1
    88    19    22    1
    89    83    84    1
    90    23    22    1
    91    22    24    1
