@<TRIPOS>MOLECULE
tmp/6cv6I01.pdb
 101 96 0 0 0
SMALL
GASTEIGER

@<TRIPOS>ATOM
      1  N          8.9080   27.3590  -24.8800 N.3    13  HIS13      -0.1241
      2  CA         8.1910   28.5360  -25.3480 C.3    13  HIS13       0.1621
      3  C          7.0510   28.2010  -26.2960 C.2    13  HIS13       0.2264
      4  O          6.1790   29.0480  -26.5100 O.2    13  HIS13      -0.2867
      5  CB         9.1640   29.5040  -26.0150 C.3    13  HIS13       0.0745
      6  CG        10.0580   30.2020  -25.0430 C.ar   13  HIS13       0.0817
      7  ND1       10.9360   31.1960  -25.4150 N.ar   13  HIS13      -0.2268
      8  CD2       10.2070   30.0470  -23.7060 C.ar   13  HIS13       0.1154
      9  CE1       11.5910   31.6230  -24.3490 C.ar   13  HIS13       0.1986
     10  NE2       11.1670   30.9410  -23.3000 N.ar   13  HIS13      -0.2212
     11  N          3.7910   28.9980  -24.6330 N.3    16  PHE16      -0.1241
     12  CA         3.3730   30.3590  -24.3140 C.3    16  PHE16       0.1605
     13  C          1.9020   30.5520  -24.6630 C.2    16  PHE16       0.2264
     14  O          1.4630   30.2000  -25.7610 O.2    16  PHE16      -0.2867
     15  CB         4.2120   31.3750  -25.0900 C.3    16  PHE16       0.0534
     16  CG         5.5070   31.7420  -24.4320 C.ar   16  PHE16      -0.0203
     17  CD1        5.7510   31.4270  -23.1080 C.ar   16  PHE16      -0.0042
     18  CD2        6.4820   32.4300  -25.1460 C.ar   16  PHE16      -0.0042
     19  CE1        6.9560   31.7740  -22.5090 C.ar   16  PHE16      -0.0003
     20  CE2        7.6810   32.7840  -24.5540 C.ar   16  PHE16      -0.0003
     21  CZ         7.9170   32.4570  -23.2350 C.ar   16  PHE16      -0.0000
     22  N         15.6860   34.3490  -27.0080 N.3    76  ASN76      -0.1240
     23  CA        15.0900   34.1730  -25.6920 C.3    76  ASN76       0.1653
     24  C         15.1650   32.6670  -25.4800 C.2    76  ASN76       0.2266
     25  O         14.2570   31.9270  -25.8670 O.2    76  ASN76      -0.2867
     26  CB        13.6650   34.6970  -25.6220 C.3    76  ASN76       0.1155
     27  CG        13.0630   34.5560  -24.2400 C.2    76  ASN76       0.2627
     28  OD1       13.6600   33.9520  -23.3450 O.2    76  ASN76      -0.2716
     29  ND2       11.8600   35.0860  -24.0640 N.am   76  ASN76      -0.0877
     30  N         14.8750   30.8900  -22.9560 N.3    78  GLY78      -0.1210
     31  CA        14.1160   30.3070  -21.8630 C.3    78  GLY78       0.1956
     32  C         15.0370   29.9370  -20.7180 C.2    78  GLY78       0.2611
     33  O         16.0220   30.6290  -20.4310 O.2    78  GLY78      -0.2717
     34  N         14.7280   28.8140  -20.0630 N.am   79  ALA79      -0.1979
     35  CA        15.5350   28.3690  -18.9330 C.3    79  ALA79       0.1597
     36  C         16.9750   28.0770  -19.3350 C.2    79  ALA79       0.2287
     37  O         17.8640   28.1170  -18.4780 O.2    79  ALA79      -0.2864
     38  CB        14.9110   27.1300  -18.2940 C.3    79  ALA79       0.0319
     39  N         20.2630   30.1380  -18.2470 N.3    82  HIS82      -0.1241
     40  CA        20.9260   30.0820  -16.9570 C.3    82  HIS82       0.1621
     41  C         21.8280   28.8670  -16.7730 C.2    82  HIS82       0.2264
     42  O         22.3740   28.6900  -15.6780 O.2    82  HIS82      -0.2867
     43  CB        19.8650   30.1520  -15.8550 C.3    82  HIS82       0.0745
     44  CG        18.7820   31.1450  -16.1480 C.ar   82  HIS82       0.0817
     45  ND1       19.0370   32.4870  -16.3330 N.ar   82  HIS82      -0.2268
     46  CD2       17.4480   30.9890  -16.3210 C.ar   82  HIS82       0.1154
     47  CE1       17.9070   33.1170  -16.5970 C.ar   82  HIS82       0.1986
     48  NE2       16.9260   32.2320  -16.5910 N.ar   82  HIS82      -0.2212
     49  N         14.0620   38.8880  -22.6690 N.3   102  HIS102     -0.1226
     50  CA        13.1550   38.1390  -21.8120 C.3   102  HIS102      0.1752
     51  C         11.8750   38.9390  -21.6270 C.2   102  HIS102      0.2596
     52  O         11.9100   40.1690  -21.5380 O.2   102  HIS102     -0.2718
     53  CB        13.7750   37.8570  -20.4360 C.3   102  HIS102      0.0759
     54  CG        15.1000   37.1650  -20.4940 C.ar  102  HIS102      0.0818
     55  ND1       15.2220   35.7970  -20.5950 N.ar  102  HIS102     -0.2268
     56  CD2       16.3620   37.6530  -20.4640 C.ar  102  HIS102      0.1154
     57  CE1       16.5010   35.4710  -20.6240 C.ar  102  HIS102      0.1986
     58  NE2       17.2140   36.5790  -20.5470 N.ar  102  HIS102     -0.2212
     59  N         10.7450   38.2380  -21.5490 N.am  103  MET103     -0.1965
     60  CA         9.4890   38.9290  -21.2820 C.3   103  MET103      0.1736
     61  C          9.4370   39.4510  -19.8540 C.2   103  MET103      0.2617
     62  O          8.9560   40.5640  -19.6110 O.2   103  MET103     -0.2715
     63  CB         8.3100   38.0050  -21.5620 C.3   103  MET103      0.0427
     64  CG         8.0580   37.7800  -23.0330 C.3   103  MET103      0.0599
     65  SD         6.6130   36.7530  -23.3140 S.3   103  MET103     -0.1393
     66  CE         5.3160   37.9400  -22.9810 C.3   103  MET103      0.0692
     67  N          9.9240   38.6670  -18.9000 N.am  104  SER104     -0.1950
     68  CA         9.8490   39.0060  -17.4870 C.3   104  SER104      0.1924
     69  C         11.1540   39.6390  -17.0150 C.2   104  SER104      0.2314
     70  O         12.1800   39.6050  -17.6950 O.2   104  SER104     -0.2863
     71  CB         9.5300   37.7640  -16.6500 C.3   104  SER104      0.2116
     72  OG        10.5870   36.8230  -16.7170 O.3   104  SER104     -0.2180
     73  N         13.8690   39.0020  -15.1500 N.3   106  VAL106     -0.1245
     74  CA        14.5370   37.8270  -14.5950 C.3   106  VAL106      0.1561
     75  C         15.4100   38.1850  -13.3960 C.2   106  VAL106      0.2260
     76  O         15.6220   37.3530  -12.5050 O.2   106  VAL106     -0.2867
     77  CB        15.3470   37.1090  -15.6930 C.3   106  VAL106      0.0252
     78  CG1       14.4060   36.5140  -16.7230 C.3   106  VAL106      0.0019
     79  CG2       16.3240   38.0630  -16.3500 C.3   106  VAL106      0.0019
     80  N         13.3530   37.7110  -10.1370 N.3   109  ARG109     -0.1245
     81  CA        12.6920   36.4290   -9.9410 C.3   109  ARG109      0.1563
     82  C         13.6000   35.5300   -9.0950 C.2   109  ARG109      0.2260
     83  O         14.3830   36.0390   -8.2730 O.2   109  ARG109     -0.2867
     84  CB        12.3380   35.8390  -11.3020 C.3   109  ARG109      0.0307
     85  CG        11.3070   36.6370  -12.0810 C.3   109  ARG109      0.0489
     86  CD        11.0220   35.9930  -13.4380 C.3   109  ARG109      0.2205
     87  NE        10.3530   34.7000  -13.2960 N.pl3 109  ARG109     -0.0865
     88  CZ        10.1240   33.8560  -14.2980 C.cat 109  ARG109      0.5346
     89  NH1       10.5150   34.1540  -15.5280 N.pl3 109  ARG109      0.1354
     90  NH2        9.5040   32.7070  -14.0640 N.pl3 109  ARG109      0.1354
     91  N         17.6510   32.5960  -12.0560 N.3   113  ARG113     -0.1245
     92  CA        17.3430   33.3600  -13.2550 C.3   113  ARG113      0.1563
     93  C         18.0560   34.7050  -13.2970 C.2   113  ARG113      0.2260
     94  O         17.9070   35.4280  -14.2870 O.2   113  ARG113     -0.2867
     95  CB        15.8340   33.5900  -13.3800 C.3   113  ARG113      0.0307
     96  CG        14.9890   32.3500  -13.2570 C.3   113  ARG113      0.0489
     97  CD        13.5250   32.6710  -13.5030 C.3   113  ARG113      0.2205
     98  NE        12.6600   31.5540  -13.1350 N.pl3 113  ARG113     -0.0865
     99  CZ        12.3080   30.5660  -13.9520 C.cat 113  ARG113      0.5346
    100  NH1       12.8480   30.4710  -15.1580 N.pl3 113  ARG113      0.1354
    101  NH2       11.5080   29.6040  -13.5110 N.pl3 113  ARG113      0.1354
@<TRIPOS>BOND
     1    22    23    1
     2     4     3    2
     3     3     2    1
     4     5     2    1
     5     5     6    1
     6    25    24    2
     7    14    13    2
     8    23    26    1
     9    23    24    1
    10    26    27    1
    11     7     6   ar
    12     7     9   ar
    13     2     1    1
    14    18    20   ar
    15    18    16   ar
    16    15    16    1
    17    15    12    1
    18     6     8   ar
    19    13    12    1
    20    11    12    1
    21    20    21   ar
    22    16    17   ar
    23     9    10   ar
    24    27    29   am
    25    27    28    2
    26     8    10   ar
    27    65    64    1
    28    65    66    1
    29    21    19   ar
    30    17    19   ar
    31    64    63    1
    32    30    31    1
    33    49    50    1
    34    31    32    1
    35    50    51    1
    36    50    53    1
    37    51    59   am
    38    51    52    2
    39    63    60    1
    40    59    60    1
    41    60    61    1
    42    32    33    2
    43    32    34   am
    44    57    55   ar
    45    57    58   ar
    46    55    54   ar
    47    58    56   ar
    48    54    56   ar
    49    54    53    1
    50    34    35    1
    51    61    62    2
    52    61    67   am
    53    36    35    1
    54    36    37    2
    55    35    38    1
    56    67    68    1
    57    39    40    1
    58    70    69    2
    59    68    69    1
    60    68    71    1
    61    40    41    1
    62    40    43    1
    63    41    42    2
    64    78    77    1
    65    72    71    1
    66    47    48   ar
    67    47    45   ar
    68    48    46   ar
    69    79    77    1
    70    45    44   ar
    71    46    44   ar
    72    44    43    1
    73    77    74    1
    74    89    88    1
    75   100    99    1
    76    73    74    1
    77    74    75    1
    78    88    90    1
    79    88    87    2
    80    94    93    2
    81    99   101    1
    82    99    98    2
    83    97    96    1
    84    97    98    1
    85    86    87    1
    86    86    85    1
    87    75    76    2
    88    95    96    1
    89    95    92    1
    90    93    92    1
    91    92    91    1
    92    85    84    1
    93    84    81    1
    94    80    81    1
    95    81    82    1
    96    82    83    2
