@<TRIPOS>MOLECULE
tmp/6cveB01.pdb
 85 79 0 0 0
SMALL
GASTEIGER

@<TRIPOS>ATOM
      1  N         -3.0040  -23.6390   37.3850 N.3    12  THR12      -0.1203
      2  CA        -3.2790  -23.9860   38.7650 C.3    12  THR12       0.1994
      3  C         -2.6800  -25.3500   39.0890 C.2    12  THR12       0.2618
      4  O         -2.6310  -26.2550   38.2460 O.2    12  THR12      -0.2717
      5  CB        -4.7820  -23.9840   39.0480 C.3    12  THR12       0.1784
      6  OG1       -5.3730  -25.1570   38.4870 O.3    12  THR12      -0.2211
      7  CG2       -5.4250  -22.7660   38.4240 C.3    12  THR12       0.0376
      8  N         -2.2100  -25.4830   40.3270 N.am   13  GLY13      -0.1942
      9  CA        -1.6050  -26.7240   40.7600 C.3    13  GLY13       0.2014
     10  C         -0.1730  -26.9210   40.3320 C.2    13  GLY13       0.2639
     11  O          0.2970  -28.0640   40.2960 O.2    13  GLY13      -0.2714
     12  N          0.5480  -25.8450   40.0020 N.am   14  VAL14      -0.1963
     13  CA         1.9440  -25.9820   39.5930 C.3    14  VAL14       0.1727
     14  C          2.9010  -25.8580   40.7660 C.2    14  VAL14       0.2617
     15  O          4.1160  -26.0050   40.5770 O.2    14  VAL14      -0.2715
     16  CB         2.3010  -24.9630   38.4880 C.3    14  VAL14       0.0290
     17  CG1        1.3600  -25.1300   37.3190 C.3    14  VAL14       0.0023
     18  CG2        2.2210  -23.5230   39.0190 C.3    14  VAL14       0.0023
     19  N          2.3930  -25.6250   41.9760 N.am   15  GLY15      -0.1940
     20  CA         3.2470  -25.4830   43.1380 C.3    15  GLY15       0.2014
     21  C          3.8350  -24.1060   43.3580 C.2    15  GLY15       0.2639
     22  O          5.0300  -23.9990   43.6720 O.2    15  GLY15      -0.2714
     23  N          3.0330  -23.0380   43.1970 N.am   16  LYS16      -0.1963
     24  CA         3.5490  -21.6900   43.4710 C.3    16  LYS16       0.1728
     25  C          3.9690  -21.5440   44.9240 C.2    16  LYS16       0.2617
     26  O          4.9940  -20.9210   45.2180 O.2    16  LYS16      -0.2715
     27  CB         2.5170  -20.6100   43.1460 C.3    16  LYS16       0.0311
     28  CG         2.2790  -20.3460   41.6810 C.3    16  LYS16       0.0038
     29  CD         1.4440  -19.0730   41.4970 C.3    16  LYS16       0.0206
     30  CE         0.1070  -19.1500   42.2550 C.3    16  LYS16       0.1093
     31  NZ        -0.6080  -20.3660   41.8310 N.3    16  LYS16      -0.1314
     32  N          3.1740  -22.0880   45.8490 N.am   17  THR17      -0.1937
     33  CA         3.4430  -21.8580   47.2610 C.3    17  THR17       0.2028
     34  C          4.7550  -22.5010   47.6780 C.2    17  THR17       0.2642
     35  O          5.5430  -21.8860   48.4040 O.2    17  THR17      -0.2714
     36  CB         2.2860  -22.3710   48.1290 C.3    17  THR17       0.1808
     37  OG1        1.0560  -21.7620   47.7130 O.3    17  THR17      -0.2208
     38  CG2        2.5180  -22.0500   49.5860 C.3    17  THR17       0.0379
     39  N          5.0190  -23.7290   47.2210 N.am   18  VAL18      -0.1977
     40  CA         6.2840  -24.3690   47.5710 C.3    18  VAL18       0.1596
     41  C          7.4540  -23.6030   46.9600 C.2    18  VAL18       0.2287
     42  O          8.5400  -23.5550   47.5470 O.2    18  VAL18      -0.2864
     43  CB         6.2970  -25.8680   47.1640 C.3    18  VAL18       0.0276
     44  CG1        6.3170  -26.0730   45.6210 C.3    18  VAL18       0.0022
     45  CG2        7.4970  -26.5670   47.7780 C.3    18  VAL18       0.0022
     46  N          0.2350  -12.9020   50.0560 N.3    38  LYS38      -0.1245
     47  CA        -0.7600  -13.6040   49.2560 C.3    38  LYS38       0.1561
     48  C         -2.0240  -12.7630   49.3570 C.2    38  LYS38       0.2260
     49  O         -2.8370  -12.9560   50.2730 O.2    38  LYS38      -0.2867
     50  CB        -0.9660  -15.0380   49.7380 C.3    38  LYS38       0.0271
     51  CG        -2.0540  -15.7810   49.0120 C.3    38  LYS38       0.0035
     52  CD        -1.5320  -16.9330   48.1790 C.3    38  LYS38       0.0206
     53  CE        -2.7050  -17.6890   47.5480 C.3    38  LYS38       0.1093
     54  NZ        -2.1890  -18.7720   46.6910 N.3    38  LYS38      -0.1314
     55  N         -1.9910  -20.8650   52.1380 N.3    50  ASP50      -0.1239
     56  CA        -0.6540  -20.9550   51.5720 C.3    50  ASP50       0.1674
     57  C          0.3650  -20.1320   52.3440 C.2    50  ASP50       0.2266
     58  O          1.5690  -20.4110   52.2520 O.2    50  ASP50      -0.2867
     59  CB        -0.6850  -20.5250   50.1010 C.3    50  ASP50       0.1410
     60  CG        -1.6200  -21.3930   49.2450 C.2    50  ASP50       0.3668
     61  OD1       -1.9050  -22.5560   49.6240 O.co2  50  ASP50      -0.2456
     62  OD2       -2.0620  -20.9110   48.1810 O.co2  50  ASP50      -0.2456
     63  N          2.5520  -13.7820   45.8980 N.3   109  GLU109     -0.1245
     64  CA         2.0060  -15.0050   45.3350 C.3   109  GLU109      0.1567
     65  C          0.5790  -14.7250   44.8840 C.2   109  GLU109      0.2260
     66  O         -0.2540  -14.2880   45.6890 O.2   109  GLU109     -0.2867
     67  CB         2.0340  -16.1490   46.3520 C.3   109  GLU109      0.0388
     68  CG         1.5370  -17.4420   45.7410 C.3   109  GLU109      0.1160
     69  CD         1.3800  -18.5580   46.7460 C.2   109  GLU109      0.3649
     70  OE1        0.5730  -19.4920   46.4860 O.co2 109  GLU109     -0.2457
     71  OE2        2.0560  -18.4960   47.7990 O.co2 109  GLU109     -0.2457
     72  N         -3.0800  -16.0000   42.6880 N.3   111  ALA111     -0.1231
     73  CA        -3.9630  -17.1550   42.6570 C.3   111  ALA111      0.1694
     74  C         -4.0480  -17.6540   41.2190 C.2   111  ALA111      0.2592
     75  O         -4.2350  -16.8570   40.2950 O.2   111  ALA111     -0.2718
     76  CB        -5.3570  -16.8130   43.1970 C.3   111  ALA111      0.0304
     77  N         -3.8920  -18.9640   41.0300 N.am  112  GLY112     -0.1957
     78  CA        -3.8850  -19.5100   39.6810 C.3   112  GLY112      0.1869
     79  C         -2.8670  -18.8250   38.7820 C.2   112  GLY112      0.2309
     80  O         -1.7780  -18.4310   39.2120 O.2   112  GLY112     -0.2863
     81  N          7.0870  -30.3220   49.1620 N.3   202  ALA202     -0.1245
     82  CA         6.0390  -29.6810   49.9500 C.3   202  ALA202      0.1562
     83  C          5.8440  -30.3510   51.3040 C.2   202  ALA202      0.2260
     84  O          5.5910  -29.6710   52.3050 O.2   202  ALA202     -0.2867
     85  CB         4.7240  -29.6870   49.1680 C.3   202  ALA202      0.0290
@<TRIPOS>BOND
     1    17    16    1
     2     1     2    1
     3     4     3    2
     4     7     5    1
     5     6     5    1
     6    16    18    1
     7    16    13    1
     8     2     5    1
     9     2     3    1
    10    79    80    2
    11    79    78    1
    12     3     8   am
    13    13    12    1
    14    13    14    1
    15    78    77    1
    16    12    10   am
    17    75    74    2
    18    11    10    2
    19     8     9    1
    20    10     9    1
    21    15    14    2
    22    14    19   am
    23    77    74   am
    24    74    73    1
    25    29    28    1
    26    29    30    1
    27    28    27    1
    28    31    30    1
    29    19    20    1
    30    73    72    1
    31    73    76    1
    32    20    21    1
    33    27    24    1
    34    23    21   am
    35    23    24    1
    36    21    22    2
    37    24    25    1
    38    65    64    1
    39    65    66    2
    40    25    26    2
    41    25    32   am
    42    64    63    1
    43    64    67    1
    44    44    43    1
    45    68    67    1
    46    68    69    1
    47    32    33    1
    48    70    69   ar
    49    54    53    1
    50    69    71   ar
    51    41    42    2
    52    41    40    1
    53    43    40    1
    54    43    45    1
    55    39    40    1
    56    39    34   am
    57    33    34    1
    58    33    36    1
    59    53    52    1
    60    34    35    2
    61    37    36    1
    62    36    38    1
    63    52    51    1
    64    62    60   ar
    65    51    50    1
    66    81    82    1
    67    85    82    1
    68    60    61   ar
    69    60    59    1
    70    47    48    1
    71    47    50    1
    72    47    46    1
    73    48    49    2
    74    82    83    1
    75    59    56    1
    76    83    84    2
    77    56    55    1
    78    56    57    1
    79    58    57    2
