@<TRIPOS>MOLECULE
tmp/6cvfD00.pdb
 116 110 0 0 0
SMALL
GASTEIGER

@<TRIPOS>ATOM
      1  N        -21.4370   11.7270    1.4460 N.3    13  THR13      -0.1203
      2  CA       -21.3860   12.7860    0.4540 C.3    13  THR13       0.1994
      3  C        -20.2450   13.7380    0.7820 C.2    13  THR13       0.2618
      4  O        -19.8130   13.8510    1.9310 O.2    13  THR13      -0.2717
      5  CB       -22.7120   13.5540    0.3900 C.3    13  THR13       0.1784
      6  OG1      -23.2740   13.6650    1.7090 O.3    13  THR13      -0.2211
      7  CG2      -23.7130   12.8600   -0.5510 C.3    13  THR13       0.0376
      8  N        -19.7540   14.4170   -0.2540 N.am   14  GLY14      -0.1942
      9  CA       -18.7330   15.4340   -0.0910 C.3    14  GLY14       0.2014
     10  C        -17.4030   14.9360    0.4230 C.2    14  GLY14       0.2639
     11  O        -16.6410   15.7180    0.9970 O.2    14  GLY14      -0.2714
     12  N        -17.0900   13.6500    0.2320 N.am   15  VAL15      -0.1963
     13  CA       -15.8470   13.1110    0.7740 C.3    15  VAL15       0.1727
     14  C        -14.6980   13.1640   -0.2280 C.2    15  VAL15       0.2617
     15  O        -13.5400   12.9340    0.1570 O.2    15  VAL15      -0.2715
     16  CB       -16.0780   11.6820    1.3240 C.3    15  VAL15       0.0290
     17  CG1      -17.1150   11.7070    2.4370 C.3    15  VAL15       0.0023
     18  CG2      -16.5040   10.7080    0.2390 C.3    15  VAL15       0.0023
     19  N        -14.9650   13.4910   -1.4860 N.am   16  GLY16      -0.1940
     20  CA       -13.9270   13.6310   -2.4810 C.3    16  GLY16       0.2014
     21  C        -13.9040   12.6030   -3.6070 C.2    16  GLY16       0.2639
     22  O        -12.8890   12.5170   -4.3090 O.2    16  GLY16      -0.2714
     23  N        -14.9820   11.8350   -3.8010 N.am   17  LYS17      -0.1963
     24  CA       -15.0290   10.8660   -4.8950 C.3    17  LYS17       0.1728
     25  C        -14.6450   11.5050   -6.2280 C.2    17  LYS17       0.2617
     26  O        -13.8310   10.9610   -6.9810 O.2    17  LYS17      -0.2715
     27  CB       -16.4250   10.2480   -5.0060 C.3    17  LYS17       0.0311
     28  CG       -16.8390    9.3290   -3.8730 C.3    17  LYS17       0.0038
     29  CD       -18.1460    8.6280   -4.2190 C.3    17  LYS17       0.0206
     30  CE       -19.2480    9.6250   -4.5900 C.3    17  LYS17       0.1093
     31  NZ       -19.5350   10.5540   -3.4430 N.3    17  LYS17      -0.1314
     32  N        -15.2270   12.6670   -6.5320 N.am   18  THR18      -0.1937
     33  CA       -15.0100   13.2940   -7.8320 C.3    18  THR18       0.2028
     34  C        -13.5400   13.6550   -8.0430 C.2    18  THR18       0.2642
     35  O        -12.9590   13.3300   -9.0860 O.2    18  THR18      -0.2714
     36  CB       -15.9150   14.5160   -7.9680 C.3    18  THR18       0.1808
     37  OG1      -17.2850   14.0890   -7.9160 O.3    18  THR18      -0.2208
     38  CG2      -15.6620   15.2350   -9.2860 C.3    18  THR18       0.0379
     39  N        -12.9110   14.3010   -7.0520 N.am   19  VAL19      -0.1977
     40  CA       -11.5080   14.6830   -7.2080 C.3    19  VAL19       0.1596
     41  C        -10.6180   13.4480   -7.1990 C.2    19  VAL19       0.2287
     42  O         -9.6030   13.4010   -7.9010 O.2    19  VAL19      -0.2864
     43  CB       -11.0800   15.7050   -6.1340 C.3    19  VAL19       0.0276
     44  CG1      -12.0660   16.8650   -6.0640 C.3    19  VAL19       0.0022
     45  CG2      -10.9430   15.0500   -4.7940 C.3    19  VAL19       0.0022
     46  N        -20.2710   16.4050  -12.0480 N.3    51  ASP51      -0.1239
     47  CA       -19.0560   15.7050  -11.6570 C.3    51  ASP51       0.1674
     48  C        -18.2300   15.3180  -12.8710 C.2    51  ASP51       0.2266
     49  O        -16.9950   15.3430  -12.8080 O.2    51  ASP51      -0.2867
     50  CB       -19.4010   14.4740  -10.8100 C.3    51  ASP51       0.1410
     51  CG       -19.7920   14.8400   -9.3770 C.2    51  ASP51       0.3668
     52  OD1      -19.9240   16.0420   -9.0790 O.co2  51  ASP51      -0.2456
     53  OD2      -19.9560   13.9280   -8.5400 O.co2  51  ASP51      -0.2456
     54  N        -16.1760   18.2780  -14.0080 N.3    54  GLU54      -0.1245
     55  CA       -15.0470   18.4940  -13.1130 C.3    54  GLU54       0.1567
     56  C        -13.8980   17.5470  -13.4420 C.2    54  GLU54       0.2260
     57  O        -12.7320   17.9610  -13.4900 O.2    54  GLU54      -0.2867
     58  CB       -15.5180   18.3200  -11.6680 C.3    54  GLU54       0.0388
     59  CG       -14.5180   18.7130  -10.6150 C.3    54  GLU54       0.1160
     60  CD       -14.3280   20.2040  -10.5480 C.2    54  GLU54       0.3649
     61  OE1      -15.2250   20.9360  -11.0260 O.co2  54  GLU54      -0.2457
     62  OE2      -13.2730   20.6540  -10.0470 O.co2  54  GLU54      -0.2457
     63  N        -18.3750    6.4790  -10.9170 N.3   110  GLU110     -0.1245
     64  CA       -18.7550    7.2220   -9.7250 C.3   110  GLU110      0.1567
     65  C        -20.2570    7.0880   -9.5020 C.2   110  GLU110      0.2260
     66  O        -21.0480    7.3530  -10.4080 O.2   110  GLU110     -0.2867
     67  CB       -18.3680    8.6960   -9.8520 C.3   110  GLU110      0.0388
     68  CG       -18.7000    9.5060   -8.5920 C.3   110  GLU110      0.1160
     69  CD       -18.2230   10.9530   -8.6540 C.2   110  GLU110      0.3649
     70  OE1      -18.5840   11.7360   -7.7540 O.co2 110  GLU110     -0.2457
     71  OE2      -17.4890   11.3170   -9.5930 O.co2 110  GLU110     -0.2457
     72  N        -10.0160   11.2590    0.6340 N.3   171  GLY171     -0.1210
     73  CA       -10.3280   12.2180   -0.4190 C.3   171  GLY171      0.1956
     74  C         -9.7200   13.5930   -0.1900 C.2   171  GLY171      0.2612
     75  O         -9.2650   14.2410   -1.1340 O.2   171  GLY171     -0.2717
     76  N         -9.7150   14.0570    1.0580 N.am  172  SER172     -0.1952
     77  CA        -9.1480   15.3530    1.4240 C.3   172  SER172      0.1924
     78  C         -8.2920   15.1750    2.6720 C.2   172  SER172      0.2314
     79  O         -8.8170   14.8960    3.7590 O.2   172  SER172     -0.2863
     80  CB       -10.2450   16.3880    1.6700 C.3   172  SER172      0.2116
     81  OG        -9.6860   17.6610    1.9340 O.3   172  SER172     -0.2180
     82  N         -5.4300   12.6300   -0.6240 N.3   198  LEU198     -0.1231
     83  CA        -5.2900   13.7560   -1.5550 C.3   198  LEU198      0.1678
     84  C         -5.2190   15.0610   -0.7780 C.2   198  LEU198      0.2434
     85  O         -5.9820   15.2400    0.1790 O.2   198  LEU198     -0.2733
     86  CB        -6.4620   13.8070   -2.5170 C.3   198  LEU198      0.0284
     87  CG        -6.2610   13.3380   -3.9530 C.3   198  LEU198      0.0019
     88  CD1       -5.3000   12.1530   -3.9670 C.3   198  LEU198      0.0001
     89  CD2       -7.5960   12.9480   -4.5720 C.3   198  LEU198      0.0001
     90  N         -4.3640   16.0100   -1.1500 N.am  199  PRO199     -0.2729
     91  CA        -4.3000   17.2570   -0.3780 C.3   199  PRO199      0.1401
     92  C         -5.5950   18.0430   -0.4960 C.2   199  PRO199      0.2269
     93  O         -6.2160   18.0920   -1.5610 O.2   199  PRO199     -0.2865
     94  CB        -3.1340   18.0160   -1.0170 C.3   199  PRO199      0.0296
     95  CG        -2.3530   17.0120   -1.7440 C.3   199  PRO199      0.0237
     96  CD        -3.3700   16.0010   -2.2310 C.3   199  PRO199      0.0939
     97  N         -8.1230   21.0840   -0.9790 N.3   201  GLY201     -0.1210
     98  CA        -8.0330   22.1530   -1.9410 C.3   201  GLY201      0.1956
     99  C         -7.3990   21.7950   -3.2650 C.2   201  GLY201      0.2612
    100  O         -7.0430   22.7070   -4.0210 O.2   201  GLY201     -0.2717
    101  N         -7.2550   20.5000   -3.5840 N.am  202  ALA202     -0.1965
    102  CA        -6.5940   20.1020   -4.8250 C.3   202  ALA202      0.1728
    103  C         -7.3970   20.4560   -6.0690 C.2   202  ALA202      0.2616
    104  O         -6.8170   20.5230   -7.1600 O.2   202  ALA202     -0.2715
    105  CB        -6.3250   18.5880   -4.8160 C.3   202  ALA202      0.0334
    106  N         -8.7030   20.6900   -5.9320 N.am  203  ALA203     -0.1963
    107  CA        -9.5080   21.0200   -7.1020 C.3   203  ALA203      0.1728
    108  C         -9.2870   22.4510   -7.5660 C.2   203  ALA203      0.2616
    109  O         -9.3760   22.7350   -8.7680 O.2   203  ALA203     -0.2715
    110  CB       -10.9860   20.8110   -6.8070 C.3   203  ALA203      0.0334
    111  N         -9.0190   23.3660   -6.6330 N.am  204  SER204     -0.1950
    112  CA        -8.7130   24.7400   -7.0020 C.3   204  SER204      0.1924
    113  C         -7.3430   24.8690   -7.6580 C.2   204  SER204      0.2314
    114  O         -7.0480   25.9270   -8.2240 O.2   204  SER204     -0.2863
    115  CB        -8.8010   25.6530   -5.7750 C.3   204  SER204      0.2116
    116  OG        -7.8030   25.3240   -4.8230 O.3   204  SER204     -0.2180
@<TRIPOS>BOND
     1    54    55    1
     2    57    56    2
     3    56    55    1
     4    55    58    1
     5    48    49    2
     6    48    47    1
     7    46    47    1
     8    58    59    1
     9    47    50    1
    10    61    60   ar
    11    63    64    1
    12    50    51    1
    13    59    60    1
    14    60    62   ar
    15    66    65    2
    16    67    64    1
    17    67    68    1
    18    64    65    1
    19    71    69   ar
    20    51    52   ar
    21    51    53   ar
    22    38    36    1
    23    35    34    2
    24   109   108    2
    25    69    68    1
    26    69    70   ar
    27   114   113    2
    28    34    33    1
    29    34    39   am
    30    36    37    1
    31    36    33    1
    32    42    41    2
    33    33    32    1
    34   113   112    1
    35   108   107    1
    36   108   111   am
    37    40    41    1
    38    40    39    1
    39    40    43    1
    40   104   103    2
    41   107   110    1
    42   107   106    1
    43   112   111    1
    44   112   115    1
    45    26    25    2
    46    32    25   am
    47    25    24    1
    48    43    44    1
    49    43    45    1
    50   103   106   am
    51   103   102    1
    52   115   116    1
    53    27    24    1
    54    27    28    1
    55    24    23    1
    56   102   105    1
    57   102   101    1
    58    30    29    1
    59    30    31    1
    60    89    87    1
    61    22    21    2
    62    29    28    1
    63   100    99    2
    64    88    87    1
    65    87    86    1
    66    23    21   am
    67    21    20    1
    68   101    99   am
    69    99    98    1
    70    86    83    1
    71    20    19    1
    72    96    95    1
    73    96    90    1
    74    98    97    1
    75    95    94    1
    76    93    92    2
    77    83    84    1
    78    83    82    1
    79    19    14   am
    80    90    84   am
    81    90    91    1
    82    75    74    2
    83    94    91    1
    84    84    85    2
    85     7     5    1
    86    92    91    1
    87    73    74    1
    88    73    72    1
    89     8     9    1
    90     8     3   am
    91    14    15    2
    92    14    13    1
    93    74    76   am
    94     9    10    1
    95    12    10   am
    96    12    13    1
    97    18    16    1
    98     5     2    1
    99     5     6    1
   100    10    11    2
   101     2     3    1
   102     2     1    1
   103    13    16    1
   104     3     4    2
   105    76    77    1
   106    16    17    1
   107    77    80    1
   108    77    78    1
   109    80    81    1
   110    78    79    2
