@<TRIPOS>MOLECULE
tmp/6cvhA00.pdb
 237 228 0 0 0
SMALL
GASTEIGER

@<TRIPOS>ATOM
      1  N         21.2240  -21.0830   -9.5800 N.3    22  GLN22      -0.1231
      2  CA        20.0260  -20.7840  -10.3540 C.3    22  GLN22       0.1698
      3  C         19.2820  -19.5900   -9.7690 C.2    22  GLN22       0.2592
      4  O         19.4460  -18.4590  -10.2380 O.2    22  GLN22      -0.2718
      5  CB        19.1070  -22.0080  -10.4140 C.3    22  GLN22       0.0381
      6  CG        17.9170  -21.8470  -11.3480 C.3    22  GLN22       0.0905
      7  CD        17.1840  -23.1530  -11.5900 C.2    22  GLN22       0.2608
      8  OE1       17.3950  -24.1380  -10.8820 O.2    22  GLN22      -0.2717
      9  NE2       16.3220  -23.1700  -12.5990 N.am   22  GLN22      -0.0878
     10  N         18.4690  -19.8300   -8.7460 N.am   23  LEU23      -0.1980
     11  CA        17.6620  -18.7890   -8.1240 C.3    23  LEU23       0.1596
     12  C         18.3090  -18.3220   -6.8270 C.2    23  LEU23       0.2287
     13  O         18.7970  -19.1330   -6.0350 O.2    23  LEU23      -0.2864
     14  CB        16.2450  -19.2940   -7.8480 C.3    23  LEU23       0.0297
     15  CG        15.4690  -19.8180   -9.0580 C.3    23  LEU23       0.0022
     16  CD1       14.0760  -20.2700   -8.6490 C.3    23  LEU23       0.0001
     17  CD2       15.3960  -18.7610  -10.1490 C.3    23  LEU23       0.0001
     18  N          4.1320  -31.9170  -18.6420 N.3    53  TRP53      -0.1241
     19  CA         5.3650  -32.6660  -18.8610 C.3    53  TRP53       0.1605
     20  C          6.4050  -31.8100  -19.5730 C.2    53  TRP53       0.2264
     21  O          7.5730  -31.7660  -19.1680 O.2    53  TRP53      -0.2867
     22  CB         5.0710  -33.9390  -19.6550 C.3    53  TRP53       0.0550
     23  CG         6.2870  -34.5370  -20.2940 C.ar   53  TRP53       0.0003
     24  CD1        6.4220  -34.9230  -21.5950 C.ar   53  TRP53       0.0946
     25  CD2        7.5460  -34.8010  -19.6640 C.ar   53  TRP53       0.0152
     26  NE1        7.6840  -35.4200  -21.8130 N.ar   53  TRP53      -0.2442
     27  CE2        8.3950  -35.3540  -20.6430 C.ar   53  TRP53       0.0810
     28  CE3        8.0380  -34.6250  -18.3670 C.ar   53  TRP53       0.0012
     29  CZ2        9.7060  -35.7340  -20.3670 C.ar   53  TRP53       0.0191
     30  CZ3        9.3400  -35.0030  -18.0950 C.ar   53  TRP53       0.0001
     31  CH2       10.1590  -35.5510  -19.0890 C.ar   53  TRP53       0.0015
     32  N          7.9780  -29.2880  -16.8340 N.3    56  CYS56      -0.1235
     33  CA         8.9870  -29.8170  -15.9220 C.3    56  CYS56       0.1677
     34  C         10.2450  -30.2380  -16.6690 C.2    56  CYS56       0.2270
     35  O         11.3630  -30.0420  -16.1770 O.2    56  CYS56      -0.2867
     36  CB         8.4100  -30.9930  -15.1350 C.3    56  CYS56       0.0956
     37  SG         6.8110  -30.6500  -14.3680 S.3    56  CYS56      -0.0801
     38  N         12.2740  -26.9530  -17.1040 N.3    59  HIS59      -0.1226
     39  CA        12.7690  -26.4960  -15.8100 C.3    59  HIS59       0.1752
     40  C         13.7250  -27.5040  -15.1880 C.2    59  HIS59       0.2595
     41  O         14.6590  -27.1160  -14.4780 O.2    59  HIS59      -0.2718
     42  CB        11.5990  -26.2200  -14.8660 C.3    59  HIS59       0.0759
     43  CG        10.7890  -25.0190  -15.2440 C.ar   59  HIS59       0.0818
     44  ND1       11.3590  -23.8600  -15.7250 N.ar   59  HIS59      -0.2268
     45  CD2        9.4540  -24.7990  -15.2160 C.ar   59  HIS59       0.1154
     46  CE1       10.4090  -22.9760  -15.9740 C.ar   59  HIS59       0.1986
     47  NE2        9.2440  -23.5220  -15.6740 N.ar   59  HIS59      -0.2212
     48  N         13.5140  -28.7970  -15.4410 N.am   60  LEU60      -0.1980
     49  CA        14.4250  -29.8080  -14.9170 C.3    60  LEU60       0.1596
     50  C         15.7830  -29.7220  -15.6020 C.2    60  LEU60       0.2287
     51  O         16.8220  -29.6450  -14.9370 O.2    60  LEU60      -0.2864
     52  CB        13.8170  -31.2010  -15.0830 C.3    60  LEU60       0.0297
     53  CG        14.6030  -32.3820  -14.5080 C.3    60  LEU60       0.0022
     54  CD1       15.7140  -32.8220  -15.4490 C.3    60  LEU60       0.0001
     55  CD2       15.1550  -32.0500  -13.1280 C.3    60  LEU60       0.0001
     56  N         16.9460  -27.2010  -17.2530 N.3    62  GLU62      -0.1231
     57  CA        17.5220  -25.9040  -16.9130 C.3    62  GLU62       0.1699
     58  C         18.1410  -25.9300  -15.5210 C.2    62  GLU62       0.2592
     59  O         19.2510  -25.4250  -15.3160 O.2    62  GLU62      -0.2718
     60  CB        16.4550  -24.8140  -17.0060 C.3    62  GLU62       0.0402
     61  CG        17.0030  -23.4000  -16.9090 C.3    62  GLU62       0.1161
     62  CD        15.9180  -22.3460  -17.0110 C.2    62  GLU62       0.3649
     63  OE1       15.1750  -22.1550  -16.0240 O.co2  62  GLU62      -0.2457
     64  OE2       15.8010  -21.7150  -18.0840 O.co2  62  GLU62      -0.2457
     65  N         17.4360  -26.5150  -14.5510 N.am   63  ALA63      -0.1980
     66  CA        18.0020  -26.6500  -13.2140 C.3    63  ALA63       0.1597
     67  C         19.2310  -27.5480  -13.2180 C.2    63  ALA63       0.2287
     68  O         20.1040  -27.4090  -12.3540 O.2    63  ALA63      -0.2864
     69  CB        16.9490  -27.1920  -12.2470 C.3    63  ALA63       0.0319
     70  N         20.7870  -35.6580  -11.1620 N.3    94  MET94      -0.1245
     71  CA        19.3870  -35.7260  -10.7570 C.3    94  MET94       0.1570
     72  C         19.2490  -35.6670   -9.2410 C.2    94  MET94       0.2261
     73  O         18.3030  -35.0660   -8.7190 O.2    94  MET94      -0.2867
     74  CB        18.7440  -36.9970  -11.3110 C.3    94  MET94       0.0387
     75  CG        17.2230  -36.9620  -11.3640 C.3    94  MET94       0.0595
     76  SD        16.5390  -38.4330  -12.1570 S.3    94  MET94      -0.1393
     77  CE        14.8000  -38.0110  -12.2480 C.3    94  MET94       0.0692
     78  N         19.8240  -32.0710   -7.9820 N.3    97  VAL97      -0.1231
     79  CA        18.6630  -31.2170   -8.2020 C.3    97  VAL97       0.1692
     80  C         17.5690  -31.4740   -7.1740 C.2    97  VAL97       0.2591
     81  O         16.7310  -30.5970   -6.9350 O.2    97  VAL97      -0.2718
     82  CB        18.1110  -31.4090   -9.6270 C.3    97  VAL97       0.0266
     83  CG1       17.0110  -30.3950   -9.9090 C.3    97  VAL97       0.0020
     84  CG2       19.2290  -31.2920  -10.6500 C.3    97  VAL97       0.0020
     85  N         17.5500  -32.6610   -6.5640 N.am   98  LEU98      -0.1980
     86  CA        16.5560  -32.9530   -5.5350 C.3    98  LEU98       0.1596
     87  C         16.8740  -32.2090   -4.2450 C.2    98  LEU98       0.2287
     88  O         15.9850  -31.6110   -3.6240 O.2    98  LEU98      -0.2864
     89  CB        16.4830  -34.4620   -5.2900 C.3    98  LEU98       0.0297
     90  CG        15.6660  -34.8930   -4.0710 C.3    98  LEU98       0.0022
     91  CD1       14.2450  -34.3570   -4.1500 C.3    98  LEU98       0.0001
     92  CD2       15.6650  -36.4080   -3.9410 C.3    98  LEU98       0.0001
     93  N         15.9320  -28.7380   -4.2710 N.3   101  MET101     -0.1245
     94  CA        14.5010  -28.4540   -4.2990 C.3   101  MET101      0.1570
     95  C         13.9790  -28.0470   -2.9270 C.2   101  MET101      0.2261
     96  O         13.1560  -27.1300   -2.8230 O.2   101  MET101     -0.2867
     97  CB        13.7340  -29.6680   -4.8230 C.3   101  MET101      0.0387
     98  CG        13.7950  -29.8280   -6.3310 C.3   101  MET101      0.0595
     99  SD        13.0920  -28.4060   -7.1870 S.3   101  MET101     -0.1393
    100  CE        11.4380  -28.3880   -6.4990 C.3   101  MET101      0.0692
    101  N          6.0200  -25.2250   -3.1620 N.3   112  VAL112     -0.1231
    102  CA         7.3140  -25.0780   -3.8040 C.3   112  VAL112      0.1692
    103  C          7.1970  -24.0170   -4.8900 C.2   112  VAL112      0.2592
    104  O          6.1040  -23.6680   -5.3450 O.2   112  VAL112     -0.2718
    105  CB         7.8250  -26.4180   -4.3840 C.3   112  VAL112      0.0266
    106  CG1        6.9560  -26.8560   -5.5530 C.3   112  VAL112      0.0020
    107  CG2        9.2860  -26.3010   -4.8000 C.3   112  VAL112      0.0020
    108  N          8.3430  -23.4940   -5.3160 N.am  113  PHE113     -0.1962
    109  CA         8.3870  -22.4410   -6.3230 C.3   113  PHE113      0.1771
    110  C          8.4560  -23.0710   -7.7100 C.2   113  PHE113      0.2620
    111  O          9.4050  -23.8000   -8.0200 O.2   113  PHE113     -0.2715
    112  CB         9.5820  -21.5200   -6.0850 C.3   113  PHE113      0.0574
    113  CG         9.5360  -20.2510   -6.8850 C.ar  113  PHE113     -0.0200
    114  CD1        8.6680  -19.2310   -6.5380 C.ar  113  PHE113     -0.0042
    115  CD2       10.3680  -20.0740   -7.9780 C.ar  113  PHE113     -0.0042
    116  CE1        8.6240  -18.0600   -7.2680 C.ar  113  PHE113     -0.0003
    117  CE2       10.3290  -18.9040   -8.7130 C.ar  113  PHE113     -0.0003
    118  CZ         9.4560  -17.8960   -8.3570 C.ar  113  PHE113     -0.0000
    119  N          7.4520  -22.7880   -8.5400 N.am  114  PHE114     -0.1960
    120  CA         7.3830  -23.3250   -9.9010 C.3   114  PHE114      0.1771
    121  C          6.8140  -22.2410  -10.8110 C.2   114  PHE114      0.2619
    122  O          5.5940  -22.0730  -10.8960 O.2   114  PHE114     -0.2715
    123  CB         6.5400  -24.5950   -9.9550 C.3   114  PHE114      0.0574
    124  CG         6.3250  -25.1220  -11.3460 C.ar  114  PHE114     -0.0200
    125  CD1        7.3200  -25.8360  -11.9930 C.ar  114  PHE114     -0.0042
    126  CD2        5.1260  -24.9080  -12.0060 C.ar  114  PHE114     -0.0042
    127  CE1        7.1250  -26.3230  -13.2730 C.ar  114  PHE114     -0.0003
    128  CE2        4.9240  -25.3930  -13.2850 C.ar  114  PHE114     -0.0003
    129  CZ         5.9250  -26.1020  -13.9190 C.ar  114  PHE114     -0.0000
    130  N          7.7020  -21.5090  -11.4820 N.am  115  GLU115     -0.1963
    131  CA         7.3060  -20.5210  -12.4780 C.3   115  GLU115      0.1733
    132  C          6.7500  -19.2540  -11.8390 C.2   115  GLU115      0.2616
    133  O          5.5630  -18.9440  -11.9850 O.2   115  GLU115     -0.2715
    134  CB         6.2850  -21.1230  -13.4470 C.3   115  GLU115      0.0429
    135  CG         6.8340  -22.2750  -14.2740 C.3   115  GLU115      0.1163
    136  CD         5.8010  -22.8740  -15.2060 C.2   115  GLU115      0.3649
    137  OE1        4.5990  -22.5830  -15.0290 O.co2 115  GLU115     -0.2457
    138  OE2        6.1900  -23.6350  -16.1170 O.co2 115  GLU115     -0.2457
    139  N          7.6010  -18.5210  -11.1240 N.am  116  GLY116     -0.1955
    140  CA         7.2580  -17.1880  -10.6700 C.3   116  GLY116      0.1869
    141  C          6.2200  -17.0970   -9.5760 C.2   116  GLY116      0.2309
    142  O          5.6350  -16.0280   -9.3880 O.2   116  GLY116     -0.2863
    143  N         -0.1420  -29.9120   -9.9700 N.3   124  PHE124     -0.1241
    144  CA         0.3600  -30.9030  -10.9120 C.3   124  PHE124      0.1605
    145  C         -0.6030  -32.0740  -11.0800 C.2   124  PHE124      0.2264
    146  O         -0.1790  -33.1970  -11.3600 O.2   124  PHE124     -0.2867
    147  CB         1.7360  -31.3990  -10.4740 C.3   124  PHE124      0.0534
    148  CG         2.7230  -30.2950  -10.2240 C.ar  124  PHE124     -0.0203
    149  CD1        2.8930  -29.7750   -8.9520 C.ar  124  PHE124     -0.0042
    150  CD2        3.4730  -29.7710  -11.2620 C.ar  124  PHE124     -0.0042
    151  CE1        3.7980  -28.7570   -8.7200 C.ar  124  PHE124     -0.0003
    152  CE2        4.3780  -28.7530  -11.0360 C.ar  124  PHE124     -0.0003
    153  CZ         4.5410  -28.2450   -9.7640 C.ar  124  PHE124     -0.0000
    154  N         -0.4630  -33.9680  -14.5080 N.3   127  LEU127     -0.1245
    155  CA         0.4790  -35.0680  -14.6880 C.3   127  LEU127      0.1561
    156  C         -0.1780  -36.4060  -14.3760 C.2   127  LEU127      0.2260
    157  O         -0.1640  -37.3280  -15.2000 O.2   127  LEU127     -0.2867
    158  CB         1.7090  -34.8480  -13.8060 C.3   127  LEU127      0.0270
    159  CG         2.6240  -33.6850  -14.1950 C.3   127  LEU127      0.0019
    160  CD1        3.1520  -32.9810  -12.9560 C.3   127  LEU127      0.0001
    161  CD2        3.7750  -34.1740  -15.0630 C.3   127  LEU127      0.0001
    162  N          0.5040  -38.4480  -11.5160 N.3   129  CYS129     -0.1235
    163  CA         1.3950  -39.3930  -10.8380 C.3   129  CYS129      0.1677
    164  C          1.6110  -38.8710   -9.4180 C.2   129  CYS129      0.2270
    165  O          2.6050  -38.2030   -9.1270 O.2   129  CYS129     -0.2867
    166  CB         2.7100  -39.5610  -11.6020 C.3   129  CYS129      0.0956
    167  SG         3.5470  -38.0120  -12.0090 S.3   129  CYS129     -0.0801
    168  N          4.7630  -40.0120   -7.0680 N.3   132  LEU132     -0.1231
    169  CA         6.0400  -39.4420   -7.4830 C.3   132  LEU132      0.1693
    170  C          6.1150  -37.9560   -7.1500 C.2   132  LEU132      0.2591
    171  O          7.1540  -37.4680   -6.6900 O.2   132  LEU132     -0.2718
    172  CB         6.2630  -39.6730   -8.9800 C.3   132  LEU132      0.0284
    173  CG         6.3560  -41.1280   -9.4580 C.3   132  LEU132      0.0019
    174  CD1        4.9740  -41.7520   -9.5810 C.3   132  LEU132      0.0001
    175  CD2        7.1160  -41.2200  -10.7750 C.3   132  LEU132      0.0001
    176  N          5.0220  -37.2210   -7.3690 N.am  133  ILE133     -0.1980
    177  CA         5.0200  -35.7900   -7.0800 C.3   133  ILE133      0.1595
    178  C          5.1340  -35.5430   -5.5810 C.2   133  ILE133      0.2287
    179  O          5.7770  -34.5800   -5.1440 O.2   133  ILE133     -0.2864
    180  CB         3.7590  -35.1280   -7.6660 C.3   133  ILE133      0.0276
    181  CG1        3.6150  -35.4760   -9.1470 C.3   133  ILE133      0.0022
    182  CG2        3.8110  -33.6180   -7.4750 C.3   133  ILE133      0.0022
    183  CD1        2.3240  -34.9870   -9.7660 C.3   133  ILE133      0.0001
    184  N          8.7000  -35.9900   -3.5410 N.3   136  ILE136     -0.1231
    185  CA         9.6210  -34.8610   -3.5040 C.3   136  ILE136      0.1692
    186  C          9.2250  -33.8790   -2.4080 C.2   136  ILE136      0.2592
    187  O         10.0630  -33.4470   -1.6080 O.2   136  ILE136     -0.2718
    188  CB         9.6800  -34.1760   -4.8810 C.3   136  ILE136      0.0266
    189  CG1        9.7180  -35.2230   -5.9960 C.3   136  ILE136      0.0019
    190  CG2       10.8900  -33.2600   -4.9690 C.3   136  ILE136      0.0020
    191  CD1       10.8850  -36.1810   -5.8990 C.3   136  ILE136      0.0001
    192  N          7.9410  -33.5190   -2.3490 N.am  137  PHE137     -0.1976
    193  CA         7.4880  -32.5470   -1.3590 C.3   137  PHE137      0.1639
    194  C          7.7520  -33.0400    0.0590 C.2   137  PHE137      0.2290
    195  O          8.2490  -32.2910    0.9070 O.2   137  PHE137     -0.2864
    196  CB         6.0030  -32.2430   -1.5600 C.3   137  PHE137      0.0560
    197  CG         5.6860  -31.6130   -2.8870 C.ar  137  PHE137     -0.0200
    198  CD1        6.6800  -31.0090   -3.6370 C.ar  137  PHE137     -0.0042
    199  CD2        4.3940  -31.6260   -3.3830 C.ar  137  PHE137     -0.0042
    200  CE1        6.3920  -30.4310   -4.8590 C.ar  137  PHE137     -0.0003
    201  CE2        4.0990  -31.0490   -4.6050 C.ar  137  PHE137     -0.0003
    202  CZ         5.0990  -30.4500   -5.3430 C.ar  137  PHE137     -0.0000
    203  N         15.1540  -40.5750   -6.6930 N.3   212  CYS212     -0.1235
    204  CA        15.3880  -40.1980   -8.0830 C.3   212  CYS212      0.1677
    205  C         15.2140  -41.3890   -9.0160 C.2   212  CYS212      0.2270
    206  O         14.6250  -41.2570  -10.0960 O.2   212  CYS212     -0.2867
    207  CB        16.7830  -39.5940   -8.2380 C.3   212  CYS212      0.0956
    208  SG        17.0220  -38.0300   -7.3670 S.3   212  CYS212     -0.0801
    209  N         11.8420  -41.6720  -10.4060 N.3   215  HIS215     -0.1241
    210  CA        11.5830  -40.7390  -11.4980 C.3   215  HIS215      0.1621
    211  C         12.3400  -41.1480  -12.7550 C.2   215  HIS215      0.2264
    212  O         11.7440  -41.3140  -13.8260 O.2   215  HIS215     -0.2867
    213  CB        11.9650  -39.3180  -11.0820 C.3   215  HIS215      0.0745
    214  CG        11.0010  -38.6860  -10.1270 C.ar  215  HIS215      0.0817
    215  ND1        9.9310  -39.3660   -9.5890 N.ar  215  HIS215     -0.2268
    216  CD2       10.9450  -37.4320   -9.6190 C.ar  215  HIS215      0.1154
    217  CE1        9.2580  -38.5590   -8.7860 C.ar  215  HIS215      0.1986
    218  NE2        9.8520  -37.3800   -8.7880 N.ar  215  HIS215     -0.2212
    219  N         10.6340  -43.9820  -14.5110 N.3   218  ARG218     -0.1231
    220  CA         9.3860  -43.7370  -15.2240 C.3   218  ARG218      0.1694
    221  C          9.6290  -43.1010  -16.5870 C.2   218  ARG218      0.2591
    222  O          8.8260  -43.2870  -17.5070 O.2   218  ARG218     -0.2718
    223  CB         8.4630  -42.8540  -14.3830 C.3   218  ARG218      0.0321
    224  CG         7.1000  -42.6160  -15.0080 C.3   218  ARG218      0.0489
    225  CD         6.2240  -41.7470  -14.1220 C.3   218  ARG218      0.2205
    226  NE         4.8900  -41.5680  -14.6860 N.pl3 218  ARG218     -0.0865
    227  CZ         3.8480  -42.3440  -14.4020 C.cat 218  ARG218      0.5346
    228  NH1        2.6710  -42.1080  -14.9630 N.pl3 218  ARG218      0.1354
    229  NH2        3.9840  -43.3540  -13.5540 N.pl3 218  ARG218      0.1354
    230  N         10.7220  -42.3490  -16.7360 N.am  219  LEU219     -0.1980
    231  CA        11.0230  -41.7220  -18.0180 C.3   219  LEU219      0.1596
    232  C         11.6680  -42.7060  -18.9840 C.2   219  LEU219      0.2287
    233  O         11.3810  -42.6750  -20.1860 O.2   219  LEU219     -0.2864
    234  CB        11.9230  -40.5030  -17.8140 C.3   219  LEU219      0.0297
    235  CG        11.2660  -39.2570  -17.2110 C.3   219  LEU219      0.0022
    236  CD1       10.1490  -38.7470  -18.1080 C.3   219  LEU219      0.0001
    237  CD2       10.7420  -39.5440  -15.8160 C.3   219  LEU219      0.0001
@<TRIPOS>BOND
     1    26    24   ar
     2    26    27   ar
     3    24    23   ar
     4    27    29   ar
     5    27    25   ar
     6    29    31   ar
     7    23    25   ar
     8    23    22    1
     9   233   232    2
    10    25    28   ar
    11    22    19    1
    12    20    21    2
    13    20    19    1
    14    31    30   ar
    15   232   231    1
    16    19    18    1
    17    28    30   ar
    18   236   235    1
    19    64    62   ar
    20   231   234    1
    21   231   230    1
    22   234   235    1
    23   222   221    2
    24    56    57    1
    25   235   237    1
    26    38    39    1
    27    62    61    1
    28    62    63   ar
    29    60    57    1
    30    60    61    1
    31    57    58    1
    32    32    33    1
    33   230   221   am
    34    34    35    2
    35    34    33    1
    36   221   220    1
    37   138   136   ar
    38    46    44   ar
    39    46    47   ar
    40    33    36    1
    41    39    40    1
    42    39    42    1
    43    44    43   ar
    44    47    45   ar
    45    50    51    2
    46    50    49    1
    47    58    59    2
    48    58    65   am
    49    54    53    1
    50    48    40   am
    51    48    49    1
    52    43    45   ar
    53    43    42    1
    54   220   219    1
    55   220   223    1
    56   136   137   ar
    57   136   135    1
    58   157   156    2
    59    40    41    2
    60    36    37    1
    61    52    49    1
    62    52    53    1
    63   161   159    1
    64   224   223    1
    65   224   225    1
    66   228   227    1
    67   155   154    1
    68   155   156    1
    69   155   158    1
    70   226   227    2
    71   226   225    1
    72    65    66    1
    73    53    55    1
    74   227   229    1
    75   135   134    1
    76   159   158    1
    77   159   160    1
    78   129   128   ar
    79   129   127   ar
    80   212   211    2
    81   134   131    1
    82   128   126   ar
    83   127   125   ar
    84    67    66    1
    85    67    68    2
    86    66    69    1
    87   211   210    1
    88     9     7   am
    89   131   132    1
    90   131   130    1
    91    77    76    1
    92    76    75    1
    93   167   166    1
    94   126   124   ar
    95   125   124   ar
    96   133   132    2
    97   132   139   am
    98   166   163    1
    99     7     6    1
   100     7     8    2
   101   162   163    1
   102   210   213    1
   103   210   209    1
   104   130   121   am
   105    75    74    1
   106   146   145    2
   107     6     5    1
   108   124   123    1
   109    74    71    1
   110   150   152   ar
   111   150   148   ar
   112    70    71    1
   113   139   140    1
   114   213   214    1
   115   145   144    1
   116   152   153   ar
   117   144   147    1
   118   144   143    1
   119   122   121    2
   120   163   164    1
   121   121   120    1
   122   175   173    1
   123    71    72    1
   124   140   141    1
   125    84    82    1
   126   147   148    1
   127     5     2    1
   128     2     3    1
   129     2     1    1
   130     4     3    2
   131   148   149   ar
   132    17    15    1
   133   214   216   ar
   134   214   215   ar
   135   206   205    2
   136   123   120    1
   137    83    82    1
   138   120   119    1
   139     3    10   am
   140   183   181    1
   141   153   151   ar
   142    82    79    1
   143   216   218   ar
   144   215   217   ar
   145   174   173    1
   146   141   142    2
   147   173   172    1
   148   164   165    2
   149    72    73    2
   150   181   180    1
   151    15    16    1
   152    15    14    1
   153   205   204    1
   154   172   169    1
   155   149   151   ar
   156   218   217   ar
   157    10    11    1
   158   117   118   ar
   159   117   115   ar
   160   119   110   am
   161   118   116   ar
   162   207   204    1
   163   207   208    1
   164    79    78    1
   165    79    80    1
   166    11    14    1
   167    11    12    1
   168   204   203    1
   169   111   110    2
   170   115   113   ar
   171   110   109    1
   172   180   182    1
   173   180   177    1
   174   169   170    1
   175   169   168    1
   176   176   170   am
   177   176   177    1
   178   116   114   ar
   179    99   100    1
   180    99    98    1
   181    80    81    2
   182    80    85   am
   183   170   171    2
   184   177   178    1
   185   113   114   ar
   186   113   112    1
   187    12    13    2
   188    85    86    1
   189    98    97    1
   190   109   112    1
   191   109   108    1
   192   189   191    1
   193   189   188    1
   194   178   179    2
   195   106   105    1
   196    86    89    1
   197    86    87    1
   198   104   103    2
   199   202   200   ar
   200   202   201   ar
   201   108   103   am
   202    89    90    1
   203   190   188    1
   204   103   102    1
   205   188   185    1
   206   200   198   ar
   207    97    94    1
   208   107   105    1
   209   201   199   ar
   210   105   102    1
   211    94    93    1
   212    94    95    1
   213    87    88    2
   214    91    90    1
   215    90    92    1
   216   102   101    1
   217   198   197   ar
   218   184   185    1
   219   185   186    1
   220   199   197   ar
   221    95    96    2
   222   197   196    1
   223   186   192   am
   224   186   187    2
   225   192   193    1
   226   196   193    1
   227   193   194    1
   228   194   195    2
