@<TRIPOS>MOLECULE
tmp/6cvlA01.pdb
 86 82 0 0 0
SMALL
GASTEIGER

@<TRIPOS>ATOM
      1  N         21.4320  -31.1740   40.8360 N.3   134  LYS134     -0.1245
      2  CA        21.6130  -32.2920   39.9200 C.3   134  LYS134      0.1561
      3  C         20.6490  -32.2630   38.7390 C.2   134  LYS134      0.2260
      4  O         20.5790  -33.2410   37.9880 O.2   134  LYS134     -0.2867
      5  CB        21.4480  -33.6080   40.6830 C.3   134  LYS134      0.0271
      6  CG        22.6180  -33.9770   41.5910 C.3   134  LYS134      0.0035
      7  CD        23.7690  -34.5870   40.8010 C.3   134  LYS134      0.0206
      8  CE        24.8180  -35.2100   41.7130 C.3   134  LYS134      0.1093
      9  NZ        25.4400  -34.2110   42.6200 N.3   134  LYS134     -0.1314
     10  N         22.5100  -42.1650   34.4050 N.3   140  SER140     -0.1202
     11  CA        23.7080  -42.9930   34.3740 C.3   140  SER140      0.2020
     12  C         24.8120  -42.4580   35.2790 C.2   140  SER140      0.2619
     13  O         25.8000  -43.1650   35.5030 O.2   140  SER140     -0.2717
     14  CB        24.2340  -43.1020   32.9400 C.3   140  SER140      0.2103
     15  OG        25.0710  -42.0060   32.6120 O.3   140  SER140     -0.2182
     16  N         24.6750  -41.2360   35.7930 N.am  141  ASN141     -0.1960
     17  CA        25.7040  -40.6060   36.6060 C.3   141  ASN141      0.1819
     18  C         25.3170  -40.4620   38.0720 C.2   141  ASN141      0.2621
     19  O         25.9670  -39.7030   38.7980 O.2   141  ASN141     -0.2715
     20  CB        26.0220  -39.2230   36.0380 C.3   141  ASN141      0.1195
     21  CG        26.3170  -39.2620   34.5630 C.2   141  ASN141      0.2630
     22  OD1       26.8830  -40.2310   34.0570 O.2   141  ASN141     -0.2716
     23  ND2       25.9280  -38.2070   33.8550 N.am  141  ASN141     -0.0877
     24  N         24.2820  -41.1590   38.5290 N.am  142  LEU142     -0.1963
     25  CA        23.6720  -40.8830   39.8210 C.3   142  LEU142      0.1728
     26  C         23.7730  -42.0800   40.7560 C.2   142  LEU142      0.2617
     27  O         23.6380  -43.2300   40.3290 O.2   142  LEU142     -0.2715
     28  CB        22.1980  -40.4980   39.6480 C.3   142  LEU142      0.0311
     29  CG        21.8870  -39.2260   38.8570 C.3   142  LEU142      0.0022
     30  CD1       20.3940  -38.9350   38.9040 C.3   142  LEU142      0.0001
     31  CD2       22.6800  -38.0420   39.3780 C.3   142  LEU142      0.0001
     32  N         23.9950  -41.7990   42.0390 N.am  143  SER143     -0.1936
     33  CA        23.9470  -42.8380   43.0510 C.3   143  SER143      0.2055
     34  C         22.5150  -43.3330   43.2220 C.2   143  SER143      0.2644
     35  O         21.5490  -42.6770   42.8220 O.2   143  SER143     -0.2714
     36  CB        24.4730  -42.3220   44.3880 C.3   143  SER143      0.2130
     37  OG        23.5050  -41.5240   45.0440 O.3   143  SER143     -0.2179
     38  N         22.3870  -44.5080   43.8360 N.am  144  GLY144     -0.1939
     39  CA        21.0750  -45.1150   43.9920 C.3   144  GLY144      0.2014
     40  C         20.0670  -44.1760   44.6170 C.2   144  GLY144      0.2639
     41  O         18.9960  -43.9340   44.0570 O.2   144  GLY144     -0.2714
     42  N         20.3980  -43.6290   45.7880 N.am  145  GLY145     -0.1939
     43  CA        19.4860  -42.7120   46.4490 C.3   145  GLY145      0.2014
     44  C         19.0680  -41.5580   45.5630 C.2   145  GLY145      0.2638
     45  O         17.8980  -41.1620   45.5470 O.2   145  GLY145     -0.2714
     46  N         20.0150  -41.0050   44.8070 N.am  146  GLN146     -0.1977
     47  CA        19.7000  -39.8860   43.9280 C.3   146  GLN146      0.1601
     48  C         18.6460  -40.2790   42.9030 C.2   146  GLN146      0.2287
     49  O         17.6640  -39.5580   42.6940 O.2   146  GLN146     -0.2864
     50  CB        20.9750  -39.4070   43.2370 C.3   146  GLN146      0.0394
     51  CG        21.9660  -38.7410   44.1740 C.3   146  GLN146      0.0908
     52  CD        23.3930  -38.8020   43.6620 C.2   146  GLN146      0.2608
     53  OE1       23.6800  -39.4480   42.6560 O.2   146  GLN146     -0.2717
     54  NE2       24.2960  -38.1190   44.3520 N.am  146  GLN146     -0.0878
     55  N         15.2410  -40.6770   44.4110 N.3   149  ARG149     -0.1245
     56  CA        14.5980  -39.3870   44.6340 C.3   149  ARG149      0.1563
     57  C         14.1120  -38.7800   43.3210 C.2   149  ARG149      0.2260
     58  O         13.0620  -38.1280   43.2830 O.2   149  ARG149     -0.2867
     59  CB        15.5640  -38.4580   45.3710 C.3   149  ARG149      0.0307
     60  CG        15.6690  -38.7890   46.8600 C.3   149  ARG149      0.0489
     61  CD        16.7360  -37.9820   47.5760 C.3   149  ARG149      0.2205
     62  NE        18.0770  -38.5020   47.3350 N.pl3 149  ARG149     -0.0865
     63  CZ        19.1880  -37.7730   47.3860 C.cat 149  ARG149      0.5346
     64  NH1       19.1290  -36.4780   47.6630 N.pl3 149  ARG149      0.1354
     65  NH2       20.3630  -38.3460   47.1590 N.pl3 149  ARG149      0.1354
     66  N         16.7470  -47.1090   49.1450 N.3   171  ALA171     -0.1231
     67  CA        18.0940  -46.6750   48.7970 C.3   171  ALA171      0.1694
     68  C         18.4780  -45.3420   49.4400 C.2   171  ALA171      0.2592
     69  O         19.3860  -44.6640   48.9440 O.2   171  ALA171     -0.2718
     70  CB        18.2320  -46.5810   47.2750 C.3   171  ALA171      0.0304
     71  N         17.8160  -44.9510   50.5280 N.am  172  LEU172     -0.1966
     72  CA        18.0550  -43.6580   51.1570 C.3   172  LEU172      0.1728
     73  C         18.4520  -43.8150   52.6180 C.2   172  LEU172      0.2616
     74  O         17.7960  -44.5340   53.3780 O.2   172  LEU172     -0.2715
     75  CB        16.8190  -42.7610   51.0370 C.3   172  LEU172      0.0311
     76  CG        16.3760  -42.4520   49.6030 C.3   172  LEU172      0.0022
     77  CD1       15.1720  -41.5320   49.6080 C.3   172  LEU172      0.0001
     78  CD2       17.5030  -41.8240   48.7910 C.3   172  LEU172      0.0001
     79  N         19.5310  -43.1330   52.9960 N.am  173  ASP173     -0.1971
     80  CA        19.9860  -43.0890   54.3720 C.3   173  ASP173      0.1709
     81  C         18.8930  -42.5820   55.3130 C.2   173  ASP173      0.2293
     82  O         17.9560  -41.8990   54.8920 O.2   173  ASP173     -0.2864
     83  CB        21.2140  -42.1920   54.4620 C.3   173  ASP173      0.1436
     84  CG        20.9090  -40.7690   54.0760 C.2   173  ASP173      0.3671
     85  OD1       20.3350  -40.0370   54.9090 O.co2 173  ASP173     -0.2456
     86  OD2       21.2300  -40.3920   52.9310 O.co2 173  ASP173     -0.2456
@<TRIPOS>BOND
     1    15    14    1
     2    14    11    1
     3    23    21   am
     4    22    21    2
     5    11    10    1
     6    11    12    1
     7    21    20    1
     8    12    13    2
     9    12    16   am
    10    16    17    1
    11    20    17    1
    12    17    18    1
    13     4     3    2
    14    18    24   am
    15    18    19    2
    16    24    25    1
    17     3     2    1
    18    29    30    1
    19    29    31    1
    20    29    28    1
    21    28    25    1
    22    25    26    1
    23     2     5    1
    24     2     1    1
    25    27    26    2
    26     5     6    1
    27    26    32   am
    28     7     6    1
    29     7     8    1
    30     8     9    1
    31    32    33    1
    32    53    52    2
    33    49    48    2
    34    35    34    2
    35    48    47    1
    36    33    34    1
    37    33    36    1
    38    34    38   am
    39    50    47    1
    40    50    51    1
    41    58    57    2
    42    57    56    1
    43    52    51    1
    44    52    54   am
    45    38    39    1
    46    47    46    1
    47    39    40    1
    48    41    40    2
    49    36    37    1
    50    55    56    1
    51    40    42   am
    52    56    59    1
    53    46    44   am
    54    59    60    1
    55    45    44    2
    56    44    43    1
    57    42    43    1
    58    60    61    1
    59    65    63    1
    60    70    67    1
    61    62    63    2
    62    62    61    1
    63    63    64    1
    64    78    76    1
    65    67    66    1
    66    67    68    1
    67    69    68    2
    68    68    71   am
    69    76    77    1
    70    76    75    1
    71    71    72    1
    72    75    72    1
    73    72    73    1
    74    73    79   am
    75    73    74    2
    76    86    84   ar
    77    79    80    1
    78    84    83    1
    79    84    85   ar
    80    80    83    1
    81    80    81    1
    82    82    81    2
