@<TRIPOS>MOLECULE
tmp/6cvlA00.pdb
 140 133 0 0 0
SMALL
GASTEIGER

@<TRIPOS>ATOM
      1  N         -0.1870  -66.5950   37.1700 N.3    12  PHE12      -0.1227
      2  CA         0.8680  -66.5140   36.1740 C.3    12  PHE12       0.1736
      3  C          1.2310  -67.9240   35.7360 C.2    12  PHE12       0.2595
      4  O          1.3020  -68.8420   36.5590 O.2    12  PHE12      -0.2718
      5  CB         2.1020  -65.7980   36.7260 C.3    12  PHE12       0.0547
      6  CG         1.8420  -64.3810   37.1390 C.ar   12  PHE12      -0.0202
      7  CD1        1.5170  -63.4170   36.2040 C.ar   12  PHE12      -0.0042
      8  CD2        1.9220  -64.0150   38.4700 C.ar   12  PHE12      -0.0042
      9  CE1        1.2800  -62.1150   36.5910 C.ar   12  PHE12      -0.0003
     10  CE2        1.6850  -62.7160   38.8580 C.ar   12  PHE12      -0.0003
     11  CZ         1.3640  -61.7660   37.9190 C.ar   12  PHE12      -0.0000
     12  N          1.4540  -68.0930   34.4420 N.am   13  HIS13      -0.1961
     13  CA         1.9280  -69.3550   33.8880 C.3    13  HIS13       0.1787
     14  C          3.3850  -69.1290   33.5020 C.2    13  HIS13       0.2620
     15  O          3.6920  -68.7910   32.3570 O.2    13  HIS13      -0.2715
     16  CB         1.0910  -69.7830   32.6920 C.3    13  HIS13       0.0785
     17  CG        -0.3830  -69.7320   32.9380 C.ar   13  HIS13       0.0821
     18  ND1       -1.1190  -70.8450   33.2800 N.ar   13  HIS13      -0.2267
     19  CD2       -1.2600  -68.7010   32.8900 C.ar   13  HIS13       0.1154
     20  CE1       -2.3860  -70.5030   33.4330 C.ar   13  HIS13       0.1986
     21  NE2       -2.4980  -69.2070   33.2020 N.ar   13  HIS13      -0.2212
     22  N          4.2840  -69.3080   34.4670 N.am   14  GLN14      -0.1977
     23  CA         5.7010  -69.1340   34.1830 C.3    14  GLN14       0.1601
     24  C          6.0890  -70.1000   33.0750 C.2    14  GLN14       0.2287
     25  O          6.3930  -69.6970   31.9480 O.2    14  GLN14      -0.2864
     26  CB         6.5500  -69.3920   35.4280 C.3    14  GLN14       0.0394
     27  CG         6.0330  -68.7490   36.6990 C.3    14  GLN14       0.0908
     28  CD         7.1420  -68.4700   37.6950 C.2    14  GLN14       0.2608
     29  OE1        8.1340  -69.1970   37.7570 O.2    14  GLN14      -0.2717
     30  NE2        6.9750  -67.4170   38.4870 N.am   14  GLN14      -0.0878
     31  N          0.9970  -70.2810   39.0210 N.3    19  ILE19      -0.1245
     32  CA         1.1670  -69.7150   40.3530 C.3    19  ILE19       0.1561
     33  C          0.0080  -68.7790   40.6600 C.2    19  ILE19       0.2260
     34  O         -0.3980  -67.9760   39.8140 O.2    19  ILE19      -0.2867
     35  CB         2.5190  -68.9770   40.4790 C.3    19  ILE19       0.0252
     36  CG1        2.4220  -67.8380   41.4980 C.3    19  ILE19       0.0019
     37  CG2        2.9670  -68.4640   39.1230 C.3    19  ILE19       0.0019
     38  CD1        3.7640  -67.3240   41.9610 C.3    19  ILE19       0.0001
     39  N         -0.3490  -65.9450   42.3700 N.3    21  ALA21      -0.1245
     40  CA         0.3240  -64.8080   42.9890 C.3    21  ALA21       0.1562
     41  C         -0.6270  -64.0470   43.8990 C.2    21  ALA21       0.2260
     42  O         -0.2410  -63.5990   44.9840 O.2    21  ALA21      -0.2867
     43  CB         0.8960  -63.8830   41.9170 C.3    21  ALA21       0.0290
     44  N          8.7240  -62.3470   51.2710 N.3    41  SER41      -0.1202
     45  CA         9.0890  -62.1400   49.8760 C.3    41  SER41       0.2020
     46  C          8.3520  -63.1080   48.9590 C.2    41  SER41       0.2619
     47  O          8.1820  -64.2880   49.2750 O.2    41  SER41      -0.2717
     48  CB        10.6030  -62.3080   49.7110 C.3    41  SER41       0.2103
     49  OG        10.9840  -62.3150   48.3470 O.3    41  SER41      -0.2182
     50  N          7.9190  -62.5950   47.8100 N.am   42  GLY42      -0.1942
     51  CA         7.2060  -63.3970   46.8390 C.3    42  GLY42       0.2014
     52  C          5.7630  -63.6680   47.1800 C.2    42  GLY42       0.2639
     53  O          5.1880  -64.6330   46.6680 O.2    42  GLY42      -0.2714
     54  N          5.1510  -62.8360   48.0180 N.am   43  ALA43      -0.1963
     55  CA         3.7880  -63.0790   48.4630 C.3    43  ALA43       0.1728
     56  C          2.7350  -62.4550   47.5570 C.2    43  ALA43       0.2617
     57  O          1.5740  -62.8710   47.6120 O.2    43  ALA43      -0.2715
     58  CB         3.6100  -62.5580   49.8920 C.3    43  ALA43       0.0334
     59  N          3.1030  -61.4860   46.7230 N.am   44  GLY44      -0.1940
     60  CA         2.1590  -60.8080   45.8510 C.3    44  GLY44       0.2014
     61  C          2.1280  -59.2970   45.9860 C.2    44  GLY44       0.2639
     62  O          1.4240  -58.6430   45.2040 O.2    44  GLY44      -0.2714
     63  N          2.8580  -58.7060   46.9340 N.am   45  LYS45      -0.1963
     64  CA         2.7340  -57.2760   47.2080 C.3    45  LYS45       0.1728
     65  C          2.8920  -56.4420   45.9400 C.2    45  LYS45       0.2617
     66  O          2.0100  -55.6490   45.5820 O.2    45  LYS45      -0.2715
     67  CB         3.7610  -56.8640   48.2670 C.3    45  LYS45       0.0311
     68  CG         3.6650  -57.6790   49.5550 C.3    45  LYS45       0.0038
     69  CD         4.6270  -57.1880   50.6330 C.3    45  LYS45       0.0206
     70  CE         6.0740  -57.5490   50.3340 C.3    45  LYS45       0.1093
     71  NZ         6.2530  -59.0010   50.0630 N.3    45  LYS45      -0.1314
     72  N          4.0300  -56.5840   45.2630 N.am   46  SER46      -0.1936
     73  CA         4.2270  -55.8500   44.0200 C.3    46  SER46       0.2055
     74  C          3.1110  -56.1630   43.0360 C.2    46  SER46       0.2643
     75  O          2.6090  -55.2710   42.3440 O.2    46  SER46      -0.2714
     76  CB         5.5890  -56.1880   43.4180 C.3    46  SER46       0.2130
     77  OG         6.6280  -56.0190   44.3690 O.3    46  SER46      -0.2179
     78  N          2.6970  -57.4280   42.9760 N.am   47  THR47      -0.1950
     79  CA         1.6090  -57.8080   42.0850 C.3    47  THR47       0.1897
     80  C          0.3570  -56.9920   42.3820 C.2    47  THR47       0.2313
     81  O         -0.2600  -56.4250   41.4750 O.2    47  THR47      -0.2863
     82  CB         1.3240  -59.3020   42.2280 C.3    47  THR47       0.1794
     83  OG1        2.5520  -60.0380   42.1440 O.3    47  THR47      -0.2208
     84  CG2        0.3740  -59.7690   41.1380 C.3    47  THR47       0.0378
     85  N          0.5930  -53.3240   41.4950 N.3    50  ARG50      -0.1245
     86  CA         0.4880  -53.1830   40.0490 C.3    50  ARG50       0.1563
     87  C         -0.9450  -53.3820   39.5800 C.2    50  ARG50       0.2260
     88  O         -1.3640  -52.7710   38.5900 O.2    50  ARG50      -0.2867
     89  CB         1.4190  -54.1760   39.3620 C.3    50  ARG50       0.0307
     90  CG         2.8820  -53.9340   39.6730 C.3    50  ARG50       0.0489
     91  CD         3.7110  -55.1820   39.4580 C.3    50  ARG50       0.2205
     92  NE         3.6710  -55.6130   38.0660 N.pl3  50  ARG50      -0.0865
     93  CZ         4.3250  -55.0090   37.0800 C.cat  50  ARG50       0.5346
     94  NH1        5.0660  -53.9370   37.3280 N.pl3  50  ARG50       0.1354
     95  NH2        4.2300  -55.4680   35.8430 N.pl3  50  ARG50       0.1354
     96  N         -0.9750  -54.9290   35.9320 N.3    56  GLU56      -0.1245
     97  CA        -1.3150  -56.3450   35.9250 C.3    56  GLU56       0.1567
     98  C         -2.8310  -56.4590   35.8680 C.2    56  GLU56       0.2260
     99  O         -3.5240  -55.9660   36.7630 O.2    56  GLU56      -0.2867
    100  CB        -0.7620  -57.0500   37.1660 C.3    56  GLU56       0.0388
    101  CG         0.7590  -57.1280   37.2180 C.3    56  GLU56       0.1160
    102  CD         1.3340  -58.0850   36.1900 C.2    56  GLU56       0.3649
    103  OE1        0.5660  -58.9020   35.6400 O.co2  56  GLU56      -0.2457
    104  OE2        2.5550  -58.0240   35.9370 O.co2  56  GLU56      -0.2457
    105  N         10.2910  -50.1210   42.1450 N.3    90  GLN90      -0.1245
    106  CA        11.4100  -50.5940   42.9470 C.3    90  GLN90       0.1566
    107  C         12.7460  -50.2250   42.3150 C.2    90  GLN90       0.2260
    108  O         13.7550  -50.1150   43.0210 O.2    90  GLN90      -0.2867
    109  CB        11.3030  -52.1080   43.1260 C.3    90  GLN90       0.0367
    110  CG        12.3510  -52.7050   44.0410 C.3    90  GLN90       0.0905
    111  CD        11.9180  -54.0340   44.6290 C.2    90  GLN90       0.2608
    112  OE1       10.8430  -54.5460   44.3160 O.2    90  GLN90      -0.2717
    113  NE2       12.7600  -54.6030   45.4830 N.am   90  GLN90      -0.0878
    114  N          8.5280  -49.6600   48.3450 N.3   167  GLN167     -0.1245
    115  CA         9.9220  -49.5630   48.7740 C.3   167  GLN167      0.1566
    116  C         10.5760  -48.3060   48.2060 C.2   167  GLN167      0.2260
    117  O         11.6920  -48.3350   47.6860 O.2   167  GLN167     -0.2867
    118  CB        10.6960  -50.8170   48.3640 C.3   167  GLN167      0.0367
    119  CG         9.9180  -52.1060   48.5830 C.3   167  GLN167      0.0905
    120  CD        10.8160  -53.2940   48.8450 C.2   167  GLN167      0.2608
    121  OE1       11.6710  -53.2570   49.7310 O.2   167  GLN167     -0.2717
    122  NE2       10.6320  -54.3570   48.0710 N.am  167  GLN167     -0.0878
    123  N          4.5040  -50.2290   49.5760 N.3   198  ILE198     -0.1245
    124  CA         5.1080  -51.4930   49.9800 C.3   198  ILE198      0.1561
    125  C          6.4000  -51.1790   50.7180 C.2   198  ILE198      0.2260
    126  O          7.1180  -50.2340   50.3610 O.2   198  ILE198     -0.2867
    127  CB         5.3740  -52.4120   48.7730 C.3   198  ILE198      0.0252
    128  CG1        4.1020  -52.5810   47.9420 C.3   198  ILE198      0.0019
    129  CG2        5.8730  -53.7700   49.2450 C.3   198  ILE198      0.0019
    130  CD1        4.2730  -53.4530   46.7070 C.3   198  ILE198      0.0001
    131  N          9.5640  -53.2920   53.4180 N.3   200  HIS200     -0.1241
    132  CA        10.0800  -54.2730   54.3590 C.3   200  HIS200      0.1621
    133  C         10.6470  -53.6200   55.6120 C.2   200  HIS200      0.2264
    134  O         11.1390  -54.3250   56.4980 O.2   200  HIS200     -0.2867
    135  CB        11.1580  -55.1300   53.6890 C.3   200  HIS200      0.0745
    136  CG        10.6440  -56.0060   52.5880 C.ar  200  HIS200      0.0817
    137  ND1        9.7420  -57.0260   52.8080 N.ar  200  HIS200     -0.2268
    138  CD2       10.8980  -56.0080   51.2580 C.ar  200  HIS200      0.1154
    139  CE1        9.4730  -57.6260   51.6620 C.ar  200  HIS200      0.1986
    140  NE2       10.1590  -57.0260   50.7050 N.ar  200  HIS200     -0.2212
@<TRIPOS>BOND
     1    25    24    2
     2    15    14    2
     3    16    17    1
     4    16    13    1
     5    19    17   ar
     6    19    21   ar
     7    17    18   ar
     8    24    23    1
     9    21    20   ar
    10    18    20   ar
    11    14    13    1
    12    14    22   am
    13    13    12    1
    14    23    22    1
    15    23    26    1
    16    12     3   am
    17    26    27    1
    18   103   102   ar
    19     3     2    1
    20     3     4    2
    21    95    93    1
    22    98    97    1
    23    98    99    2
    24    97    96    1
    25    97   100    1
    26   104   102   ar
    27     2     5    1
    28     2     1    1
    29   102   101    1
    30     7     9   ar
    31     7     6   ar
    32     9    11   ar
    33    27    28    1
    34     5     6    1
    35    93    94    1
    36    93    92    2
    37     6     8   ar
    38   100   101    1
    39    28    29    2
    40    28    30   am
    41    11    10   ar
    42    92    91    1
    43     8    10   ar
    44    88    87    2
    45    31    32    1
    46    37    35    1
    47    89    90    1
    48    89    86    1
    49    91    90    1
    50    87    86    1
    51    34    33    2
    52    86    85    1
    53    32    35    1
    54    32    33    1
    55    35    36    1
    56    84    82    1
    57    81    80    2
    58    36    38    1
    59    43    40    1
    60    79    82    1
    61    79    80    1
    62    79    78    1
    63    83    82    1
    64   105   106    1
    65   107   106    1
    66   107   108    2
    67    75    74    2
    68    39    40    1
    69   106   109    1
    70    78    74   am
    71    40    41    1
    72    74    73    1
    73   109   110    1
    74    76    73    1
    75    76    77    1
    76    41    42    2
    77    73    72    1
    78   110   111    1
    79   112   111    2
    80   111   113   am
    81    62    61    2
    82    72    65   am
    83    66    65    2
    84    60    61    1
    85    60    59    1
    86    65    64    1
    87    61    63   am
    88    53    52    2
    89   130   128    1
    90    59    56   am
    91    51    52    1
    92    51    50    1
    93    63    64    1
    94    52    54   am
    95    64    67    1
    96    56    57    2
    97    56    55    1
    98   117   116    2
    99    50    46   am
   100   128   127    1
   101    54    55    1
   102   122   120   am
   103   116   115    1
   104    67    68    1
   105   114   115    1
   106    49    48    1
   107   118   119    1
   108   118   115    1
   109    55    58    1
   110   119   120    1
   111   127   129    1
   112   127   124    1
   113   120   121    2
   114    46    47    2
   115    46    45    1
   116    68    69    1
   117   123   124    1
   118    48    45    1
   119    45    44    1
   120   124   125    1
   121    71    70    1
   122    70    69    1
   123   126   125    2
   124   140   138   ar
   125   140   139   ar
   126   138   136   ar
   127   139   137   ar
   128   136   137   ar
   129   136   135    1
   130   131   132    1
   131   135   132    1
   132   132   133    1
   133   133   134    2
