@<TRIPOS>MOLECULE
tmp/6cvuA00.pdb
 76 71 0 0 0
SMALL
GASTEIGER

@<TRIPOS>ATOM
      1  N         -4.6170  -33.6800   25.8820 N.3    13  GLY13      -0.1210
      2  CA        -5.7030  -34.4880   26.4090 C.3    13  GLY13       0.1956
      3  C         -6.9940  -33.7420   26.6960 C.2    13  GLY13       0.2612
      4  O         -7.7000  -34.0830   27.6460 O.2    13  GLY13      -0.2717
      5  N         -7.3290  -32.7340   25.8890 N.am   14  VAL14      -0.1965
      6  CA        -8.5380  -31.9390   26.1000 C.3    14  VAL14       0.1727
      7  C         -9.7000  -32.3880   25.2140 C.2    14  VAL14       0.2616
      8  O        -10.8160  -31.8520   25.3430 O.2    14  VAL14      -0.2715
      9  CB        -8.2390  -30.4380   25.8910 C.3    14  VAL14       0.0290
     10  CG1       -7.2330  -29.9460   26.9490 C.3    14  VAL14       0.0023
     11  CG2       -7.7050  -30.1830   24.4710 C.3    14  VAL14       0.0023
     12  N         -9.4730  -33.3660   24.3330 N.am   15  GLY15      -0.1955
     13  CA       -10.4690  -33.8360   23.4000 C.3    15  GLY15       0.1869
     14  C        -10.4390  -33.2030   22.0230 C.2    15  GLY15       0.2309
     15  O        -11.4880  -33.1500   21.3730 O.2    15  GLY15      -0.2863
     16  N        -11.7190  -35.6640   19.1430 N.3    18  VAL18      -0.1245
     17  CA       -13.1480  -35.9310   18.9970 C.3    18  VAL18       0.1561
     18  C        -13.9210  -34.6440   18.7190 C.2    18  VAL18       0.2260
     19  O        -14.9950  -34.7060   18.1180 O.2    18  VAL18      -0.2867
     20  CB       -13.7490  -36.7120   20.1910 C.3    18  VAL18       0.0252
     21  CG1      -12.6750  -37.3350   21.0590 C.3    18  VAL18       0.0019
     22  CG2      -14.7210  -35.8630   21.0040 C.3    18  VAL18       0.0019
     23  N         -8.9920  -42.2790   14.0500 N.3    53  GLU53      -0.1245
     24  CA       -10.1480  -42.1400   14.9380 C.3    53  GLU53       0.1567
     25  C        -11.2010  -41.1870   14.3760 C.2    53  GLU53       0.2260
     26  O        -12.3960  -41.3760   14.6230 O.2    53  GLU53      -0.2867
     27  CB        -9.7240  -41.6710   16.3340 C.3    53  GLU53       0.0388
     28  CG       -10.9260  -41.4770   17.2810 C.3    53  GLU53       0.1160
     29  CD       -10.5540  -41.0920   18.7090 C.2    53  GLU53       0.3649
     30  OE1      -11.3010  -41.4730   19.6470 O.co2  53  GLU53      -0.2457
     31  OE2       -9.5230  -40.3980   18.8930 O.co2  53  GLU53      -0.2457
     32  N        -14.2550  -29.6880   25.3120 N.3   170  GLY170     -0.1210
     33  CA       -14.1070  -30.9550   24.6170 C.3   170  GLY170      0.1956
     34  C        -14.7350  -32.1410   25.3260 C.2   170  GLY170      0.2612
     35  O        -15.0860  -33.1300   24.6670 O.2   170  GLY170     -0.2717
     36  N        -14.8580  -32.0750   26.6520 N.am  171  SER171     -0.1952
     37  CA       -15.4530  -33.1470   27.4450 C.3   171  SER171      0.1924
     38  C        -16.2960  -32.4770   28.5150 C.2   171  SER171      0.2314
     39  O        -15.7510  -31.8000   29.3890 O.2   171  SER171     -0.2863
     40  CB       -14.3820  -34.0420   28.0700 C.3   171  SER171      0.2116
     41  OG       -14.9010  -35.3090   28.4760 O.3   171  SER171     -0.2180
     42  N        -19.0770  -31.0220   24.2370 N.3   197  LEU197     -0.1231
     43  CA       -19.2920  -32.4210   23.8570 C.3   197  LEU197      0.1678
     44  C        -19.4410  -33.2970   25.1000 C.2   197  LEU197      0.2434
     45  O        -18.6290  -33.1880   26.0240 O.2   197  LEU197     -0.2733
     46  CB       -18.1360  -32.9500   22.9950 C.3   197  LEU197      0.0284
     47  CG       -17.7480  -32.2410   21.6890 C.3   197  LEU197      0.0019
     48  CD1      -17.0210  -33.2020   20.7170 C.3   197  LEU197      0.0001
     49  CD2      -18.9200  -31.5610   21.0020 C.3   197  LEU197      0.0001
     50  N        -20.4510  -34.1730   25.1540 N.am  198  PRO198     -0.2729
     51  CA       -20.6060  -35.0720   26.3100 C.3   198  PRO198      0.1401
     52  C        -19.4440  -36.0380   26.4640 C.2   198  PRO198      0.2269
     53  O        -18.9970  -36.6640   25.5030 O.2   198  PRO198     -0.2865
     54  CB       -21.9040  -35.8320   26.0020 C.3   198  PRO198      0.0296
     55  CG       -22.1430  -35.6240   24.5340 C.3   198  PRO198      0.0237
     56  CD       -21.6000  -34.2520   24.2400 C.3   198  PRO198      0.0939
     57  N        -17.2740  -39.2970   27.1240 N.3   200  GLY200     -0.1210
     58  CA       -17.4960  -40.5920   26.5170 C.3   200  GLY200      0.1956
     59  C        -17.9180  -40.5550   25.0630 C.2   200  GLY200      0.2612
     60  O        -18.1500  -41.6240   24.4760 O.2   200  GLY200     -0.2717
     61  N        -18.0000  -39.3630   24.4560 N.am  201  ALA201     -0.1965
     62  CA       -18.4150  -39.2420   23.0680 C.3   201  ALA201      0.1728
     63  C        -17.6040  -40.1260   22.1330 C.2   201  ALA201      0.2616
     64  O        -18.0950  -40.4840   21.0570 O.2   201  ALA201     -0.2715
     65  CB       -18.3150  -37.7820   22.6300 C.3   201  ALA201      0.0334
     66  N        -16.3850  -40.4980   22.5210 N.am  202  ALA202     -0.1963
     67  CA       -15.4990  -41.3040   21.6940 C.3   202  ALA202      0.1728
     68  C        -15.8300  -42.7820   21.7260 C.2   202  ALA202      0.2616
     69  O        -15.2920  -43.5310   20.8980 O.2   202  ALA202     -0.2715
     70  CB       -14.0520  -41.1250   22.1440 C.3   202  ALA202      0.0334
     71  N        -16.6650  -43.2210   22.6680 N.am  203  SER203     -0.1950
     72  CA       -17.1550  -44.5930   22.6890 C.3   203  SER203      0.1924
     73  C        -18.4900  -44.7430   21.9770 C.2   203  SER203      0.2314
     74  O        -19.0240  -45.8540   21.9410 O.2   203  SER203     -0.2863
     75  CB       -17.2890  -45.1000   24.1280 C.3   203  SER203      0.2116
     76  OG       -18.4610  -44.5820   24.7310 O.3   203  SER203     -0.2180
@<TRIPOS>BOND
     1    23    24    1
     2    25    26    2
     3    25    24    1
     4    24    27    1
     5    27    28    1
     6    28    29    1
     7    19    18    2
     8    29    31   ar
     9    29    30   ar
    10    18    17    1
    11    17    16    1
    12    17    20    1
    13    20    22    1
    14    20    21    1
    15    48    47    1
    16    69    68    2
    17    49    47    1
    18    64    63    2
    19    15    14    2
    20    47    46    1
    21    67    68    1
    22    67    70    1
    23    67    66    1
    24    68    71   am
    25    74    73    2
    26    73    72    1
    27    14    13    1
    28    63    66   am
    29    63    62    1
    30    65    62    1
    31    71    72    1
    32    72    75    1
    33    46    43    1
    34    62    61    1
    35    13    12    1
    36    43    42    1
    37    43    44    1
    38    75    76    1
    39    56    55    1
    40    56    50    1
    41    12     7   am
    42    61    59   am
    43    11     9    1
    44    60    59    2
    45    55    54    1
    46    33    32    1
    47    33    34    1
    48    35    34    2
    49    59    58    1
    50    44    50   am
    51    44    45    2
    52    50    51    1
    53     7     8    2
    54     7     6    1
    55    34    36   am
    56    53    52    2
    57     1     2    1
    58     5     6    1
    59     5     3   am
    60     9     6    1
    61     9    10    1
    62    54    51    1
    63    51    52    1
    64     2     3    1
    65    58    57    1
    66    36    37    1
    67     3     4    2
    68    37    40    1
    69    37    38    1
    70    40    41    1
    71    38    39    2
