@<TRIPOS>MOLECULE
tmp/6cw0A00.pdb
 102 96 0 0 0
SMALL
GASTEIGER

@<TRIPOS>ATOM
      1  N         29.3960   59.6250    8.9850 N.3    21  GLU21      -0.1231
      2  CA        30.5990   59.6410    8.1440 C.3    21  GLU21       0.1699
      3  C         31.3090   60.9960    8.0850 C.2    21  GLU21       0.2592
      4  O         32.5360   61.0700    8.2410 O.2    21  GLU21      -0.2718
      5  CB        30.2680   59.1940    6.7200 C.3    21  GLU21       0.0402
      6  CG        31.5020   58.9960    5.8330 C.3    21  GLU21       0.1161
      7  CD        32.2960   57.7280    6.1550 C.2    21  GLU21       0.3649
      8  OE1       31.8060   56.8710    6.9240 O.co2  21  GLU21      -0.2457
      9  OE2       33.4210   57.5780    5.6260 O.co2  21  GLU21      -0.2457
     10  N         30.5480   62.0650    7.8780 N.am   22  ALA22      -0.1966
     11  CA        31.1520   63.3970    7.7280 C.3    22  ALA22       0.1728
     12  C         31.8630   63.8930    8.9720 C.2    22  ALA22       0.2616
     13  O         32.6170   64.8670    8.8990 O.2    22  ALA22      -0.2715
     14  CB        30.1120   64.4080    7.3240 C.3    22  ALA22       0.0334
     15  N         31.5790   63.2810   10.1230 N.am   23  PHE23      -0.1974
     16  CA        32.0240   63.7500   11.4380 C.3    23  PHE23       0.1639
     17  C         33.1270   62.8980   12.0500 C.2    23  PHE23       0.2290
     18  O         33.5460   63.1640   13.1850 O.2    23  PHE23      -0.2864
     19  CB        30.8070   63.8470   12.3430 C.3    23  PHE23       0.0560
     20  CG        29.7000   64.5910   11.6870 C.ar   23  PHE23      -0.0200
     21  CD1       29.8190   65.9450   11.4290 C.ar   23  PHE23      -0.0042
     22  CD2       28.5720   63.9250   11.2210 C.ar   23  PHE23      -0.0042
     23  CE1       28.8190   66.6160   10.7530 C.ar   23  PHE23      -0.0003
     24  CE2       27.5760   64.5880   10.5540 C.ar   23  PHE23      -0.0003
     25  CZ        27.6940   65.9410   10.3180 C.ar   23  PHE23      -0.0000
     26  N         36.3630   62.3700   11.1590 N.3    25  GLU25      -0.1245
     27  CA        37.7340   62.8630   11.0860 C.3    25  GLU25       0.1567
     28  C         37.7330   64.3650   10.8940 C.2    25  GLU25       0.2260
     29  O         36.7290   64.9340   10.4390 O.2    25  GLU25      -0.2867
     30  CB        38.4460   62.2400    9.8830 C.3    25  GLU25       0.0388
     31  CG        38.6330   60.7380    9.9730 C.3    25  GLU25       0.1160
     32  CD        39.7400   60.3630   10.8970 C.2    25  GLU25       0.3649
     33  OE1       40.6380   61.2140   11.1000 O.co2  25  GLU25      -0.2457
     34  OE2       39.7240   59.2150   11.4120 O.co2  25  GLU25      -0.2457
     35  N         37.9130   67.9650    9.4000 N.3    27  VAL27      -0.1245
     36  CA        37.6600   68.5260    8.0880 C.3    27  VAL27       0.1561
     37  C         39.0070   68.9030    7.4640 C.2    27  VAL27       0.2260
     38  O         39.7770   69.7090    8.0110 O.2    27  VAL27      -0.2867
     39  CB        36.7490   69.7730    8.1770 C.3    27  VAL27       0.0252
     40  CG1       36.6360   70.4390    6.8320 C.3    27  VAL27       0.0019
     41  CG2       35.3740   69.3590    8.6680 C.3    27  VAL27       0.0019
     42  N         39.3040   69.6830    0.2750 N.3    32  LEU32      -0.1245
     43  CA        37.9530   69.9780   -0.2310 C.3    32  LEU32       0.1561
     44  C         37.8640   71.2860   -1.0140 C.2    32  LEU32       0.2260
     45  O         36.8250   71.5690   -1.6080 O.2    32  LEU32      -0.2867
     46  CB        36.9830   70.0480    0.9380 C.3    32  LEU32       0.0270
     47  CG        36.7700   68.7250    1.6700 C.3    32  LEU32       0.0019
     48  CD1       35.9620   68.9780    2.9370 C.3    32  LEU32       0.0001
     49  CD2       36.0830   67.6630    0.8210 C.3    32  LEU32       0.0001
     50  N         37.8990   74.3190    0.3800 N.3    34  LEU34      -0.1245
     51  CA        37.0530   75.2390    1.1370 C.3    34  LEU34       0.1561
     52  C         37.8980   76.1660    1.9810 C.2    34  LEU34       0.2260
     53  O         37.9850   76.0210    3.2030 O.2    34  LEU34      -0.2867
     54  CB        36.0570   74.4370    1.9950 C.3    34  LEU34       0.0270
     55  CG        35.1220   73.5320    1.1960 C.3    34  LEU34       0.0019
     56  CD1       34.2480   72.7180    2.1500 C.3    34  LEU34       0.0001
     57  CD2       34.2560   74.3400    0.2490 C.3    34  LEU34       0.0001
     58  N         36.7710   77.7960    5.3650 N.3    37  TYR37      -0.1241
     59  CA        36.3750   76.9770    6.5130 C.3    37  TYR37       0.1605
     60  C         37.0140   77.4240    7.8420 C.2    37  TYR37       0.2264
     61  O         36.2940   77.6230    8.8190 O.2    37  TYR37      -0.2867
     62  CB        36.6030   75.4700    6.2610 C.3    37  TYR37       0.0534
     63  CG        35.9860   74.6180    7.3500 C.ar   37  TYR37      -0.0201
     64  CD1       34.6620   74.2580    7.2990 C.ar   37  TYR37      -0.0009
     65  CD2       36.7440   74.1930    8.4200 C.ar   37  TYR37      -0.0009
     66  CE1       34.0900   73.4830    8.2890 C.ar   37  TYR37       0.0417
     67  CE2       36.1850   73.4200    9.4390 C.ar   37  TYR37       0.0417
     68  CZ        34.8560   73.0700    9.3600 C.ar   37  TYR37       0.1957
     69  OH        34.2250   72.3310   10.3480 O.3    37  TYR37      -0.2866
     70  N         29.1210   72.3450   12.0020 N.3    76  CYS76      -0.1235
     71  CA        28.4760   71.9840   10.7640 C.3    76  CYS76       0.1677
     72  C         27.3080   72.9320   10.4720 C.2    76  CYS76       0.2270
     73  O         27.1190   73.3640    9.3220 O.2    76  CYS76      -0.2867
     74  CB        28.0280   70.5350   10.8660 C.3    76  CYS76       0.0956
     75  SG        27.2950   69.8960    9.3500 S.3    76  CYS76      -0.0801
     76  N         28.6030   76.5000    9.4370 N.3    79  TYR79      -0.1227
     77  CA        29.2910   76.6290    8.1480 C.3    79  TYR79       0.1736
     78  C         28.3750   76.3720    6.9600 C.2    79  TYR79       0.2595
     79  O         28.5180   77.0100    5.9180 O.2    79  TYR79      -0.2718
     80  CB        30.4920   75.6670    8.0670 C.3    79  TYR79       0.0548
     81  CG        31.2860   75.8500    6.7910 C.ar   79  TYR79      -0.0200
     82  CD1       32.1210   76.9410    6.6160 C.ar   79  TYR79      -0.0009
     83  CD2       31.1180   74.9790    5.7340 C.ar   79  TYR79      -0.0009
     84  CE1       32.7970   77.1490    5.4110 C.ar   79  TYR79       0.0417
     85  CE2       31.7750   75.1840    4.5290 C.ar   79  TYR79       0.0417
     86  CZ        32.6330   76.2530    4.3880 C.ar   79  TYR79       0.1957
     87  OH        33.2750   76.4420    3.1690 O.3    79  TYR79      -0.2866
     88  N         27.4510   75.4270    7.0940 N.am   80  ASN80      -0.1974
     89  CA        26.6970   74.9080    5.9460 C.3    80  ASN80       0.1688
     90  C         25.2830   75.4140    5.9540 C.2    80  ASN80       0.2292
     91  O         24.7150   75.6580    7.0090 O.2    80  ASN80      -0.2864
     92  CB        26.6380   73.3690    5.9650 C.3    80  ASN80       0.1181
     93  CG        27.9990   72.7360    5.8790 C.2    80  ASN80       0.2629
     94  OD1       28.5570   72.5630    4.7960 O.2    80  ASN80      -0.2716
     95  ND2       28.5570   72.3900    7.0270 N.am   80  ASN80      -0.0877
     96  N         24.6860   67.6150    4.5610 N.3    86  VAL86      -0.1245
     97  CA        25.5440   67.4550    5.7480 C.3    86  VAL86       0.1561
     98  C         24.9350   68.1540    6.9540 C.2    86  VAL86       0.2260
     99  O         25.0270   67.6410    8.0830 O.2    86  VAL86      -0.2867
    100  CB        27.0070   67.8880    5.4720 C.3    86  VAL86       0.0252
    101  CG1       27.1300   69.3840    5.3290 C.3    86  VAL86       0.0019
    102  CG2       27.9140   67.3460    6.5530 C.3    86  VAL86       0.0019
@<TRIPOS>BOND
     1    45    44    2
     2    44    43    1
     3    43    42    1
     4    43    46    1
     5    57    55    1
     6    50    51    1
     7    49    47    1
     8    46    47    1
     9    51    52    1
    10    51    54    1
    11    55    54    1
    12    55    56    1
    13    47    48    1
    14    52    53    2
    15    87    86    1
    16    86    85   ar
    17    86    84   ar
    18    85    83   ar
    19    96    97    1
    20    94    93    2
    21   101   100    1
    22    58    59    1
    23    84    82   ar
    24   100    97    1
    25   100   102    1
    26     9     7   ar
    27    83    81   ar
    28    97    98    1
    29     6     7    1
    30     6     5    1
    31    93    92    1
    32    93    95   am
    33    79    78    2
    34    89    90    1
    35    89    92    1
    36    89    88    1
    37    90    91    2
    38     7     8   ar
    39    62    59    1
    40    62    63    1
    41    59    60    1
    42    82    81   ar
    43     5     2    1
    44    81    80    1
    45    40    39    1
    46    98    99    2
    47    78    88   am
    48    78    77    1
    49    64    63   ar
    50    64    66   ar
    51    14    11    1
    52    63    65   ar
    53    37    38    2
    54    37    36    1
    55    11    10    1
    56    11    12    1
    57    60    61    2
    58    10     3   am
    59    80    77    1
    60     3     2    1
    61     3     4    2
    62    36    39    1
    63    36    35    1
    64     2     1    1
    65    77    76    1
    66    39    41    1
    67    66    68   ar
    68    65    67   ar
    69    13    12    2
    70    12    15   am
    71    73    72    2
    72    75    74    1
    73    68    67   ar
    74    68    69    1
    75    30    31    1
    76    30    27    1
    77    31    32    1
    78    15    16    1
    79    25    24   ar
    80    25    23   ar
    81    29    28    2
    82    72    71    1
    83    24    22   ar
    84    23    21   ar
    85    71    74    1
    86    71    70    1
    87    28    27    1
    88    32    33   ar
    89    32    34   ar
    90    27    26    1
    91    22    20   ar
    92    21    20   ar
    93    16    17    1
    94    16    19    1
    95    20    19    1
    96    17    18    2
