@<TRIPOS>MOLECULE
tmp/6cw8B00.pdb
 154 151 0 0 0
SMALL
GASTEIGER

@<TRIPOS>ATOM
      1  N         12.4700  -30.2820   36.6280 N.3    22  HIS22      -0.1227
      2  CA        13.6080  -31.1690   36.4670 C.3    22  HIS22       0.1737
      3  C         13.2390  -32.5670   36.9610 C.2    22  HIS22       0.2438
      4  O         12.5360  -32.7030   37.9700 O.2    22  HIS22      -0.2733
      5  CB        14.8160  -30.6280   37.2300 C.3    22  HIS22       0.0758
      6  CG        16.0510  -31.4310   37.0140 C.ar   22  HIS22       0.0818
      7  ND1       16.2510  -32.6550   37.6140 N.ar   22  HIS22      -0.2268
      8  CD2       17.1360  -31.2080   36.2350 C.ar   22  HIS22       0.1154
      9  CE1       17.4170  -33.1440   37.2280 C.ar   22  HIS22       0.1986
     10  NE2       17.9700  -32.2890   36.3850 N.ar   22  HIS22      -0.2212
     11  N         13.6740  -33.6280   36.2710 N.am   23  PRO23      -0.2729
     12  CA        13.1110  -34.9650   36.5450 C.3    23  PRO23       0.1401
     13  C         13.4490  -35.5430   37.9130 C.2    23  PRO23       0.2269
     14  O         12.7260  -36.4410   38.3640 O.2    23  PRO23      -0.2865
     15  CB        13.6990  -35.8340   35.4190 C.3    23  PRO23       0.0296
     16  CG        14.0740  -34.8780   34.3530 C.3    23  PRO23       0.0237
     17  CD        14.4700  -33.6060   35.0300 C.3    23  PRO23       0.0939
     18  N         29.8820  -28.1250   39.7480 N.3    88  TYR88      -0.1227
     19  CA        29.7470  -29.5690   39.6280 C.3    88  TYR88       0.1736
     20  C         29.1410  -29.9010   38.2730 C.2    88  TYR88       0.2595
     21  O         28.5050  -29.0590   37.6380 O.2    88  TYR88      -0.2718
     22  CB        28.8560  -30.1470   40.7520 C.3    88  TYR88       0.0548
     23  CG        29.3560  -29.7670   42.1230 C.ar   88  TYR88      -0.0200
     24  CD1       28.8080  -28.6900   42.8250 C.ar   88  TYR88      -0.0009
     25  CD2       30.4250  -30.4460   42.6900 C.ar   88  TYR88      -0.0009
     26  CE1       29.3060  -28.3310   44.0820 C.ar   88  TYR88       0.0417
     27  CE2       30.9130  -30.1090   43.9300 C.ar   88  TYR88       0.0417
     28  CZ        30.3590  -29.0510   44.6230 C.ar   88  TYR88       0.1957
     29  OH        30.8970  -28.7330   45.8490 O.3    88  TYR88      -0.2866
     30  N         29.3360  -31.1450   37.8380 N.am   89  ASN89      -0.1960
     31  CA        28.6660  -31.6540   36.6470 C.3    89  ASN89       0.1819
     32  C         27.2940  -32.1760   37.0640 C.2    89  ASN89       0.2622
     33  O         27.2050  -33.1040   37.8750 O.2    89  ASN89      -0.2715
     34  CB        29.5070  -32.7470   35.9750 C.3    89  ASN89       0.1195
     35  CG        28.7830  -33.4340   34.8070 C.2    89  ASN89       0.2630
     36  OD1       29.0430  -34.6050   34.5080 O.2    89  ASN89      -0.2716
     37  ND2       27.8940  -32.7020   34.1300 N.am   89  ASN89      -0.0877
     38  N         26.2290  -31.5320   36.5590 N.am   90  SER90      -0.1950
     39  CA        24.8490  -32.0360   36.6540 C.3    90  SER90       0.1924
     40  C         24.3190  -32.0270   38.0940 C.2    90  SER90       0.2314
     41  O         23.8160  -33.0330   38.5980 O.2    90  SER90      -0.2863
     42  CB        24.7410  -33.4420   36.0420 C.3    90  SER90       0.2116
     43  OG        23.3820  -33.8660   35.9730 O.3    90  SER90      -0.2180
     44  N         19.9270  -39.2190   45.1160 N.3   130  PRO130     -0.2116
     45  CA        20.6740  -40.4720   44.9390 C.3   130  PRO130      0.1372
     46  C         22.1430  -40.3290   45.3070 C.2   130  PRO130      0.2244
     47  O         22.6060  -39.2440   45.6740 O.2   130  PRO130     -0.2868
     48  CB        20.4940  -40.7810   43.4440 C.3   130  PRO130      0.0268
     49  CG        20.3170  -39.4380   42.8170 C.3   130  PRO130      0.0207
     50  CD        19.5050  -38.6400   43.8300 C.3   130  PRO130      0.0892
     51  N         25.0260  -42.6490   43.7110 N.3   132  HIS132     -0.1226
     52  CA        26.1120  -43.4380   43.1300 C.3   132  HIS132      0.1752
     53  C         27.0360  -42.6590   42.1910 C.2   132  HIS132      0.2596
     54  O         28.1320  -43.1520   41.9010 O.2   132  HIS132     -0.2718
     55  CB        25.5650  -44.7020   42.4330 C.3   132  HIS132      0.0759
     56  CG        24.7540  -44.4450   41.2000 C.ar  132  HIS132      0.0818
     57  ND1       24.6110  -45.3930   40.2060 N.ar  132  HIS132     -0.2268
     58  CD2       24.0170  -43.3780   40.8110 C.ar  132  HIS132      0.1154
     59  CE1       23.8410  -44.9090   39.2470 C.ar  132  HIS132      0.1986
     60  NE2       23.4630  -43.6890   39.5900 N.ar  132  HIS132     -0.2212
     61  N         26.6650  -41.4620   41.7330 N.am  133  HIS133     -0.1975
     62  CA        27.6080  -40.6580   40.9520 C.3   133  HIS133      0.1656
     63  C         28.5550  -39.8450   41.8260 C.2   133  HIS133      0.2291
     64  O         29.5190  -39.2630   41.3040 O.2   133  HIS133     -0.2864
     65  CB        26.8620  -39.7030   40.0110 C.3   133  HIS133      0.0771
     66  CG        26.0750  -40.4020   38.9520 C.ar  133  HIS133      0.0820
     67  ND1       26.6430  -41.3200   38.0920 N.ar  133  HIS133     -0.2267
     68  CD2       24.7640  -40.3280   38.6170 C.ar  133  HIS133      0.1154
     69  CE1       25.7130  -41.7790   37.2710 C.ar  133  HIS133      0.1986
     70  NE2       24.5640  -41.2020   37.5760 N.ar  133  HIS133     -0.2212
     71  N         25.9820  -35.5030   39.0590 N.3   141  GLY141     -0.1210
     72  CA        24.8140  -36.2140   38.5630 C.3   141  GLY141      0.1956
     73  C         23.6730  -36.4070   39.5450 C.2   141  GLY141      0.2611
     74  O         23.1840  -37.5310   39.7160 O.2   141  GLY141     -0.2717
     75  N         23.2510  -35.3170   40.1920 N.am  142  PHE142     -0.1976
     76  CA        22.1710  -35.2490   41.1830 C.3   142  PHE142      0.1639
     77  C         22.5520  -35.8730   42.5220 C.2   142  PHE142      0.2290
     78  O         21.6990  -35.9530   43.4130 O.2   142  PHE142     -0.2864
     79  CB        20.8640  -35.9020   40.6990 C.3   142  PHE142      0.0560
     80  CG        20.5270  -35.6070   39.2590 C.ar  142  PHE142     -0.0200
     81  CD1       19.9030  -36.5570   38.4740 C.ar  142  PHE142     -0.0042
     82  CD2       20.8340  -34.3790   38.6970 C.ar  142  PHE142     -0.0042
     83  CE1       19.6040  -36.2820   37.1420 C.ar  142  PHE142     -0.0003
     84  CE2       20.5450  -34.1070   37.3740 C.ar  142  PHE142     -0.0003
     85  CZ        19.9420  -35.0560   36.5960 C.ar  142  PHE142     -0.0000
     86  N         20.8000  -49.3210   38.2690 N.3   171  ASP171     -0.1239
     87  CA        20.5160  -48.0240   37.6660 C.3   171  ASP171      0.1674
     88  C         21.0370  -48.0200   36.2300 C.2   171  ASP171      0.2266
     89  O         22.0680  -48.6250   35.9330 O.2   171  ASP171     -0.2867
     90  CB        21.1920  -46.9290   38.5150 C.3   171  ASP171      0.1410
     91  CG        20.7680  -45.5130   38.1370 C.2   171  ASP171      0.3668
     92  OD1       21.2450  -44.9830   37.1160 O.co2 171  ASP171     -0.2456
     93  OD2       19.9770  -44.9140   38.8910 O.co2 171  ASP171     -0.2456
     94  N         22.4880  -45.8960   34.6270 N.3   173  HIS173     -0.1241
     95  CA        23.7380  -45.1500   34.5190 C.3   173  HIS173      0.1621
     96  C         24.8490  -45.8510   35.2880 C.2   173  HIS173      0.2264
     97  O         24.6050  -46.5170   36.2960 O.2   173  HIS173     -0.2867
     98  CB        23.5590  -43.7280   35.0590 C.3   173  HIS173      0.0745
     99  CG        22.5430  -42.9260   34.3040 C.ar  173  HIS173      0.0817
    100  ND1       21.2710  -42.6880   34.7790 N.ar  173  HIS173     -0.2268
    101  CD2       22.6090  -42.3230   33.0910 C.ar  173  HIS173      0.1154
    102  CE1       20.5980  -41.9700   33.8970 C.ar  173  HIS173      0.1986
    103  NE2       21.3860  -41.7370   32.8600 N.ar  173  HIS173     -0.2212
    104  N         25.5080  -40.6770   29.7020 N.3   202  PHE202     -0.1241
    105  CA        25.9450  -40.1730   30.9970 C.3   202  PHE202      0.1605
    106  C         26.3530  -41.3440   31.8920 C.2   202  PHE202      0.2264
    107  O         25.6470  -42.3570   31.9400 O.2   202  PHE202     -0.2867
    108  CB        24.8400  -39.3470   31.6710 C.3   202  PHE202      0.0534
    109  CG        25.3010  -38.6240   32.9130 C.ar  202  PHE202     -0.0203
    110  CD1       25.2500  -39.2470   34.1560 C.ar  202  PHE202     -0.0042
    111  CD2       25.8070  -37.3380   32.8360 C.ar  202  PHE202     -0.0042
    112  CE1       25.6970  -38.5980   35.2980 C.ar  202  PHE202     -0.0003
    113  CE2       26.2530  -36.6810   33.9700 C.ar  202  PHE202     -0.0003
    114  CZ        26.1940  -37.3130   35.2110 C.ar  202  PHE202     -0.0000
    115  N         29.3980  -40.4300   30.7160 N.3   204  ASN204     -0.1240
    116  CA        30.2200  -40.0010   29.5870 C.3   204  ASN204      0.1653
    117  C         31.6920  -40.3740   29.7290 C.2   204  ASN204      0.2266
    118  O         32.5600  -39.6610   29.2220 O.2   204  ASN204     -0.2867
    119  CB        30.0910  -38.4890   29.3670 C.3   204  ASN204      0.1155
    120  CG        28.6510  -38.0390   29.3280 C.2   204  ASN204      0.2627
    121  OD1       28.1480  -37.4320   30.2770 O.2   204  ASN204     -0.2716
    122  ND2       27.9650  -38.3600   28.2410 N.am  204  ASN204     -0.0877
    123  N         15.6600  -46.2280   36.4680 N.3   264  ASP264     -0.1239
    124  CA        15.6390  -45.5210   35.1980 C.3   264  ASP264      0.1674
    125  C         15.9670  -46.4180   34.0070 C.2   264  ASP264      0.2266
    126  O         15.9530  -45.9420   32.8690 O.2   264  ASP264     -0.2867
    127  CB        16.5770  -44.3010   35.2300 C.3   264  ASP264      0.1410
    128  CG        17.9190  -44.5810   35.8870 C.2   264  ASP264      0.3668
    129  OD1       18.2430  -45.7440   36.2280 O.co2 264  ASP264     -0.2456
    130  OD2       18.6650  -43.5930   36.0620 O.co2 264  ASP264     -0.2456
    131  N         14.5100  -40.8870   30.5960 N.3   271  LEU271     -0.1245
    132  CA        15.9430  -40.6660   30.4380 C.3   271  LEU271      0.1561
    133  C         16.7080  -41.9170   30.0430 C.2   271  LEU271      0.2260
    134  O         17.7480  -41.8070   29.3930 O.2   271  LEU271     -0.2867
    135  CB        16.5480  -40.1070   31.7350 C.3   271  LEU271      0.0270
    136  CG        16.0420  -38.7150   32.1300 C.3   271  LEU271      0.0019
    137  CD1       16.7880  -38.1740   33.3470 C.3   271  LEU271      0.0001
    138  CD2       16.1670  -37.7570   30.9610 C.3   271  LEU271      0.0001
    139  N         18.4290  -43.5900   40.9250 N.3   302  GLY302     -0.1225
    140  CA        17.6780  -42.8590   39.9210 C.3   302  GLY302      0.1811
    141  C         16.3360  -43.5140   39.6060 C.2   302  GLY302      0.2280
    142  O         15.8410  -44.3850   40.3250 O.2   302  GLY302     -0.2866
    143  N         12.8910  -42.0570   36.8710 N.3   304  TYR304     -0.1241
    144  CA        12.2380  -40.7680   36.6620 C.3   304  TYR304      0.1605
    145  C         10.8100  -40.8270   36.1340 C.2   304  TYR304      0.2264
    146  O         10.1740  -39.7730   36.0170 O.2   304  TYR304     -0.2867
    147  CB        13.1130  -39.9120   35.7310 C.3   304  TYR304      0.0534
    148  CG        14.4800  -39.8200   36.3420 C.ar  304  TYR304     -0.0201
    149  CD1       14.6910  -39.0350   37.4720 C.ar  304  TYR304     -0.0009
    150  CD2       15.5340  -40.6040   35.8740 C.ar  304  TYR304     -0.0009
    151  CE1       15.9260  -38.9780   38.0850 C.ar  304  TYR304      0.0417
    152  CE2       16.7730  -40.5630   36.4840 C.ar  304  TYR304      0.0417
    153  CZ        16.9630  -39.7430   37.5860 C.ar  304  TYR304      0.1957
    154  OH        18.1850  -39.6870   38.2090 O.3   304  TYR304     -0.2866
@<TRIPOS>BOND
     1   122   120   am
     2   118   117    2
     3   120   119    1
     4   120   121    2
     5   119   116    1
     6   134   133    2
     7   116   117    1
     8   116   115    1
     9   104   105    1
    10   133   132    1
    11   132   131    1
    12   132   135    1
    13   138   136    1
    14   105   108    1
    15   105   106    1
    16   108   109    1
    17   135   136    1
    18   106   107    2
    19   136   137    1
    20   111   109   ar
    21   111   113   ar
    22   103   101   ar
    23   103   102   ar
    24   126   125    2
    25   109   110   ar
    26   101    99   ar
    27   102   100   ar
    28   113   114   ar
    29   125   124    1
    30    37    35   am
    31   110   112   ar
    32    99   100   ar
    33    99    98    1
    34    16    17    1
    35    16    15    1
    36    36    35    2
    37    95    94    1
    38    95    98    1
    39    95    96    1
    40    35    34    1
    41    17    11    1
    42   124   127    1
    43   124   123    1
    44   114   112   ar
    45   127   128    1
    46    96    97    2
    47    15    12    1
    48   147   148    1
    49   147   144    1
    50   150   148   ar
    51   150   152   ar
    52   128   130   ar
    53   128   129   ar
    54    89    88    2
    55    43    42    1
    56    34    31    1
    57   146   145    2
    58    42    39    1
    59   145   144    1
    60    88    87    1
    61     8    10   ar
    62     8     6   ar
    63    11    12    1
    64    11     3   am
    65   148   149   ar
    66    10     9   ar
    67     2     1    1
    68     2     3    1
    69     2     5    1
    70   152   153   ar
    71    12    13    1
    72    38    39    1
    73    38    32   am
    74    85    83   ar
    75    85    84   ar
    76    31    32    1
    77    31    30    1
    78    39    40    1
    79   144   143    1
    80     3     4    2
    81     6     5    1
    82     6     7   ar
    83    32    33    2
    84    92    91   ar
    85    83    81   ar
    86     9     7   ar
    87    69    70   ar
    88    69    67   ar
    89    84    82   ar
    90   149   151   ar
    91    70    68   ar
    92   153   151   ar
    93   153   154    1
    94    21    20    2
    95    87    86    1
    96    87    90    1
    97    30    20   am
    98    13    14    2
    99    67    66   ar
   100    40    41    2
   101    91    90    1
   102    91    93   ar
   103    20    19    1
   104    81    80   ar
   105    72    71    1
   106    72    73    1
   107    68    66   ar
   108    82    80   ar
   109    66    65    1
   110    59    60   ar
   111    59    57   ar
   112    80    79    1
   113    73    74    2
   114    73    75   am
   115    60    58   ar
   116   141   140    1
   117   141   142    2
   118    19    18    1
   119    19    22    1
   120   140   139    1
   121    65    62    1
   122    75    76    1
   123    57    56   ar
   124    79    76    1
   125    22    23    1
   126    58    56   ar
   127    62    61    1
   128    62    63    1
   129    76    77    1
   130    56    55    1
   131    64    63    2
   132    61    53   am
   133    54    53    2
   134    23    25   ar
   135    23    24   ar
   136    53    52    1
   137    55    52    1
   138    77    78    2
   139    25    27   ar
   140    49    48    1
   141    49    50    1
   142    24    26   ar
   143    52    51    1
   144    48    45    1
   145    50    44    1
   146    27    28   ar
   147    26    28   ar
   148    28    29    1
   149    45    44    1
   150    45    46    1
   151    46    47    2
