@<TRIPOS>MOLECULE
tmp/6cwlB00.pdb
 107 103 0 0 0
SMALL
GASTEIGER

@<TRIPOS>ATOM
      1  N         43.3960  -16.2550  -15.0190 N.3    30  ARG30      -0.1245
      2  CA        44.7530  -16.3770  -15.4830 C.3    30  ARG30       0.1563
      3  C         44.9480  -17.6640  -16.3510 C.2    30  ARG30       0.2260
      4  O         45.7440  -17.6390  -17.2610 O.2    30  ARG30      -0.2867
      5  CB        45.7280  -16.2920  -14.3570 C.3    30  ARG30       0.0307
      6  CG        45.7120  -14.9500  -13.6280 C.3    30  ARG30       0.0489
      7  CD        46.2650  -15.0620  -12.1960 C.3    30  ARG30       0.2205
      8  NE        47.5750  -15.7550  -12.1290 N.pl3  30  ARG30      -0.0865
      9  CZ        48.7410  -15.1920  -12.4520 C.cat  30  ARG30       0.5346
     10  NH1       48.7980  -13.9750  -12.9600 N.pl3  30  ARG30       0.1354
     11  NH2       49.8440  -15.8900  -12.3640 N.pl3  30  ARG30       0.1354
     12  N         55.1610  -15.7840  -17.8680 N.3    76  MET76      -0.1230
     13  CA        54.5240  -15.8070  -16.5620 C.3    76  MET76       0.1702
     14  C         55.2200  -16.7810  -15.6400 C.2    76  MET76       0.2592
     15  O         55.6380  -17.8680  -16.0890 O.2    76  MET76      -0.2718
     16  CB        53.0560  -16.2200  -16.7030 C.3    76  MET76       0.0401
     17  CG        52.1980  -15.3870  -17.6930 C.3    76  MET76       0.0596
     18  SD        50.4700  -15.9300  -17.6940 S.3    76  MET76      -0.1393
     19  CE        49.9210  -15.1940  -16.1190 C.3    76  MET76       0.0692
     20  N         55.3510  -16.4110  -14.3610 N.am   77  GLN77      -0.1966
     21  CA        56.0590  -17.2120  -13.3610 C.3    77  GLN77       0.1733
     22  C         55.1850  -17.6480  -12.1730 C.2    77  GLN77       0.2617
     23  O         55.6430  -18.3740  -11.2980 O.2    77  GLN77      -0.2715
     24  CB        57.2640  -16.3990  -12.8110 C.3    77  GLN77       0.0408
     25  CG        58.5000  -16.3160  -13.7110 C.3    77  GLN77       0.0908
     26  CD        58.3560  -15.3720  -14.8990 C.2    77  GLN77       0.2608
     27  OE1       57.7170  -14.3350  -14.8020 O.2    77  GLN77      -0.2717
     28  NE2       58.9710  -15.7250  -16.0340 N.am   77  GLN77      -0.0878
     29  N         53.9260  -17.2360  -12.1470 N.am   78  GLY78      -0.1940
     30  CA        53.0800  -17.4990  -10.9910 C.3    78  GLY78       0.2014
     31  C         53.3150  -16.5020   -9.8570 C.2    78  GLY78       0.2639
     32  O         54.0210  -15.4850  -10.0130 O.2    78  GLY78      -0.2714
     33  N         52.7250  -16.8060   -8.7090 N.am   79  LYS79      -0.1963
     34  CA        52.5780  -15.8230   -7.6300 C.3    79  LYS79       0.1728
     35  C         53.4080  -16.0890   -6.3800 C.2    79  LYS79       0.2616
     36  O         53.5890  -15.1770   -5.5900 O.2    79  LYS79      -0.2715
     37  CB        51.1230  -15.7280   -7.2040 C.3    79  LYS79       0.0311
     38  CG        50.2430  -15.1730   -8.2880 C.3    79  LYS79       0.0038
     39  CD        48.8990  -14.7580   -7.7310 C.3    79  LYS79       0.0206
     40  CE        48.2350  -13.7460   -8.6340 C.3    79  LYS79       0.1093
     41  NZ        46.8030  -13.7880   -8.2910 N.3    79  LYS79      -0.1314
     42  N         53.8750  -17.3310   -6.2110 N.am   80  ASP80      -0.1957
     43  CA        54.6740  -17.7180   -5.0670 C.3    80  ASP80       0.1840
     44  C         55.6710  -18.8400   -5.4800 C.2    80  ASP80       0.2621
     45  O         55.2630  -19.9820   -5.6420 O.2    80  ASP80      -0.2715
     46  CB        53.6970  -18.2220   -4.0130 C.3    80  ASP80       0.1450
     47  CG        54.3480  -18.5720   -2.7030 C.2    80  ASP80       0.3671
     48  OD1       55.4850  -19.0650   -2.7000 O.co2  80  ASP80      -0.2456
     49  OD2       53.6900  -18.4090   -1.6610 O.co2  80  ASP80      -0.2456
     50  N         56.9530  -18.5080   -5.6580 N.am   81  LEU81      -0.1977
     51  CA        57.9310  -19.4750   -6.1310 C.3    81  LEU81       0.1596
     52  C         58.0690  -20.5850   -5.0790 C.2    81  LEU81       0.2287
     53  O         58.0380  -21.7420   -5.4230 O.2    81  LEU81      -0.2864
     54  CB        59.2790  -18.7890   -6.4220 C.3    81  LEU81       0.0297
     55  CG        59.2180  -17.5390   -7.3280 C.3    81  LEU81       0.0022
     56  CD1       60.5810  -16.8690   -7.4200 C.3    81  LEU81       0.0001
     57  CD2       58.6970  -17.8980   -8.7260 C.3    81  LEU81       0.0001
     58  N         48.1030   -4.9100  -14.8490 N.3    95  GLU95      -0.1231
     59  CA        49.5300   -4.9230  -14.6870 C.3    95  GLU95       0.1699
     60  C         50.1400   -6.3240  -15.0990 C.2    95  GLU95       0.2592
     61  O         51.1930   -6.3970  -15.7100 O.2    95  GLU95      -0.2718
     62  CB        49.8340   -4.5990  -13.2220 C.3    95  GLU95       0.0402
     63  CG        51.2720   -4.7800  -12.7910 C.3    95  GLU95       0.1161
     64  CD        52.3050   -4.1820  -13.7780 C.2    95  GLU95       0.3649
     65  OE1       52.1410   -3.0290  -14.1990 O.co2  95  GLU95      -0.2457
     66  OE2       53.2720   -4.8960  -14.1780 O.co2  95  GLU95      -0.2457
     67  N         49.4630   -7.4060  -14.7160 N.am   96  GLU96      -0.1979
     68  CA        49.9340   -8.7650  -15.0100 C.3    96  GLU96       0.1602
     69  C         49.8830   -8.9990  -16.5250 C.2    96  GLU96       0.2287
     70  O         50.8210   -9.5190  -17.1310 O.2    96  GLU96      -0.2864
     71  CB        49.0830   -9.8010  -14.2720 C.3    96  GLU96       0.0415
     72  CG        49.3350   -9.9680  -12.7640 C.3    96  GLU96       0.1163
     73  CD        48.2820  -10.8910  -12.1170 C.2    96  GLU96       0.3649
     74  OE1       47.4240  -11.4050  -12.8560 O.co2  96  GLU96      -0.2457
     75  OE2       48.2260  -11.0450  -10.8770 O.co2  96  GLU96      -0.2457
     76  N         52.7320   -7.1190  -18.2360 N.3    99  LYS99      -0.1231
     77  CA        54.0180   -7.8200  -18.1490 C.3    99  LYS99       0.1693
     78  C         54.1500   -8.8680  -19.2500 C.2    99  LYS99       0.2592
     79  O         55.1530   -8.9200  -19.9450 O.2    99  LYS99      -0.2718
     80  CB        54.1510   -8.4840  -16.8020 C.3    99  LYS99       0.0285
     81  CG        55.5000   -9.1260  -16.5270 C.3    99  LYS99       0.0035
     82  CD        55.2560  -10.4490  -15.8040 C.3    99  LYS99       0.0206
     83  CE        56.4830  -11.2690  -15.4400 C.3    99  LYS99       0.1093
     84  NZ        56.1290  -12.3530  -14.4610 N.3    99  LYS99      -0.1314
     85  N         53.1010   -9.6560  -19.4380 N.am  100  THR100     -0.1953
     86  CA        53.1690  -10.7640  -20.3670 C.3   100  THR100      0.1897
     87  C         53.2790  -10.3270  -21.8060 C.2   100  THR100      0.2313
     88  O         54.0190  -10.9180  -22.5930 O.2   100  THR100     -0.2863
     89  CB        51.9540  -11.6840  -20.2640 C.3   100  THR100      0.1794
     90  OG1       50.7740  -10.9910  -20.7020 O.3   100  THR100     -0.2208
     91  CG2       51.8140  -12.1850  -18.8460 C.3   100  THR100      0.0378
     92  N         57.0710   -0.7610  -13.7890 N.3   108  GLY108     -0.1210
     93  CA        58.0140   -1.2080  -14.8270 C.3   108  GLY108      0.1956
     94  C         57.3850   -1.6500  -16.1450 C.2   108  GLY108      0.2611
     95  O         57.8590   -1.2880  -17.2200 O.2   108  GLY108     -0.2717
     96  N         56.3280   -2.4530  -16.0750 N.am  109  TYR109     -0.1976
     97  CA        55.6890   -3.0320  -17.2830 C.3   109  TYR109      0.1639
     98  C         54.4160   -2.3080  -17.7330 C.2   109  TYR109      0.2290
     99  O         54.1580   -2.1800  -18.9390 O.2   109  TYR109     -0.2864
    100  CB        55.4250   -4.5230  -17.0280 C.3   109  TYR109      0.0560
    101  CG        56.6740   -5.3610  -17.1020 C.ar  109  TYR109     -0.0198
    102  CD1       57.1940   -5.7650  -18.3290 C.ar  109  TYR109     -0.0009
    103  CD2       57.3600   -5.7270  -15.9490 C.ar  109  TYR109     -0.0009
    104  CE1       58.3540   -6.5320  -18.4080 C.ar  109  TYR109      0.0417
    105  CE2       58.5230   -6.4830  -16.0160 C.ar  109  TYR109      0.0417
    106  CZ        59.0100   -6.8820  -17.2450 C.ar  109  TYR109      0.1957
    107  OH        60.1570   -7.6150  -17.2950 O.3   109  TYR109     -0.2866
@<TRIPOS>BOND
     1    88    87    2
     2    87    86    1
     3    90    89    1
     4    86    89    1
     5    86    85    1
     6    89    91    1
     7    79    78    2
     8    85    78   am
     9    78    77    1
    10    99    98    2
    11   104   102   ar
    12   104   106   ar
    13   102   101   ar
    14    76    77    1
    15    77    80    1
    16    12    13    1
    17    98    97    1
    18    18    17    1
    19    18    19    1
    20    17    16    1
    21   107   106    1
    22    97   100    1
    23    97    96    1
    24     4     3    2
    25   106   105   ar
    26    95    94    2
    27    70    69    2
    28   101   100    1
    29   101   103   ar
    30    80    81    1
    31    16    13    1
    32    13    14    1
    33    81    82    1
    34    69    68    1
    35     3     2    1
    36    94    96   am
    37    94    93    1
    38    15    14    2
    39    28    26   am
    40   105   103   ar
    41    82    83    1
    42    61    60    2
    43    14    20   am
    44     2     1    1
    45     2     5    1
    46    83    84    1
    47    60    67   am
    48    60    59    1
    49    68    67    1
    50    68    71    1
    51    26    27    2
    52    26    25    1
    53    58    59    1
    54    93    92    1
    55    59    62    1
    56    20    21    1
    57     5     6    1
    58    71    72    1
    59    65    64   ar
    60    66    64   ar
    61    64    63    1
    62    25    24    1
    63     6     7    1
    64    21    24    1
    65    21    22    1
    66    62    63    1
    67    10     9    1
    68    74    73   ar
    69    72    73    1
    70     9    11    1
    71     9     8    2
    72     7     8    1
    73    22    29   am
    74    22    23    2
    75    29    30    1
    76    73    75   ar
    77    30    31    1
    78    32    31    2
    79    31    33   am
    80    57    55    1
    81    33    34    1
    82    40    41    1
    83    40    39    1
    84    38    39    1
    85    38    37    1
    86    34    37    1
    87    34    35    1
    88    56    55    1
    89    55    54    1
    90    54    51    1
    91    35    42   am
    92    35    36    2
    93    42    43    1
    94    51    50    1
    95    51    52    1
    96    50    44   am
    97    45    44    2
    98    44    43    1
    99    53    52    2
   100    43    46    1
   101    46    47    1
   102    47    48   ar
   103    47    49   ar
