@<TRIPOS>MOLECULE
tmp/6cwnA00.pdb
 109 108 0 0 0
SMALL
GASTEIGER

@<TRIPOS>ATOM
      1  N        -19.0640   -3.2740   18.3020 N.3    17  PHE17      -0.1227
      2  CA       -18.5530   -4.5780   18.4800 C.3    17  PHE17       0.1736
      3  C        -19.6020   -5.5610   18.9540 C.2    17  PHE17       0.2596
      4  O        -20.5850   -5.1530   19.5500 O.2    17  PHE17      -0.2718
      5  CB       -17.3310   -4.6030   19.4880 C.3    17  PHE17       0.0547
      6  CG       -16.0340   -4.0990   18.9050 C.ar   17  PHE17      -0.0202
      7  CD1      -15.7720   -2.7310   18.7350 C.ar   17  PHE17      -0.0042
      8  CD2      -15.0890   -5.0120   18.4760 C.ar   17  PHE17      -0.0042
      9  CE1      -14.5610   -2.2950   18.1920 C.ar   17  PHE17      -0.0003
     10  CE2      -13.8790   -4.5490   17.9300 C.ar   17  PHE17      -0.0003
     11  CZ       -13.6600   -3.2120   17.8030 C.ar   17  PHE17      -0.0000
     12  N        -19.3170   -6.8360   18.7620 N.am   18  SER18      -0.1938
     13  CA       -20.1830   -7.9370   19.2390 C.3    18  SER18       0.2055
     14  C        -19.4340   -9.0820   19.8970 C.2    18  SER18       0.2644
     15  O        -20.0610   -9.9070   20.5640 O.2    18  SER18      -0.2714
     16  CB       -21.0680   -8.4510   18.1330 C.3    18  SER18       0.2130
     17  OG       -20.2740   -9.1980   17.2750 O.3    18  SER18      -0.2179
     18  N        -18.0780   -9.0780   19.8320 N.am   19  GLY19      -0.1939
     19  CA       -17.3080  -10.2190   20.1910 C.3    19  GLY19       0.2014
     20  C        -17.5670  -11.4470   19.3180 C.2    19  GLY19       0.2639
     21  O        -18.0350  -11.3240   18.1690 O.2    19  GLY19      -0.2714
     22  N        -17.1630  -12.6010   19.8310 N.am   20  TYR20      -0.1960
     23  CA       -17.2320  -13.9050   19.1480 C.3    20  TYR20       0.1756
     24  C        -18.4190  -14.6820   19.6260 C.2    20  TYR20       0.2461
     25  O        -18.8380  -14.5650   20.8160 O.2    20  TYR20      -0.2730
     26  CB       -15.9490  -14.6980   19.2940 C.3    20  TYR20       0.0574
     27  CG       -14.7310  -14.0020   18.7050 C.ar   20  TYR20      -0.0198
     28  CD1      -13.9790  -13.0890   19.4580 C.ar   20  TYR20      -0.0009
     29  CD2      -14.3250  -14.2710   17.3910 C.ar   20  TYR20      -0.0009
     30  CE1      -12.8950  -12.4630   18.8760 C.ar   20  TYR20       0.0417
     31  CE2      -13.2400  -13.6680   16.8230 C.ar   20  TYR20       0.0417
     32  CZ       -12.5430  -12.7690   17.5590 C.ar   20  TYR20       0.1957
     33  OH       -11.4810  -12.1130   16.9700 O.3    20  TYR20      -0.2866
     34  N        -18.9960  -15.5120   18.7350 N.am   21  PRO21      -0.2727
     35  CA       -20.1110  -16.3200   19.1710 C.3    21  PRO21       0.1402
     36  C        -19.7610  -17.2840   20.2880 C.2    21  PRO21       0.2269
     37  O        -18.7130  -17.9000   20.2960 O.2    21  PRO21      -0.2865
     38  CB       -20.4770  -17.1090   17.9350 C.3    21  PRO21       0.0296
     39  CG       -19.8430  -16.4350   16.7900 C.3    21  PRO21       0.0237
     40  CD       -18.6920  -15.6550   17.3070 C.3    21  PRO21       0.0939
     41  N         -6.0920   -8.1840   14.7120 N.3    32  MET32      -0.1245
     42  CA        -7.4030   -8.0660   14.0150 C.3    32  MET32       0.1570
     43  C         -7.2980   -8.5460   12.5760 C.2    32  MET32       0.2261
     44  O         -6.2840   -8.3300   11.9100 O.2    32  MET32      -0.2867
     45  CB        -7.9740   -6.6350   14.0600 C.3    32  MET32       0.0387
     46  CG        -9.4190   -6.5750   13.5950 C.3    32  MET32       0.0595
     47  SD       -10.3190   -5.0010   13.8070 S.3    32  MET32      -0.1393
     48  CE       -10.9680   -5.1840   15.4610 C.3    32  MET32       0.0692
     49  N        -12.7810   -8.5570   10.2140 N.3    36  GLU36      -0.1245
     50  CA       -13.2240   -7.9040   11.4510 C.3    36  GLU36       0.1567
     51  C        -13.1460   -6.3900   11.3180 C.2    36  GLU36       0.2260
     52  O        -14.0570   -5.6400   11.7600 O.2    36  GLU36      -0.2867
     53  CB       -12.3460   -8.3730   12.6160 C.3    36  GLU36       0.0388
     54  CG       -12.6010   -9.8230   13.0190 C.3    36  GLU36       0.1160
     55  CD       -11.6330  -10.4560   14.0030 C.2    36  GLU36       0.3649
     56  OE1      -10.6210   -9.7970   14.3370 O.co2  36  GLU36      -0.2457
     57  OE2      -11.9390  -11.6090   14.3880 O.co2  36  GLU36      -0.2457
     58  N        -16.1180   -5.0970    9.3300 N.3    39  LYS39      -0.1231
     59  CA       -17.3220   -5.0200   10.1740 C.3    39  LYS39       0.1693
     60  C        -17.3030   -3.7340   11.0160 C.2    39  LYS39       0.2591
     61  O        -18.3120   -2.9720   11.1050 O.2    39  LYS39      -0.2718
     62  CB       -17.4590   -6.2740   11.0080 C.3    39  LYS39       0.0285
     63  CG       -18.7900   -6.5000   11.6940 C.3    39  LYS39       0.0035
     64  CD       -19.1530   -5.5800   12.7360 C.3    39  LYS39       0.0206
     65  CE       -18.4330   -5.7830   14.0070 C.3    39  LYS39       0.1093
     66  NZ       -19.1450   -6.7000   15.0330 N.3    39  LYS39      -0.1314
     67  N        -16.1890   -3.4670   11.7100 N.am   40  VAL40      -0.1980
     68  CA       -16.1130   -2.3420   12.5990 C.3    40  VAL40       0.1595
     69  C        -16.2930   -1.0500   11.7770 C.2    40  VAL40       0.2287
     70  O        -16.9950   -0.1330   12.2050 O.2    40  VAL40      -0.2864
     71  CB       -14.7550   -2.3610   13.3630 C.3    40  VAL40       0.0276
     72  CG1      -14.5710   -1.0500   14.1490 C.3    40  VAL40       0.0022
     73  CG2      -14.7580   -3.5650   14.3150 C.3    40  VAL40       0.0022
     74  N        -19.8200  -14.7940    7.3940 N.3    66  TRP66      -0.1241
     75  CA       -20.4630  -13.7220    8.1040 C.3    66  TRP66       0.1605
     76  C        -19.9910  -12.3600    7.6550 C.2    66  TRP66       0.2264
     77  O        -20.6750  -11.3870    7.8010 O.2    66  TRP66      -0.2867
     78  CB       -20.2320  -13.8500    9.6650 C.3    66  TRP66       0.0550
     79  CG       -18.8440  -13.6770   10.0870 C.ar   66  TRP66       0.0003
     80  CD1      -17.9000  -14.6610   10.2500 C.ar   66  TRP66       0.0946
     81  CD2      -18.1810  -12.4410   10.3330 C.ar   66  TRP66       0.0152
     82  NE1      -16.7030  -14.1110   10.6050 N.ar   66  TRP66      -0.2442
     83  CE2      -16.8260  -12.7500   10.6200 C.ar   66  TRP66       0.0810
     84  CE3      -18.5790  -11.0980   10.2940 C.ar   66  TRP66       0.0012
     85  CZ2      -15.8880  -11.7570   10.8950 C.ar   66  TRP66       0.0191
     86  CZ3      -17.6160  -10.1470   10.5920 C.ar   66  TRP66       0.0001
     87  CH2      -16.3010  -10.4820   10.8190 C.ar   66  TRP66       0.0015
     88  N        -20.2650   -7.0690    5.0480 N.3    70  PHE70      -0.1241
     89  CA       -19.4270   -5.9730    5.5060 C.3    70  PHE70       0.1605
     90  C        -18.2850   -5.6510    4.5300 C.2    70  PHE70       0.2264
     91  O        -18.0360   -4.4930    4.2510 O.2    70  PHE70      -0.2867
     92  CB       -18.8860   -6.2410    6.9090 C.3    70  PHE70       0.0534
     93  CG       -19.9990   -6.5440    7.9310 C.ar   70  PHE70      -0.0203
     94  CD1      -20.7680   -5.5150    8.4520 C.ar   70  PHE70      -0.0042
     95  CD2      -20.3050   -7.8170    8.2850 C.ar   70  PHE70      -0.0042
     96  CE1      -21.7640   -5.7410    9.3490 C.ar   70  PHE70      -0.0003
     97  CE2      -21.3380   -8.0560    9.1880 C.ar   70  PHE70      -0.0003
     98  CZ       -22.0580   -7.0160    9.7070 C.ar   70  PHE70      -0.0000
     99  N         -6.5000   -6.3460   18.0480 N.3   150  ARG150     -0.1197
    100  CA        -7.8800   -6.0080   18.3510 C.3   150  ARG150      0.1779
    101  C         -7.9940   -4.9070   19.3960 C.2   150  ARG150      0.2305
    102  O         -8.8250   -4.0040   19.2480 O.2   150  ARG150     -0.2863
    103  CB        -8.6560   -7.2470   18.7220 C.2   150  ARG150     -0.0007
    104  CG        -8.9260   -8.2290   17.5710 C.2   150  ARG150      0.0176
    105  CD        -9.5550   -9.5530   17.9660 C.3   150  ARG150      0.2464
    106  NE       -10.7740   -9.3530   18.7190 N.pl3 150  ARG150     -0.0815
    107  CZ       -11.9740   -9.0720   18.1850 C.cat 150  ARG150      0.5349
    108  NH1      -12.1110   -8.8830   16.8370 N.pl3 150  ARG150      0.1354
    109  NH2      -13.0080   -8.9340   18.9960 N.pl3 150  ARG150      0.1354
@<TRIPOS>BOND
     1    91    90    2
     2    90    89    1
     3    88    89    1
     4    89    92    1
     5    92    93    1
     6    74    75    1
     7    76    77    2
     8    76    75    1
     9    93    95   ar
    10    93    94   ar
    11    75    78    1
    12    95    97   ar
    13    94    96   ar
    14    97    98   ar
    15    58    59    1
    16    96    98   ar
    17    78    79    1
    18    79    80   ar
    19    79    81   ar
    20    59    62    1
    21    59    60    1
    22    49    50    1
    23    80    82   ar
    24    84    81   ar
    25    84    86   ar
    26    81    83   ar
    27    86    87   ar
    28    82    83   ar
    29    83    85   ar
    30    87    85   ar
    31    62    63    1
    32    60    61    2
    33    60    67   am
    34    51    50    1
    35    51    52    2
    36    50    53    1
    37    63    64    1
    38    67    68    1
    39    69    70    2
    40    69    68    1
    41    44    43    2
    42    43    42    1
    43    68    71    1
    44    53    54    1
    45    64    65    1
    46    54    55    1
    47    71    72    1
    48    71    73    1
    49    46    47    1
    50    46    45    1
    51    47    48    1
    52    55    56   ar
    53    55    57   ar
    54    65    66    1
    55    42    45    1
    56    42    41    1
    57    39    40    1
    58    39    38    1
    59    31    29   ar
    60    31    32   ar
    61   108   107    1
    62    33    32    1
    63    17    16    1
    64    40    34    1
    65    29    27   ar
    66    32    30   ar
    67   104   105    1
    68   104   103    2
    69    11    10   ar
    70    11     9   ar
    71    10     8   ar
    72    38    35    1
    73   105   106    1
    74    99   100    1
    75    16    13    1
    76    21    20    2
    77   107   106    2
    78   107   109    1
    79     9     7   ar
    80     1     2    1
    81   100   103    1
    82   100   101    1
    83     8     6   ar
    84     2     3    1
    85     2     5    1
    86    27    26    1
    87    27    28   ar
    88     7     6   ar
    89    34    35    1
    90    34    24   am
    91    12     3   am
    92    12    13    1
    93    30    28   ar
    94     6     5    1
    95     3     4    2
    96    23    26    1
    97    23    24    1
    98    23    22    1
    99    35    36    1
   100    13    14    1
   101   102   101    2
   102    20    22   am
   103    20    19    1
   104    24    25    2
   105    18    14   am
   106    18    19    1
   107    14    15    2
   108    36    37    2
