@<TRIPOS>MOLECULE
tmp/6cwrA00.pdb
 109 105 0 0 0
SMALL
GASTEIGER

@<TRIPOS>ATOM
      1  N         -2.5200    2.7270  -12.7280 N.3    34  ARG34      -0.1245
      2  CA        -3.5710    3.1740  -13.6480 C.3    34  ARG34       0.1563
      3  C         -3.8590    2.1540  -14.7710 C.2    34  ARG34       0.2260
      4  O         -5.0060    1.9380  -15.1490 O.2    34  ARG34      -0.2867
      5  CB        -3.2260    4.5640  -14.1820 C.3    34  ARG34       0.0307
      6  CG        -3.3600    5.6480  -13.1250 C.3    34  ARG34       0.0489
      7  CD        -2.7230    6.9930  -13.4710 C.3    34  ARG34       0.2205
      8  NE        -3.1640    7.5360  -14.7430 N.pl3  34  ARG34      -0.0865
      9  CZ        -4.3610    8.0890  -14.9760 C.cat  34  ARG34       0.5346
     10  NH1       -5.2540    8.2380  -13.9960 N.pl3  34  ARG34       0.1354
     11  NH2       -4.6550    8.5260  -16.2060 N.pl3  34  ARG34       0.1354
     12  N        -14.0420    7.3420  -19.6600 N.3    79  LEU79      -0.1231
     13  CA       -13.8100    7.1560  -18.2360 C.3    79  LEU79       0.1693
     14  C        -12.4440    7.6790  -17.7680 C.2    79  LEU79       0.2592
     15  O        -12.3410    8.1500  -16.6260 O.2    79  LEU79      -0.2718
     16  CB       -13.9130    5.6900  -17.8480 C.3    79  LEU79       0.0284
     17  CG       -15.2220    5.0010  -18.1930 C.3    79  LEU79       0.0019
     18  CD1      -15.2740    3.5690  -17.6680 C.3    79  LEU79       0.0001
     19  CD2      -16.4570    5.7720  -17.7980 C.3    79  LEU79       0.0001
     20  N        -11.4210    7.5440  -18.5990 N.am   80  MET80      -0.1965
     21  CA       -10.0720    7.9840  -18.2930 C.3    80  MET80       0.1736
     22  C         -9.5400    8.7510  -19.5020 C.2    80  MET80       0.2616
     23  O         -9.9390    8.5370  -20.6410 O.2    80  MET80      -0.2715
     24  CB        -9.1390    6.8370  -17.9240 C.3    80  MET80       0.0427
     25  CG        -9.6150    6.0750  -16.7000 C.3    80  MET80       0.0599
     26  SD        -8.5040    4.7530  -16.1430 S.3    80  MET80      -0.1393
     27  CE        -7.2640    5.6790  -15.2250 C.3    80  MET80       0.0692
     28  N         -8.5970    9.6220  -19.2340 N.am   81  GLN81      -0.1963
     29  CA        -7.9540   10.4140  -20.2550 C.3    81  GLN81       0.1733
     30  C         -6.5400   10.7430  -19.7880 C.2    81  GLN81       0.2616
     31  O         -6.0870   10.2970  -18.7400 O.2    81  GLN81      -0.2715
     32  CB        -8.7470   11.6940  -20.5480 C.3    81  GLN81       0.0408
     33  CG        -8.7300   12.6810  -19.3910 C.3    81  GLN81       0.0908
     34  CD        -9.5410   13.9690  -19.5730 C.2    81  GLN81       0.2608
     35  OE1       -9.8700   14.6370  -18.5720 O.2    81  GLN81      -0.2717
     36  NE2       -9.8450   14.3400  -20.8130 N.am   81  GLN81      -0.0878
     37  N         -5.8400   11.5470  -20.5720 N.am   82  ALA82      -0.1963
     38  CA        -4.4900   11.8980  -20.2170 C.3    82  ALA82       0.1728
     39  C         -4.4480   12.7340  -18.9430 C.2    82  ALA82       0.2616
     40  O         -5.4320   13.4240  -18.5910 O.2    82  ALA82      -0.2715
     41  CB        -3.8560   12.7030  -21.3520 C.3    82  ALA82       0.0334
     42  N         -3.3000   12.7020  -18.2650 N.am   83  LYS83      -0.1977
     43  CA        -2.9800   13.7340  -17.2870 C.3    83  LYS83       0.1596
     44  C         -2.4730   15.0310  -17.9460 C.2    83  LYS83       0.2287
     45  O         -2.5780   16.1070  -17.3460 O.2    83  LYS83      -0.2864
     46  CB        -1.9210   13.2240  -16.3290 C.3    83  LYS83       0.0298
     47  CG        -2.3470   12.0930  -15.4300 C.3    83  LYS83       0.0038
     48  CD        -1.3410   11.8660  -14.3180 C.3    83  LYS83       0.0206
     49  CE        -1.8290   10.7890  -13.3660 C.3    83  LYS83       0.1093
     50  NZ        -0.8270   10.4740  -12.3200 N.3    83  LYS83      -0.1314
     51  N         -2.7100   16.8450  -21.7160 N.3    85  LEU85      -0.1245
     52  CA        -3.2820   16.8540  -23.0700 C.3    85  LEU85       0.1561
     53  C         -2.3570   17.4210  -24.1560 C.2    85  LEU85       0.2260
     54  O         -2.6670   17.3220  -25.3600 O.2    85  LEU85      -0.2867
     55  CB        -4.5650   17.6890  -23.0760 C.3    85  LEU85       0.0270
     56  CG        -5.6860   17.2530  -22.1460 C.3    85  LEU85       0.0019
     57  CD1       -6.7680   18.3160  -22.0020 C.3    85  LEU85       0.0001
     58  CD2       -6.2770   15.9910  -22.7070 C.3    85  LEU85       0.0001
     59  N         -9.0480   10.0160   -8.5990 N.3   100  GLU100     -0.1245
     60  CA        -9.0620    9.5330   -9.9940 C.3   100  GLU100      0.1567
     61  C        -10.0720    8.3910  -10.1370 C.2   100  GLU100      0.2260
     62  O        -10.9060    8.3820  -11.0600 O.2   100  GLU100     -0.2867
     63  CB        -7.6570    9.1170  -10.4170 C.3   100  GLU100      0.0388
     64  CG        -6.6950   10.2630  -10.6480 C.3   100  GLU100      0.1160
     65  CD        -5.2770    9.7770  -10.9020 C.2   100  GLU100      0.3649
     66  OE1       -5.0300    8.5390  -10.8410 O.co2 100  GLU100     -0.2457
     67  OE2       -4.4250   10.6380  -11.2050 O.co2 100  GLU100     -0.2457
     68  N        -13.5680    9.7570  -10.1590 N.3   103  LYS103     -0.1231
     69  CA       -14.0230   10.2800  -11.4500 C.3   103  LYS103      0.1693
     70  C        -14.4750    9.1320  -12.3600 C.2   103  LYS103      0.2592
     71  O        -15.5190    9.2320  -13.0020 O.2   103  LYS103     -0.2718
     72  CB       -12.8990   11.0840  -12.1460 C.3   103  LYS103      0.0285
     73  CG       -13.2750   11.4920  -13.5710 C.3   103  LYS103      0.0035
     74  CD       -12.1700   12.2360  -14.3130 C.3   103  LYS103      0.0206
     75  CE       -12.4460   12.2940  -15.8090 C.3   103  LYS103      0.1093
     76  NZ       -11.2350   12.1740  -16.6320 N.3   103  LYS103     -0.1314
     77  N        -13.6750    8.0820  -12.4630 N.am  104  THR104     -0.1953
     78  CA       -14.0210    6.9910  -13.4060 C.3   104  THR104      0.1897
     79  C        -15.3680    6.3730  -13.0700 C.2   104  THR104      0.2313
     80  O        -16.1390    6.0570  -13.9730 O.2   104  THR104     -0.2863
     81  CB       -12.9120    5.9010  -13.4830 C.3   104  THR104      0.1794
     82  OG1      -12.8870    5.0830  -12.2900 O.3   104  THR104     -0.2208
     83  CG2      -11.5530    6.5280  -13.7500 C.3   104  THR104      0.0378
     84  N         -9.7660   19.9860   -9.7220 N.3   124  TRP124     -0.1241
     85  CA       -10.4960   19.3330  -10.8240 C.3   124  TRP124      0.1605
     86  C        -11.3980   18.1860  -10.3680 C.2   124  TRP124      0.2264
     87  O        -12.3840   17.8760  -11.0440 O.2   124  TRP124     -0.2867
     88  CB        -9.5080   18.8320  -11.9210 C.3   124  TRP124      0.0550
     89  CG        -8.6430   17.6700  -11.5120 C.ar  124  TRP124      0.0003
     90  CD1       -7.3550   17.7450  -11.0890 C.ar  124  TRP124      0.0946
     91  CD2       -9.0100   16.2710  -11.4630 C.ar  124  TRP124      0.0152
     92  NE1       -6.8900   16.5030  -10.7770 N.ar  124  TRP124     -0.2442
     93  CE2       -7.8890   15.5790  -10.9870 C.ar  124  TRP124      0.0810
     94  CE3      -10.1820   15.5430  -11.7730 C.ar  124  TRP124      0.0012
     95  CZ2       -7.9000   14.1910  -10.7980 C.ar  124  TRP124      0.0191
     96  CZ3      -10.1820   14.1630  -11.5660 C.ar  124  TRP124      0.0001
     97  CH2       -9.0440   13.5130  -11.0940 C.ar  124  TRP124      0.0015
     98  N        -16.2220   15.2490   -8.4010 N.3   128  TYR128     -0.1241
     99  CA       -16.2280   13.7940   -8.5930 C.3   128  TYR128      0.1605
    100  C        -16.0880   13.0770   -7.2650 C.2   128  TYR128      0.2264
    101  O        -16.8100   12.1050   -6.9860 O.2   128  TYR128     -0.2867
    102  CB       -15.1070   13.3620   -9.5500 C.3   128  TYR128      0.0534
    103  CG       -15.3070   13.7900  -10.9830 C.ar  128  TYR128     -0.0201
    104  CD1      -16.3610   13.2950  -11.7410 C.ar  128  TYR128     -0.0009
    105  CD2      -14.3730   14.6030  -11.6190 C.ar  128  TYR128     -0.0009
    106  CE1      -16.5370   13.6770  -13.0590 C.ar  128  TYR128      0.0417
    107  CE2      -14.5230   14.9530  -12.9470 C.ar  128  TYR128      0.0417
    108  CZ       -15.6210   14.5000  -13.6500 C.ar  128  TYR128      0.1957
    109  OH       -15.8020   14.8210  -14.9580 O.3   128  TYR128     -0.2866
@<TRIPOS>BOND
     1    54    53    2
     2    53    52    1
     3    55    52    1
     4    55    56    1
     5    52    51    1
     6    58    56    1
     7    56    57    1
     8    41    38    1
     9    36    34   am
    10    23    22    2
    11    37    38    1
    12    37    30   am
    13    32    29    1
    14    32    33    1
    15    29    30    1
    16    29    28    1
    17    38    39    1
    18    30    31    2
    19    12    13    1
    20    34    33    1
    21    34    35    2
    22    22    28   am
    23    22    21    1
    24    39    40    2
    25    39    42   am
    26    20    21    1
    27    20    14   am
    28    21    24    1
    29    42    43    1
    30    13    16    1
    31    13    14    1
    32    17    16    1
    33    17    19    1
    34    17    18    1
    35    44    45    2
    36    44    43    1
    37    24    25    1
    38    14    15    2
    39    43    46    1
    40    25    26    1
    41    76    75    1
    42    46    47    1
    43    11     9    1
    44    26    27    1
    45    75    74    1
    46    47    48    1
    47     4     3    2
    48     9     8    2
    49     9    10    1
    50   109   108    1
    51     3     2    1
    52     8     7    1
    53    48    49    1
    54    74    73    1
    55     5     2    1
    56     5     6    1
    57    80    79    2
    58    83    81    1
    59   108   106   ar
    60   108   107   ar
    61     2     1    1
    62    73    72    1
    63    81    78    1
    64    81    82    1
    65     7     6    1
    66    78    79    1
    67    78    77    1
    68    49    50    1
    69   106   104   ar
    70    71    70    2
    71   107   105   ar
    72    77    70   am
    73    70    69    1
    74    72    69    1
    75    88    89    1
    76    88    85    1
    77    94    96   ar
    78    94    91   ar
    79   104   103   ar
    80   105   103   ar
    81    96    97   ar
    82    89    91   ar
    83    89    90   ar
    84    91    93   ar
    85    69    68    1
    86    67    65   ar
    87    97    95   ar
    88    90    92   ar
    89    62    61    2
    90    87    86    2
    91    93    95   ar
    92    93    92   ar
    93   103   102    1
    94    65    66   ar
    95    65    64    1
    96    85    86    1
    97    85    84    1
    98    64    63    1
    99    63    60    1
   100    61    60    1
   101    60    59    1
   102   102    99    1
   103    99    98    1
   104    99   100    1
   105   100   101    2
