@<TRIPOS>MOLECULE
tmp/6cwyB00.pdb
 100 95 0 0 0
SMALL
GASTEIGER

@<TRIPOS>ATOM
      1  N        180.6120  222.7920  550.8020 N.3    23  ALA23      -0.1245
      2  CA       181.4140  223.4970  551.7930 C.3    23  ALA23       0.1562
      3  C        181.5370  224.9890  551.5190 C.2    23  ALA23       0.2260
      4  O        181.8960  225.7410  552.4320 O.2    23  ALA23      -0.2867
      5  CB       182.8190  222.8870  551.8740 C.3    23  ALA23       0.0290
      6  N        179.7390  227.9080  555.0410 N.3    28  CYS28      -0.1221
      7  CA       180.4850  228.3790  556.2030 C.3    28  CYS28       0.1808
      8  C        179.5490  228.9580  557.2560 C.2    28  CYS28       0.2601
      9  O        179.6350  228.6010  558.4370 O.2    28  CYS28      -0.2717
     10  CB       181.5380  229.4040  555.7790 C.3    28  CYS28       0.0970
     11  SG       183.2370  228.7600  555.8040 S.3    28  CYS28      -0.0800
     12  N        178.6400  229.8480  556.8480 N.am   29  GLU29      -0.1979
     13  CA       177.6650  230.3920  557.7860 C.3    29  GLU29       0.1602
     14  C        176.7050  229.3170  558.2810 C.2    29  GLU29       0.2287
     15  O        176.2620  229.3650  559.4340 O.2    29  GLU29      -0.2864
     16  CB       176.8880  231.5350  557.1320 C.3    29  GLU29       0.0415
     17  CG       177.7050  232.7930  556.8830 C.3    29  GLU29       0.1163
     18  CD       177.8840  233.6320  558.1360 C.2    29  GLU29       0.3649
     19  OE1      177.1890  233.3640  559.1390 O.co2  29  GLU29      -0.2457
     20  OE2      178.7180  234.5620  558.1160 O.co2  29  GLU29      -0.2457
     21  N        177.3300  226.0050  558.6960 N.3    31  LEU31      -0.1231
     22  CA       177.9920  225.1500  559.6760 C.3    31  LEU31       0.1693
     23  C        178.0480  225.8190  561.0430 C.2    31  LEU31       0.2591
     24  O        177.8600  225.1610  562.0730 O.2    31  LEU31      -0.2718
     25  CB       179.3990  224.7900  559.1970 C.3    31  LEU31       0.0284
     26  CG       179.4970  223.8460  557.9970 C.3    31  LEU31       0.0019
     27  CD1      180.9420  223.6900  557.5530 C.3    31  LEU31       0.0001
     28  CD2      178.8860  222.4940  558.3300 C.3    31  LEU31       0.0001
     29  N        178.3020  227.1300  561.0700 N.am   32  LYS32      -0.1980
     30  CA       178.3180  227.8590  562.3340 C.3    32  LYS32       0.1596
     31  C        176.9540  227.8140  563.0100 C.2    32  LYS32       0.2287
     32  O        176.8480  227.5050  564.2030 O.2    32  LYS32      -0.2864
     33  CB       178.7540  229.3060  562.1000 C.3    32  LYS32       0.0298
     34  CG       178.5120  230.2230  563.2890 C.3    32  LYS32       0.0038
     35  CD       179.1520  231.5880  563.0850 C.3    32  LYS32       0.0206
     36  CE       178.6230  232.2770  561.8370 C.3    32  LYS32       0.1093
     37  NZ       177.1590  232.5430  561.9120 N.3    32  LYS32      -0.1314
     38  N        176.0930  224.2830  564.4450 N.3    35  VAL35      -0.1231
     39  CA       176.8180  223.9320  565.6630 C.3    35  VAL35       0.1692
     40  C        176.3310  224.7700  566.8380 C.2    35  VAL35       0.2591
     41  O        176.1100  224.2500  567.9390 O.2    35  VAL35      -0.2718
     42  CB       178.3330  224.0870  565.4420 C.3    35  VAL35       0.0266
     43  CG1      179.0810  223.9800  566.7660 C.3    35  VAL35       0.0020
     44  CG2      178.8330  223.0400  564.4590 C.3    35  VAL35       0.0020
     45  N        176.1530  226.0770  566.6280 N.am   36  LEU36      -0.1980
     46  CA       175.7000  226.9400  567.7140 C.3    36  LEU36       0.1596
     47  C        174.2710  226.6190  568.1350 C.2    36  LEU36       0.2287
     48  O        173.9040  226.8450  569.2930 O.2    36  LEU36      -0.2864
     49  CB       175.8200  228.4070  567.3040 C.3    36  LEU36       0.0297
     50  CG       177.2290  228.9690  567.1000 C.3    36  LEU36       0.0022
     51  CD1      177.1660  230.4430  566.7240 C.3    36  LEU36       0.0001
     52  CD2      178.0740  228.7670  568.3480 C.3    36  LEU36       0.0001
     53  N        188.8690  219.8830  554.7400 N.3    58  VAL58      -0.1231
     54  CA       189.4850  221.1600  555.0900 C.3    58  VAL58       0.1692
     55  C        188.5300  222.0010  555.9270 C.2    58  VAL58       0.2591
     56  O        188.9370  222.6370  556.9080 O.2    58  VAL58      -0.2718
     57  CB       189.9350  221.9020  553.8180 C.3    58  VAL58       0.0266
     58  CG1      190.2870  223.3470  554.1360 C.3    58  VAL58       0.0020
     59  CG2      191.1230  221.1960  553.1880 C.3    58  VAL58       0.0020
     60  N        187.2460  222.0120  555.5630 N.am   59  ALA59      -0.1980
     61  CA       186.2670  222.7590  556.3450 C.3    59  ALA59       0.1597
     62  C        186.0980  222.1590  557.7360 C.2    59  ALA59       0.2287
     63  O        185.8990  222.8910  558.7120 O.2    59  ALA59      -0.2864
     64  CB       184.9280  222.8010  555.6110 C.3    59  ALA59       0.0319
     65  N        188.7160  223.5350  560.1360 N.3    62  SER62      -0.1202
     66  CA       188.4560  224.8820  560.6330 C.3    62  SER62       0.2020
     67  C        187.3030  224.9020  561.6290 C.2    62  SER62       0.2618
     68  O        187.2960  225.7310  562.5470 O.2    62  SER62      -0.2717
     69  CB       188.1700  225.8300  559.4690 C.3    62  SER62       0.2103
     70  OG       189.3110  225.9840  558.6410 O.3    62  SER62      -0.2182
     71  N        186.3240  224.0080  561.4680 N.am   63  VAL63      -0.1979
     72  CA       185.2180  223.9330  562.4200 C.3    63  VAL63       0.1595
     73  C        185.7320  223.5240  563.7950 C.2    63  VAL63       0.2287
     74  O        185.3820  224.1300  564.8160 O.2    63  VAL63      -0.2864
     75  CB       184.1340  222.9630  561.9150 C.3    63  VAL63       0.0276
     76  CG1      183.1220  222.6800  563.0120 C.3    63  VAL63       0.0022
     77  CG2      183.4400  223.5310  560.6900 C.3    63  VAL63       0.0022
     78  N        187.0540  226.2280  565.9520 N.3    66  PHE66      -0.1227
     79  CA       186.0570  227.0420  566.6390 C.3    66  PHE66       0.1736
     80  C        185.3820  226.2710  567.7670 C.2    66  PHE66       0.2595
     81  O        185.0460  226.8520  568.8050 O.2    66  PHE66      -0.2718
     82  CB       185.0080  227.5430  565.6450 C.3    66  PHE66       0.0547
     83  CG       185.4670  228.7000  564.8050 C.ar   66  PHE66      -0.0202
     84  CD1      185.3250  230.0000  565.2610 C.ar   66  PHE66      -0.0042
     85  CD2      186.0330  228.4910  563.5580 C.ar   66  PHE66      -0.0042
     86  CE1      185.7440  231.0700  564.4920 C.ar   66  PHE66      -0.0003
     87  CE2      186.4540  229.5570  562.7840 C.ar   66  PHE66      -0.0003
     88  CZ       186.3080  230.8480  563.2530 C.ar   66  PHE66      -0.0000
     89  N        185.1730  224.9690  567.5820 N.am   67  TYR67      -0.1976
     90  CA       184.4810  224.1420  568.5710 C.3    67  TYR67       0.1639
     91  C        185.0020  222.7180  568.4450 C.2    67  TYR67       0.2290
     92  O        184.5230  221.9400  567.6060 O.2    67  TYR67      -0.2864
     93  CB       182.9680  224.1940  568.3840 C.3    67  TYR67       0.0560
     94  CG       182.1830  223.6110  569.5350 C.ar   67  TYR67      -0.0198
     95  CD1      182.3180  224.1210  570.8190 C.ar   67  TYR67      -0.0009
     96  CD2      181.2940  222.5640  569.3350 C.ar   67  TYR67      -0.0009
     97  CE1      181.6010  223.5950  571.8760 C.ar   67  TYR67       0.0417
     98  CE2      180.5700  222.0330  570.3850 C.ar   67  TYR67       0.0417
     99  CZ       180.7270  222.5530  571.6530 C.ar   67  TYR67       0.1957
    100  OH       180.0090  222.0280  572.7020 O.3    67  TYR67      -0.2866
@<TRIPOS>BOND
     1     1     2    1
     2     3     2    1
     3     3     4    2
     4     2     5    1
     5    59    57    1
     6    57    58    1
     7    57    54    1
     8    53    54    1
     9     6     7    1
    10    54    55    1
    11    60    55   am
    12    60    61    1
    13    64    61    1
    14    10    11    1
    15    10     7    1
    16    55    56    2
    17     7     8    1
    18    61    62    1
    19    12     8   am
    20    12    13    1
    21    17    16    1
    22    17    18    1
    23    16    13    1
    24     8     9    2
    25    27    26    1
    26    62    63    2
    27    13    14    1
    28    26    28    1
    29    26    25    1
    30    20    18   ar
    31    18    19   ar
    32    14    15    2
    33    70    69    1
    34    21    22    1
    35    25    22    1
    36    69    66    1
    37    22    23    1
    38    65    66    1
    39    66    67    1
    40    77    75    1
    41    23    29   am
    42    23    24    2
    43    29    30    1
    44    71    67   am
    45    71    72    1
    46    67    68    2
    47    36    37    1
    48    36    35    1
    49    75    72    1
    50    75    76    1
    51    33    30    1
    52    33    34    1
    53    30    31    1
    54    72    73    1
    55    87    88   ar
    56    87    85   ar
    57    31    32    2
    58    35    34    1
    59    88    86   ar
    60    85    83   ar
    61    73    74    2
    62    38    39    1
    63    44    42    1
    64    86    84   ar
    65    83    84   ar
    66    83    82    1
    67    42    39    1
    68    42    43    1
    69    82    79    1
    70    39    40    1
    71    78    79    1
    72    45    40   am
    73    45    46    1
    74    79    80    1
    75    51    50    1
    76    40    41    2
    77    50    49    1
    78    50    52    1
    79    49    46    1
    80    89    80   am
    81    89    90    1
    82    92    91    2
    83    46    47    1
    84    80    81    2
    85    47    48    2
    86    93    90    1
    87    93    94    1
    88    91    90    1
    89    96    94   ar
    90    96    98   ar
    91    94    95   ar
    92    98    99   ar
    93    95    97   ar
    94    99    97   ar
    95    99   100    1
