@<TRIPOS>MOLECULE
tmp/6cx6B00.pdb
 209 202 0 0 0
SMALL
GASTEIGER

@<TRIPOS>ATOM
      1  N         21.3410  -55.3720   29.0820 N.3    30  LYS30      -0.1231
      2  CA        20.4860  -54.1540   29.0970 C.3    30  LYS30       0.1693
      3  C         21.1960  -52.8570   28.6150 C.2    30  LYS30       0.2592
      4  O         21.1310  -51.8080   29.2520 O.2    30  LYS30      -0.2718
      5  CB        19.7910  -53.9540   30.4600 C.3    30  LYS30       0.0285
      6  CG        20.5520  -54.4270   31.6870 C.3    30  LYS30       0.0035
      7  CD        19.7180  -54.1800   32.9400 C.3    30  LYS30       0.0206
      8  CE        19.4480  -55.4390   33.7640 C.3    30  LYS30       0.1093
      9  NZ        18.6000  -55.1490   34.9640 N.3    30  LYS30      -0.1314
     10  N         21.8640  -52.9800   27.4690 N.am   31  PHE31      -0.1962
     11  CA        22.5840  -51.9040   26.7870 C.3    31  PHE31       0.1771
     12  C         21.9960  -51.8700   25.3830 C.2    31  PHE31       0.2620
     13  O         21.9470  -52.8960   24.6960 O.2    31  PHE31      -0.2715
     14  CB        24.0910  -52.2140   26.7670 C.3    31  PHE31       0.0574
     15  CG        24.8180  -51.7150   25.5460 C.ar   31  PHE31      -0.0200
     16  CD1       25.3160  -50.4150   25.4990 C.ar   31  PHE31      -0.0042
     17  CD2       25.0320  -52.5490   24.4510 C.ar   31  PHE31      -0.0042
     18  CE1       25.9950  -49.9450   24.3840 C.ar   31  PHE31      -0.0003
     19  CE2       25.7070  -52.0890   23.3340 C.ar   31  PHE31      -0.0003
     20  CZ        26.1940  -50.7840   23.3030 C.ar   31  PHE31      -0.0000
     21  N         21.5210  -50.7040   24.9700 N.am   32  TYR32      -0.1960
     22  CA        20.7860  -50.5850   23.7260 C.3    32  TYR32       0.1771
     23  C         21.4580  -49.6460   22.7210 C.2    32  TYR32       0.2620
     24  O         20.7940  -48.9870   21.9220 O.2    32  TYR32      -0.2715
     25  CB        19.3640  -50.1400   24.0510 C.3    32  TYR32       0.0574
     26  CG        18.5530  -51.2250   24.7160 C.ar   32  TYR32      -0.0198
     27  CD1       18.8300  -51.6340   26.0220 C.ar   32  TYR32      -0.0009
     28  CD2       17.5050  -51.8460   24.0390 C.ar   32  TYR32      -0.0009
     29  CE1       18.0870  -52.6300   26.6310 C.ar   32  TYR32       0.0417
     30  CE2       16.7540  -52.8430   24.6410 C.ar   32  TYR32       0.0417
     31  CZ        17.0500  -53.2330   25.9330 C.ar   32  TYR32       0.1957
     32  OH        16.3020  -54.2220   26.5260 O.3    32  TYR32      -0.2866
     33  N         22.7840  -49.6100   22.7560 N.am   33  GLY33      -0.1954
     34  CA        23.5640  -48.7640   21.8650 C.3    33  GLY33       0.1869
     35  C         23.5160  -49.3110   20.4610 C.2    33  GLY33       0.2309
     36  O         23.2580  -50.5000   20.2820 O.2    33  GLY33      -0.2863
     37  N         27.4960  -38.2060   28.5350 N.3    51  ASP51      -0.1239
     38  CA        26.7550  -39.1890   27.7730 C.3    51  ASP51       0.1674
     39  C         25.3050  -38.8020   27.8480 C.2    51  ASP51       0.2266
     40  O         24.5940  -39.1890   28.7630 O.2    51  ASP51      -0.2867
     41  CB        26.9950  -40.6000   28.3340 C.3    51  ASP51       0.1410
     42  CG        26.3360  -41.7170   27.4960 C.2    51  ASP51       0.3668
     43  OD1       25.5180  -41.4260   26.5850 O.co2  51  ASP51      -0.2456
     44  OD2       26.6370  -42.9100   27.7780 O.co2  51  ASP51      -0.2456
     45  N         21.8900  -39.4660   27.2110 N.3    53  GLY53      -0.1210
     46  CA        21.1040  -40.6700   26.9540 C.3    53  GLY53       0.1956
     47  C         21.5080  -41.8010   27.8670 C.2    53  GLY53       0.2612
     48  O         20.6600  -42.4810   28.3960 O.2    53  GLY53      -0.2717
     49  N         22.8070  -42.0330   28.0110 N.am   54  CYS54      -0.1956
     50  CA        23.3540  -42.7140   29.1880 C.3    54  CYS54       0.1843
     51  C         22.8930  -44.1530   29.4060 C.2    54  CYS54       0.2626
     52  O         23.6890  -45.0910   29.3090 O.2    54  CYS54      -0.2714
     53  CB        23.0050  -41.8770   30.4090 C.3    54  CYS54       0.0997
     54  SG        23.8410  -42.3310   31.9230 S.3    54  CYS54      -0.0797
     55  N         21.6160  -44.3170   29.7500 N.am   55  GLY55      -0.1940
     56  CA        21.0610  -45.6200   30.0950 C.3    55  GLY55       0.2014
     57  C         21.7850  -46.2250   31.2800 C.2    55  GLY55       0.2639
     58  O         22.2210  -45.5210   32.1920 O.2    55  GLY55      -0.2714
     59  N         21.9570  -47.5350   31.2510 N.am   56  THR56      -0.1950
     60  CA        22.5790  -48.2200   32.3700 C.3    56  THR56       0.1897
     61  C         24.0630  -47.9110   32.5300 C.2    56  THR56       0.2313
     62  O         24.6980  -48.4580   33.4050 O.2    56  THR56      -0.2863
     63  CB        22.4210  -49.7290   32.2350 C.3    56  THR56       0.1794
     64  OG1       23.2420  -50.1940   31.1570 O.3    56  THR56      -0.2208
     65  CG2       20.9450  -50.0750   31.9870 C.3    56  THR56       0.0378
     66  N         26.7840  -47.9250   30.1460 N.3    58  ARG58      -0.1231
     67  CA        27.7470  -48.7580   29.4590 C.3    58  ARG58       0.1694
     68  C         28.8580  -47.8880   28.9040 C.2    58  ARG58       0.2592
     69  O         30.0410  -48.1130   29.1800 O.2    58  ARG58      -0.2718
     70  CB        27.0430  -49.5360   28.3500 C.3    58  ARG58       0.0321
     71  CG        27.9260  -50.5510   27.6500 C.3    58  ARG58       0.0489
     72  CD        28.8260  -49.8890   26.6250 C.3    58  ARG58       0.2205
     73  NE        29.0480  -50.7420   25.4660 N.pl3  58  ARG58      -0.0865
     74  CZ        29.6850  -50.3650   24.3690 C.cat  58  ARG58       0.5346
     75  NH1       30.1700  -49.1340   24.2630 N.pl3  58  ARG58       0.1354
     76  NH2       29.8330  -51.2220   23.3770 N.pl3  58  ARG58       0.1354
     77  N         28.4640  -46.8850   28.1250 N.am   59  ASP59      -0.1974
     78  CA        29.4300  -45.9560   27.5290 C.3    59  ASP59       0.1709
     79  C         30.1070  -45.0850   28.6180 C.2    59  ASP59       0.2293
     80  O         31.2880  -44.7120   28.4930 O.2    59  ASP59      -0.2864
     81  CB        28.7640  -45.0920   26.4510 C.3    59  ASP59       0.1436
     82  CG        28.5440  -45.8440   25.1530 C.2    59  ASP59       0.3671
     83  OD1       27.7410  -46.7770   25.1130 O.co2  59  ASP59      -0.2456
     84  OD2       29.1640  -45.4980   24.1390 O.co2  59  ASP59      -0.2456
     85  N         20.3000  -39.5180   32.0580 N.3    77  ASP77      -0.1225
     86  CA        19.0690  -40.1520   31.5500 C.3    77  ASP77       0.1805
     87  C         17.7740  -39.5400   32.1450 C.2    77  ASP77       0.2601
     88  O         17.8110  -38.9090   33.1950 O.2    77  ASP77      -0.2717
     89  CB        19.1260  -41.6610   31.8180 C.3    77  ASP77       0.1424
     90  CG        18.2390  -42.4630   30.8730 C.2    77  ASP77       0.3668
     91  OD1       17.0110  -42.2610   30.8570 O.co2  77  ASP77      -0.2456
     92  OD2       18.7620  -43.3260   30.1570 O.co2  77  ASP77      -0.2456
     93  N         16.6470  -39.7250   31.4510 N.am   78  MET78      -0.1920
     94  CA        15.3150  -39.3540   31.9690 C.3    78  MET78       0.1952
     95  C         14.6870  -40.4290   32.9150 C.2    78  MET78       0.2658
     96  O         13.9790  -40.0720   33.8610 O.2    78  MET78      -0.2711
     97  CB        14.3500  -38.9880   30.8140 C.2    78  MET78       0.0110
     98  CG        13.4490  -40.1070   30.3180 C.2    78  MET78       0.0285
     99  SD        12.6770  -39.8260   28.6950 S.3    78  MET78      -0.1125
    100  CE        12.2920  -38.0710   28.6960 C.3    78  MET78       0.0742
    101  N         14.9500  -41.7220   32.6790 N.am   79  LEU79      -0.1974
    102  CA        14.3480  -42.8070   33.4890 C.3    79  LEU79       0.1596
    103  C         15.1190  -43.2050   34.7690 C.2    79  LEU79       0.2287
    104  O         16.3590  -43.2330   34.8110 O.2    79  LEU79      -0.2864
    105  CB        14.1330  -44.0510   32.6330 C.3    79  LEU79       0.0297
    106  CG        13.1570  -43.8880   31.4700 C.3    79  LEU79       0.0022
    107  CD1       13.0760  -45.1800   30.6690 C.3    79  LEU79       0.0001
    108  CD2       11.7730  -43.4730   31.9480 C.3    79  LEU79       0.0001
    109  N         16.4520  -47.1420   34.6390 N.3    82  GLN82      -0.1245
    110  CA        17.7470  -47.1630   33.9600 C.3    82  GLN82       0.1566
    111  C         18.8720  -46.7210   34.8930 C.2    82  GLN82       0.2260
    112  O         19.8820  -47.4190   35.1010 O.2    82  GLN82      -0.2867
    113  CB        17.7030  -46.2320   32.7520 C.3    82  GLN82       0.0367
    114  CG        16.8920  -46.7780   31.5860 C.3    82  GLN82       0.0905
    115  CD        17.7000  -47.7210   30.7040 C.2    82  GLN82       0.2608
    116  OE1       18.2640  -47.3150   29.6820 O.2    82  GLN82      -0.2717
    117  NE2       17.7770  -48.9770   31.1070 N.am   82  GLN82      -0.0878
    118  N         17.1770  -36.1470   34.1550 N.3   111  GLY111     -0.1210
    119  CA        16.6090  -35.0280   33.4150 C.3   111  GLY111      0.1956
    120  C         16.4420  -35.2070   31.9230 C.2   111  GLY111      0.2612
    121  O         16.9160  -36.1690   31.3370 O.2   111  GLY111     -0.2717
    122  N         15.7500  -34.2450   31.3260 N.am  112  PHE112     -0.1962
    123  CA        15.5890  -34.1600   29.8850 C.3   112  PHE112      0.1771
    124  C         16.8950  -33.6470   29.2450 C.2   112  PHE112      0.2619
    125  O         17.5730  -32.7510   29.7580 O.2   112  PHE112     -0.2715
    126  CB        14.4320  -33.2250   29.5280 C.3   112  PHE112      0.0574
    127  CG        13.0640  -33.8190   29.7430 C.ar  112  PHE112     -0.0200
    128  CD1       12.6770  -34.3130   30.9910 C.ar  112  PHE112     -0.0042
    129  CD2       12.1310  -33.8400   28.6970 C.ar  112  PHE112     -0.0042
    130  CE1       11.4050  -34.8350   31.1810 C.ar  112  PHE112     -0.0003
    131  CE2       10.8530  -34.3590   28.8860 C.ar  112  PHE112     -0.0003
    132  CZ        10.4910  -34.8560   30.1290 C.ar  112  PHE112     -0.0000
    133  N         17.2420  -34.2260   28.1060 N.am  113  ILE113     -0.1963
    134  CA        18.4910  -33.8940   27.4480 C.3   113  ILE113      0.1727
    135  C         18.3240  -32.6190   26.6650 C.2   113  ILE113      0.2616
    136  O         19.3100  -31.9900   26.2750 O.2   113  ILE113     -0.2715
    137  CB        18.9760  -35.0160   26.5140 C.3   113  ILE113      0.0290
    138  CG1       17.9070  -35.3450   25.4690 C.3   113  ILE113      0.0022
    139  CG2       19.3990  -36.2350   27.3320 C.3   113  ILE113      0.0023
    140  CD1       18.4110  -36.2270   24.3560 C.3   113  ILE113      0.0001
    141  N         17.0760  -32.2140   26.4660 N.am  114  GLU114     -0.1977
    142  CA        16.8060  -30.9390   25.8370 C.3   114  GLU114      0.1602
    143  C         16.9770  -29.7780   26.8500 C.2   114  GLU114      0.2287
    144  O         16.6910  -28.6380   26.5100 O.2   114  GLU114     -0.2864
    145  CB        15.3980  -30.9360   25.2170 C.3   114  GLU114      0.0415
    146  CG        15.0950  -32.0730   24.2320 C.3   114  GLU114      0.1163
    147  CD        14.7910  -33.4200   24.9040 C.2   114  GLU114      0.3649
    148  OE1       15.0940  -33.5930   26.1130 O.co2 114  GLU114     -0.2457
    149  OE2       14.2550  -34.3320   24.2280 O.co2 114  GLU114     -0.2457
    150  N         24.8850  -42.9030   22.3020 N.3   135  ASN135     -0.1225
    151  CA        24.4120  -43.8120   21.2670 C.3   135  ASN135      0.1785
    152  C         22.9950  -44.2740   21.4110 C.2   135  ASN135      0.2597
    153  O         22.5790  -44.7810   22.4420 O.2   135  ASN135     -0.2718
    154  CB        25.3890  -44.9170   20.8100 C.3   135  ASN135      0.1169
    155  CG        25.7140  -45.9400   21.8530 C.2   135  ASN135      0.2627
    156  OD1       26.1110  -47.0400   21.4990 O.2   135  ASN135     -0.2716
    157  ND2       25.6130  -45.5900   23.1210 N.am  135  ASN135     -0.0877
    158  N         22.2700  -44.0150   20.3270 N.am  136  CYS136     -0.1956
    159  CA        20.9610  -44.5440   20.0560 C.3   136  CYS136      0.1843
    160  C         19.9040  -43.8080   20.8460 C.2   136  CYS136      0.2625
    161  O         19.0000  -44.4000   21.4210 O.2   136  CYS136     -0.2714
    162  CB        20.8970  -46.0570   20.2640 C.3   136  CYS136      0.0997
    163  SG        19.6690  -46.7500   19.1290 S.3   136  CYS136     -0.0797
    164  N         20.0060  -42.4910   20.8070 N.am  137  VAL137     -0.1977
    165  CA        19.2350  -41.6530   21.6930 C.3   137  VAL137      0.1596
    166  C         18.6250  -40.4310   21.0280 C.2   137  VAL137      0.2287
    167  O         17.4450  -40.2050   21.1900 O.2   137  VAL137     -0.2864
    168  CB        20.1330  -41.2040   22.8320 C.3   137  VAL137      0.0276
    169  CG1       19.4790  -40.0780   23.6130 C.3   137  VAL137      0.0022
    170  CG2       20.4640  -42.3960   23.7250 C.3   137  VAL137      0.0022
    171  N         15.3490  -40.2150   19.3050 N.3   140  LEU140     -0.1231
    172  CA        14.1890  -40.2140   20.1980 C.3   140  LEU140      0.1693
    173  C         13.6700  -38.8160   20.5690 C.2   140  LEU140      0.2593
    174  O         12.4620  -38.6280   20.6490 O.2   140  LEU140     -0.2718
    175  CB        14.4970  -40.9850   21.4880 C.3   140  LEU140      0.0284
    176  CG        14.8700  -42.4630   21.3580 C.3   140  LEU140      0.0019
    177  CD1       15.3070  -43.0690   22.6800 C.3   140  LEU140      0.0001
    178  CD2       13.7090  -43.2530   20.8030 C.3   140  LEU140      0.0001
    179  N         14.5510  -37.8440   20.8020 N.am  141  SER141     -0.1938
    180  CA        14.0900  -36.4950   21.1630 C.3   141  SER141      0.2055
    181  C         12.9180  -35.9830   20.3010 C.2   141  SER141      0.2643
    182  O         12.8100  -36.2930   19.1120 O.2   141  SER141     -0.2714
    183  CB        15.2370  -35.4820   21.0950 C.3   141  SER141      0.2130
    184  OG        14.7350  -34.1490   21.1040 O.3   141  SER141     -0.2179
    185  N         12.0490  -35.1940   20.9210 N.am  142  THR142     -0.1950
    186  CA        10.8940  -34.5980   20.2360 C.3   142  THR142      0.1897
    187  C         11.2120  -33.2230   19.6640 C.2   142  THR142      0.2313
    188  O         10.5400  -32.7540   18.7510 O.2   142  THR142     -0.2863
    189  CB         9.7100  -34.4390   21.2060 C.3   142  THR142      0.1794
    190  OG1       10.1930  -34.5460   22.5570 O.3   142  THR142     -0.2208
    191  CG2        8.6450  -35.5090   20.9410 C.3   142  THR142      0.0378
    192  N          8.6530  -45.7380   16.6050 N.3   183  TYR183     -0.1241
    193  CA         9.3490  -44.7410   17.3650 C.3   183  TYR183      0.1605
    194  C         10.1910  -45.3790   18.5150 C.2   183  TYR183      0.2264
    195  O         11.3220  -44.9730   18.7530 O.2   183  TYR183     -0.2867
    196  CB         8.3870  -43.6610   17.8650 C.3   183  TYR183      0.0534
    197  CG         9.0230  -42.8220   18.9430 C.ar  183  TYR183     -0.0201
    198  CD1        8.9930  -43.2520   20.2660 C.ar  183  TYR183     -0.0009
    199  CD2        9.6880  -41.6370   18.6480 C.ar  183  TYR183     -0.0009
    200  CE1        9.5850  -42.5290   21.2700 C.ar  183  TYR183      0.0417
    201  CE2       10.2920  -40.9030   19.6520 C.ar  183  TYR183      0.0417
    202  CZ        10.2290  -41.3610   20.9640 C.ar  183  TYR183      0.1957
    203  OH        10.8080  -40.7010   22.0180 O.3   183  TYR183     -0.2866
    204  N         13.8010  -47.0190   17.9390 N.3   186  CYS186     -0.1235
    205  CA        14.8270  -46.0700   17.4560 C.3   186  CYS186      0.1677
    206  C         14.8240  -45.8720   15.9250 C.2   186  CYS186      0.2270
    207  O         15.8630  -45.5560   15.3310 O.2   186  CYS186     -0.2867
    208  CB        16.2420  -46.4050   17.9600 C.3   186  CYS186      0.0956
    209  SG        16.3490  -46.2990   19.7540 S.3   186  CYS186     -0.0801
@<TRIPOS>BOND
     1   207   206    2
     2   206   205    1
     3   192   193    1
     4   193   196    1
     5   193   194    1
     6   205   204    1
     7   205   208    1
     8   196   197    1
     9   208   209    1
    10   194   195    2
    11   199   197   ar
    12   199   201   ar
    13   188   187    2
    14   197   198   ar
    15   182   181    2
    16   163   162    1
    17   171   172    1
    18   201   202   ar
    19   187   186    1
    20   159   162    1
    21   159   158    1
    22   159   160    1
    23   172   173    1
    24   172   175    1
    25   186   185    1
    26   186   189    1
    27   198   200   ar
    28    36    35    2
    29   181   185   am
    30   181   180    1
    31   158   152   am
    32    35    34    1
    33   173   174    2
    34   173   179   am
    35   179   180    1
    36   178   176    1
    37   164   160   am
    38   164   165    1
    39   154   151    1
    40   154   155    1
    41   160   161    2
    42   191   189    1
    43   202   200   ar
    44   202   203    1
    45   166   167    2
    46   166   165    1
    47   183   184    1
    48   183   180    1
    49   189   190    1
    50   151   152    1
    51   151   150    1
    52   176   175    1
    53   176   177    1
    54   152   153    2
    55   156   155    2
    56   165   168    1
    57   155   157   am
    58    34    33    1
    59    24    23    2
    60    23    33   am
    61    23    22    1
    62   168   169    1
    63   168   170    1
    64    20    19   ar
    65    20    18   ar
    66    19    17   ar
    67    76    74    1
    68    22    25    1
    69    22    21    1
    70    28    30   ar
    71    28    26   ar
    72    25    26    1
    73    84    82   ar
    74   149   147   ar
    75   146   147    1
    76   146   145    1
    77    75    74    1
    78   140   138    1
    79    74    73    2
    80    18    16   ar
    81    17    15   ar
    82    30    31   ar
    83    13    12    2
    84    26    27   ar
    85   147   148   ar
    86    21    12   am
    87    83    82   ar
    88    82    81    1
    89   145   142    1
    90    12    11    1
    91    73    72    1
    92   138   137    1
    93    16    15   ar
    94    15    14    1
    95   142   141    1
    96   142   143    1
    97    31    32    1
    98    31    29   ar
    99    27    29   ar
   100   136   135    2
   101    81    78    1
   102   141   135   am
   103   144   143    2
   104   137   139    1
   105   137   134    1
   106    43    42   ar
   107    72    71    1
   108   135   134    1
   109    14    11    1
   110    11    10    1
   111    46    45    1
   112    46    47    1
   113   134   133    1
   114    10     3   am
   115    42    44   ar
   116    42    41    1
   117    78    77    1
   118    78    79    1
   119    71    70    1
   120    38    39    1
   121    38    41    1
   122    38    37    1
   123    39    40    2
   124    47    49   am
   125    47    48    2
   126    49    50    1
   127   133   124   am
   128    77    68   am
   129    70    67    1
   130    80    79    2
   131     3     2    1
   132     3     4    2
   133    99   100    1
   134    99    98    1
   135   129   131   ar
   136   129   127   ar
   137   131   132   ar
   138    68    69    2
   139    68    67    1
   140     1     2    1
   141     2     5    1
   142    50    51    1
   143    50    53    1
   144   124   125    2
   145   124   123    1
   146    52    51    2
   147    51    55   am
   148    67    66    1
   149   126   127    1
   150   126   123    1
   151   116   115    2
   152   127   128   ar
   153    55    56    1
   154   123   122    1
   155    56    57    1
   156   132   130   ar
   157    92    90   ar
   158    98    97    2
   159    53    54    1
   160     5     6    1
   161   107   106    1
   162   115   117   am
   163   115   114    1
   164    97    94    1
   165    91    90   ar
   166    90    89    1
   167   128   130   ar
   168    64    63    1
   169    59    57   am
   170    59    60    1
   171    57    58    2
   172   122   120   am
   173   121   120    2
   174    93    94    1
   175    93    87   am
   176   106   108    1
   177   106   105    1
   178    86    89    1
   179    86    85    1
   180    86    87    1
   181   114   113    1
   182     6     7    1
   183   120   119    1
   184    94    95    1
   185    65    63    1
   186    87    88    2
   187    63    60    1
   188    60    61    1
   189    61    62    2
   190   105   102    1
   191   101    95   am
   192   101   102    1
   193   113   110    1
   194    95    96    2
   195     7     8    1
   196   119   118    1
   197   102   103    1
   198     8     9    1
   199   110   109    1
   200   110   111    1
   201   103   104    2
   202   111   112    2
