@<TRIPOS>MOLECULE
tmp/6cx8F00.pdb
 89 82 0 0 0
SMALL
GASTEIGER

@<TRIPOS>ATOM
      1  N        136.3040  102.7780   90.3700 N.3    24  ARG24      -0.1245
      2  CA       136.3320  103.5910   91.6030 C.3    24  ARG24       0.1563
      3  C        137.0140  102.8320   92.7510 C.2    24  ARG24       0.2260
      4  O        137.6630  103.4440   93.6000 O.2    24  ARG24      -0.2867
      5  CB       134.9460  104.0700   92.0190 C.3    24  ARG24       0.0307
      6  CG       134.5670  105.4280   91.4520 C.3    24  ARG24       0.0489
      7  CD       133.0930  105.6880   91.6500 C.3    24  ARG24       0.2205
      8  NE       132.4890  105.9100   92.9640 N.pl3  24  ARG24      -0.0865
      9  CZ       131.9300  104.9680   93.7630 C.cat  24  ARG24       0.5346
     10  NH1      132.0080  103.6330   93.5190 N.pl3  24  ARG24       0.1354
     11  NH2      131.3570  105.3580   94.8880 N.pl3  24  ARG24       0.1354
     12  N        136.1980  101.2930   95.6600 N.3    26  ILE26      -0.1245
     13  CA       135.7100  101.4020   97.0440 C.3    26  ILE26       0.1561
     14  C        134.3210  100.6180   96.9840 C.2    26  ILE26       0.2260
     15  O        133.7690  100.3390   95.9130 O.2    26  ILE26      -0.2867
     16  CB       135.5270  102.8390   97.5080 C.3    26  ILE26       0.0252
     17  CG1      134.2720  103.4240   96.8280 C.3    26  ILE26       0.0019
     18  CG2      136.8670  103.5750   97.2490 C.3    26  ILE26       0.0019
     19  CD1      133.8220  104.7550   97.3930 C.3    26  ILE26       0.0001
     20  N        125.2370  112.2680   93.6150 N.3    85  GLN85      -0.1245
     21  CA       126.5440  111.7680   93.2700 C.3    85  GLN85       0.1566
     22  C        126.6200  111.7920   91.7510 C.2    85  GLN85       0.2260
     23  O        125.6450  111.5530   91.0300 O.2    85  GLN85      -0.2867
     24  CB       126.6970  110.3400   93.7420 C.3    85  GLN85       0.0367
     25  CG       126.6850  110.2350   95.2590 C.3    85  GLN85       0.0905
     26  CD       126.9610  108.8260   95.7520 C.2    85  GLN85       0.2608
     27  OE1      126.6970  108.5200   96.9230 O.2    85  GLN85      -0.2717
     28  NE2      127.3240  107.9050   94.7930 N.am   85  GLN85      -0.0878
     29  N        128.3400  114.9220   99.2560 N.3   121  HIS121     -0.1226
     30  CA       129.5000  114.7170  100.1040 C.3   121  HIS121      0.1752
     31  C        130.7230  114.7240   99.1940 C.2   121  HIS121      0.2596
     32  O        130.6780  114.2410   98.0840 O.2   121  HIS121     -0.2718
     33  CB       129.4410  113.4120  100.8700 C.3   121  HIS121      0.0759
     34  CG       128.2690  113.3060  101.7870 C.ar  121  HIS121      0.0818
     35  ND1      127.2240  112.4580  101.5340 N.ar  121  HIS121     -0.2268
     36  CD2      127.9750  113.9090  102.9560 C.ar  121  HIS121      0.1154
     37  CE1      126.3520  112.5270  102.5160 C.ar  121  HIS121      0.1986
     38  NE2      126.7490  113.4570  103.3540 N.ar  121  HIS121     -0.2212
     39  N        131.7870  115.3740   99.6560 N.am  122  VAL122     -0.1966
     40  CA       133.0230  115.4210   98.9330 C.3   122  VAL122      0.1727
     41  C        134.1560  115.3370   99.9130 C.2   122  VAL122      0.2616
     42  O        134.1610  115.9960  100.9280 O.2   122  VAL122     -0.2715
     43  CB       133.1000  116.5920   97.9480 C.3   122  VAL122      0.0290
     44  CG1      132.6570  117.8530   98.6020 C.3   122  VAL122      0.0023
     45  CG2      134.5210  116.6810   97.3720 C.3   122  VAL122      0.0023
     46  N        135.0870  114.4510   99.6260 N.am  123  ALA123     -0.1977
     47  CA       136.2530  114.2410  100.4740 C.3   123  ALA123      0.1597
     48  C        136.9750  115.5460  100.7540 C.2   123  ALA123      0.2287
     49  O        137.1940  116.3060   99.8590 O.2   123  ALA123     -0.2864
     50  CB       137.2210  113.2470   99.8280 C.3   123  ALA123      0.0319
     51  N        140.0660  116.1640   98.8160 N.3   126  ASN126     -0.1240
     52  CA       139.9650  116.4120   97.3800 C.3   126  ASN126      0.1653
     53  C        139.4560  117.8700   97.2580 C.2   126  ASN126      0.2266
     54  O        138.3300  118.1420   96.7560 O.2   126  ASN126     -0.2867
     55  CB       138.9970  115.4100   96.7510 C.3   126  ASN126      0.1155
     56  CG       138.9100  115.4990   95.2220 C.2   126  ASN126      0.2627
     57  OD1      139.5090  116.3590   94.5830 O.2   126  ASN126     -0.2716
     58  ND2      138.1590  114.5910   94.6500 N.am  126  ASN126     -0.0877
     59  N        137.8460  119.1520   94.0320 N.3   129  ALA129     -0.1245
     60  CA       136.4220  118.7970   93.8430 C.3   129  ALA129      0.1562
     61  C        135.5410  119.7470   94.6540 C.2   129  ALA129      0.2260
     62  O        134.5160  120.2870   94.1270 O.2   129  ALA129     -0.2867
     63  CB       136.1700  117.3580   94.1840 C.3   129  ALA129      0.0290
     64  N        133.7130  108.3790  106.6790 N.3   148  PHE148     -0.1241
     65  CA       133.8890  107.2490  105.7960 C.3   148  PHE148      0.1605
     66  C        135.2550  106.5830  105.8820 C.2   148  PHE148      0.2264
     67  O        136.2610  107.2500  105.9420 O.2   148  PHE148     -0.2867
     68  CB       133.6200  107.6790  104.3350 C.3   148  PHE148      0.0534
     69  CG       132.1830  108.1780  104.0760 C.ar  148  PHE148     -0.0203
     70  CD1      131.0490  107.3990  104.4180 C.ar  148  PHE148     -0.0042
     71  CD2      131.9590  109.3850  103.4080 C.ar  148  PHE148     -0.0042
     72  CE1      129.7430  107.8530  104.1920 C.ar  148  PHE148     -0.0003
     73  CE2      130.6660  109.8310  103.1590 C.ar  148  PHE148     -0.0003
     74  CZ       129.5300  109.0430  103.5550 C.ar  148  PHE148     -0.0000
     75  N        137.8330  105.0000  103.9990 N.3   150  ILE150     -0.1245
     76  CA       138.2890  104.9720  102.6170 C.3   150  ILE150      0.1561
     77  C        139.7990  104.8000  102.5530 C.2   150  ILE150      0.2260
     78  O        140.5090  105.5730  103.1550 O.2   150  ILE150     -0.2867
     79  CB       137.8980  106.2680  101.9050 C.3   150  ILE150      0.0252
     80  CG1      136.3560  106.4610  101.9400 C.3   150  ILE150      0.0019
     81  CG2      138.4680  106.3060  100.4860 C.3   150  ILE150      0.0019
     82  CD1      135.8390  107.7910  101.3620 C.3   150  ILE150      0.0001
     83  N        134.5340  114.4560  105.3940 N.3   157  VAL157     -0.1245
     84  CA       133.9780  114.8840  104.1060 C.3   157  VAL157      0.1561
     85  C        133.2000  116.1480  104.3470 C.2   157  VAL157      0.2260
     86  O        132.6470  116.3610  105.4390 O.2   157  VAL157     -0.2867
     87  CB       132.9790  113.8780  103.4300 C.3   157  VAL157      0.0252
     88  CG1      133.6500  112.5510  103.1310 C.3   157  VAL157      0.0019
     89  CG2      131.7980  113.6160  104.3100 C.3   157  VAL157      0.0019
@<TRIPOS>BOND
     1     1     2    1
     2    23    22    2
     3     6     7    1
     4     6     5    1
     5     2     5    1
     6     2     3    1
     7     7     8    1
     8    22    21    1
     9     3     4    2
    10     8     9    2
    11    21    20    1
    12    21    24    1
    13    10     9    1
    14    24    25    1
    15     9    11    1
    16    60    59    1
    17    60    63    1
    18    60    61    1
    19    62    61    2
    20    57    56    2
    21    58    56   am
    22    28    26   am
    23    56    55    1
    24    25    26    1
    25    12    13    1
    26    26    27    2
    27    15    14    2
    28    55    52    1
    29    54    53    2
    30    17    19    1
    31    17    16    1
    32    14    13    1
    33    13    16    1
    34    18    16    1
    35    53    52    1
    36    45    43    1
    37    52    51    1
    38    43    44    1
    39    43    40    1
    40    32    31    2
    41    40    39    1
    42    40    41    1
    43    31    39   am
    44    31    30    1
    45    29    30    1
    46    46    41   am
    47    46    47    1
    48    50    47    1
    49    49    48    2
    50    41    42    2
    51    30    33    1
    52    47    48    1
    53    81    79    1
    54    33    34    1
    55    82    80    1
    56    35    34   ar
    57    35    37   ar
    58    34    36   ar
    59    79    80    1
    60    79    76    1
    61    37    38   ar
    62    77    76    1
    63    77    78    2
    64    76    75    1
    65    36    38   ar
    66    88    87    1
    67    73    71   ar
    68    73    74   ar
    69    71    69   ar
    70    87    84    1
    71    87    89    1
    72    74    72   ar
    73    69    68    1
    74    69    70   ar
    75    84    85    1
    76    84    83    1
    77    72    70   ar
    78    68    65    1
    79    85    86    2
    80    65    66    1
    81    65    64    1
    82    66    67    2
