@<TRIPOS>MOLECULE
tmp/6cxmA01.pdb
 195 190 0 0 0
SMALL
GASTEIGER

@<TRIPOS>ATOM
      1  N         26.1690  -10.9390   15.1010 N.3     5  ILE5       -0.1231
      2  CA        25.5730  -10.1760   14.0040 C.3     5  ILE5        0.1692
      3  C         26.6190   -9.2090   13.4490 C.2     5  ILE5        0.2592
      4  O         27.3000   -8.5170   14.2140 O.2     5  ILE5       -0.2718
      5  CB        24.2920   -9.4260   14.4440 C.3     5  ILE5        0.0266
      6  CG1       23.6360   -8.7400   13.2510 C.3     5  ILE5        0.0019
      7  CG2       24.5710   -8.3990   15.5460 C.3     5  ILE5        0.0020
      8  CD1       22.2500   -8.2090   13.5390 C.3     5  ILE5        0.0001
      9  N         26.7500   -9.1550   12.1200 N.am    6  TRP6       -0.1962
     10  CA        27.6930   -8.2310   11.4900 C.3     6  TRP6        0.1771
     11  C         27.3070   -7.9980   10.0300 C.2     6  TRP6        0.2619
     12  O         26.5030   -8.7270    9.4400 O.2     6  TRP6       -0.2715
     13  CB        29.1480   -8.7370   11.5890 C.3     6  TRP6        0.0590
     14  CG        29.4980   -9.8620   10.6240 C.ar    6  TRP6        0.0006
     15  CD1       29.8040   -9.7460    9.2900 C.ar    6  TRP6        0.0946
     16  CD2       29.5800  -11.2650   10.9280 C.ar    6  TRP6        0.0152
     17  NE1       30.0650  -10.9880    8.7510 N.ar    6  TRP6       -0.2442
     18  CE2       29.9330  -11.9340    9.7340 C.ar    6  TRP6        0.0810
     19  CE3       29.3880  -12.0190   12.0920 C.ar    6  TRP6        0.0012
     20  CZ2       30.0910  -13.3150    9.6740 C.ar    6  TRP6        0.0191
     21  CZ3       29.5410  -13.3910   12.0280 C.ar    6  TRP6        0.0001
     22  CH2       29.8910  -14.0250   10.8280 C.ar    6  TRP6        0.0015
     23  N         27.9110   -6.9600    9.4560 N.am    7  ALA7       -0.1977
     24  CA        27.8400   -6.6640    8.0340 C.3     7  ALA7        0.1597
     25  C         29.2480   -6.7240    7.4540 C.2     7  ALA7        0.2287
     26  O         30.2290   -6.4070    8.1330 O.2     7  ALA7       -0.2864
     27  CB        27.2260   -5.2830    7.7820 C.3     7  ALA7        0.0319
     28  N         33.2960    1.6160    9.6450 N.3    20  ILE20      -0.1245
     29  CA        32.7430    0.7440    8.6160 C.3    20  ILE20       0.1561
     30  C         32.7940    1.4950    7.2910 C.2    20  ILE20       0.2260
     31  O         32.3590    2.6540    7.2350 O.2    20  ILE20      -0.2867
     32  CB        31.3050    0.3130    8.9540 C.3    20  ILE20       0.0252
     33  CG1       31.2310   -0.2290   10.3860 C.3    20  ILE20       0.0019
     34  CG2       30.8050   -0.7340    7.9580 C.3    20  ILE20       0.0019
     35  CD1       29.8290   -0.1980   10.9790 C.3    20  ILE20       0.0001
     36  N         31.1960    1.9290    4.4700 N.3    22  TRP22      -0.1227
     37  CA        29.9810    2.0720    3.6720 C.3    22  TRP22       0.1737
     38  C         28.8800    2.5680    4.5990 C.2    22  TRP22       0.2595
     39  O         28.9470    2.3790    5.8190 O.2    22  TRP22      -0.2718
     40  CB        29.5460    0.7590    2.9920 C.3    22  TRP22       0.0564
     41  CG        29.2070   -0.3600    3.9450 C.ar   22  TRP22       0.0003
     42  CD1       28.0300   -0.5400    4.6160 C.ar   22  TRP22       0.0946
     43  CD2       30.0540   -1.4550    4.3210 C.ar   22  TRP22       0.0152
     44  NE1       28.0940   -1.6790    5.3840 N.ar   22  TRP22      -0.2442
     45  CE2       29.3270   -2.2550    5.2220 C.ar   22  TRP22       0.0810
     46  CE3       31.3570   -1.8340    3.9850 C.ar   22  TRP22       0.0012
     47  CZ2       29.8660   -3.4120    5.7970 C.ar   22  TRP22       0.0191
     48  CZ3       31.8830   -2.9910    4.5500 C.ar   22  TRP22       0.0001
     49  CH2       31.1410   -3.7610    5.4430 C.ar   22  TRP22       0.0015
     50  N         27.8700    3.2080    4.0060 N.am   23  ARG23      -0.1980
     51  CA        26.6470    3.5890    4.7030 C.3    23  ARG23       0.1597
     52  C         25.4830    2.8390    4.0660 C.2    23  ARG23       0.2287
     53  O         25.3170    2.8710    2.8430 O.2    23  ARG23      -0.2864
     54  CB        26.4290    5.1050    4.6550 C.3    23  ARG23       0.0334
     55  CG        27.5870    5.7960    5.4400 C.3    23  ARG23       0.0492
     56  CD        27.1340    5.9160    6.8660 C.3    23  ARG23       0.2205
     57  NE        28.1020    6.2910    7.8560 N.pl3  23  ARG23      -0.0865
     58  CZ        29.2890    5.7620    8.1790 C.cat  23  ARG23       0.5346
     59  NH1       29.7060    4.5920    7.6570 N.pl3  23  ARG23       0.1354
     60  NH2       30.0670    6.4650    9.0360 N.pl3  23  ARG23       0.1354
     61  N         20.7090   -1.9010    6.5320 N.3    27  ASP27      -0.1225
     62  CA        21.4120   -2.7200    7.5100 C.3    27  ASP27       0.1805
     63  C         21.3610   -2.0840    8.8930 C.2    27  ASP27       0.2597
     64  O         21.2550   -2.7900    9.9040 O.2    27  ASP27      -0.2718
     65  CB        22.8590   -2.9580    7.0720 C.3    27  ASP27       0.1424
     66  CG        23.6890   -3.6290    8.1520 C.2    27  ASP27       0.3668
     67  OD1       23.5630   -4.8620    8.3220 O.co2  27  ASP27      -0.2456
     68  OD2       24.4610   -2.9170    8.8290 O.co2  27  ASP27      -0.2456
     69  N         21.4210   -0.7540    8.9600 N.am   28  LEU28      -0.1979
     70  CA        21.2420   -0.0940   10.2480 C.3    28  LEU28       0.1596
     71  C         19.8650   -0.4130   10.8190 C.2    28  LEU28       0.2287
     72  O         19.7270   -0.7080   12.0130 O.2    28  LEU28      -0.2864
     73  CB        21.4520    1.4140   10.0980 C.3    28  LEU28       0.0297
     74  CG        21.1110    2.3820   11.2390 C.3    28  LEU28       0.0022
     75  CD1       21.6030    1.8850   12.5870 C.3    28  LEU28       0.0001
     76  CD2       21.7150    3.7440   10.9360 C.3    28  LEU28       0.0001
     77  N         17.9590   -3.1030   10.1770 N.3    30  ARG30      -0.1231
     78  CA        17.8570   -4.4980   10.5930 C.3    30  ARG30       0.1694
     79  C         18.6510   -4.7610   11.8640 C.2    30  ARG30       0.2592
     80  O         18.1420   -5.3960   12.7970 O.2    30  ARG30      -0.2718
     81  CB        18.3340   -5.4300    9.4840 C.3    30  ARG30       0.0321
     82  CG        18.3420   -6.8740    9.9230 C.3    30  ARG30       0.0489
     83  CD        18.4980   -7.7950    8.7500 C.3    30  ARG30       0.2205
     84  NE        18.5800   -9.1950    9.1480 N.pl3  30  ARG30      -0.0865
     85  CZ        17.6010  -10.0740    8.9640 C.cat  30  ARG30       0.5346
     86  NH1       16.4670   -9.6920    8.3860 N.pl3  30  ARG30       0.1354
     87  NH2       17.7560  -11.3340    9.3520 N.pl3  30  ARG30       0.1354
     88  N         19.8870   -4.2550   11.9340 N.am   31  PHE31      -0.1962
     89  CA        20.6840   -4.4330   13.1440 C.3    31  PHE31       0.1771
     90  C         19.9490   -3.9030   14.3700 C.2    31  PHE31       0.2619
     91  O         19.9940   -4.5140   15.4470 O.2    31  PHE31      -0.2715
     92  CB        22.0400   -3.7400   12.9910 C.3    31  PHE31       0.0574
     93  CG        22.7690   -3.5650   14.2920 C.ar   31  PHE31      -0.0200
     94  CD1       23.4440   -4.6310   14.8660 C.ar   31  PHE31      -0.0042
     95  CD2       22.7570   -2.3440   14.9580 C.ar   31  PHE31      -0.0042
     96  CE1       24.1000   -4.4830   16.0720 C.ar   31  PHE31      -0.0003
     97  CE2       23.4130   -2.1920   16.1650 C.ar   31  PHE31      -0.0003
     98  CZ        24.0840   -3.2640   16.7230 C.ar   31  PHE31      -0.0000
     99  N         19.2480   -2.7770   14.2130 N.am   32  LYS32      -0.1977
    100  CA        18.5600   -2.1440   15.3350 C.3    32  LYS32       0.1596
    101  C         17.3580   -2.9580   15.7980 C.2    32  LYS32       0.2287
    102  O         17.0860   -3.0330   17.0030 O.2    32  LYS32      -0.2864
    103  CB        18.1280   -0.7300   14.9380 C.3    32  LYS32       0.0298
    104  CG        17.7440    0.1560   16.0970 C.3    32  LYS32       0.0038
    105  CD        17.7220    1.6020   15.6750 C.3    32  LYS32       0.0206
    106  CE        17.1090    2.4600   16.7580 C.3    32  LYS32       0.1093
    107  NZ        16.8850    3.8310   16.2450 N.3    32  LYS32      -0.1314
    108  N         35.3500   -1.1440   18.9670 N.3    46  THR46      -0.1218
    109  CA        34.0160   -0.8880   18.4200 C.3    46  THR46       0.1862
    110  C         33.2990    0.1840   19.2340 C.2    46  THR46       0.2287
    111  O         32.6780    1.0910   18.6700 O.2    46  THR46      -0.2866
    112  CB        33.1770   -2.1750   18.3800 C.3    46  THR46       0.1770
    113  OG1       33.7650   -3.1270   17.4890 O.3    46  THR46      -0.2211
    114  CG2       31.7700   -1.8940   17.8760 C.3    46  THR46       0.0375
    115  N         34.4690    3.4390   18.1700 N.3    49  SER49      -0.1202
    116  CA        34.1030    3.6990   16.7850 C.3    49  SER49       0.2020
    117  C         32.6740    4.2070   16.6430 C.2    49  SER49       0.2619
    118  O         32.2930    4.6570   15.5560 O.2    49  SER49      -0.2717
    119  CB        34.2530    2.4200   15.9670 C.3    49  SER49       0.2103
    120  OG        33.1520    1.5600   16.1850 O.3    49  SER49      -0.2182
    121  N         31.8930    4.1520   17.7100 N.am   50  LEU50      -0.1966
    122  CA        30.5260    4.6280   17.6560 C.3    50  LEU50       0.1713
    123  C         30.4950    6.1220   17.3630 C.2    50  LEU50       0.2458
    124  O         31.3780    6.8680   17.8150 O.2    50  LEU50      -0.2730
    125  CB        29.8080    4.3620   18.9780 C.3    50  LEU50       0.0310
    126  CG        29.5110    2.8990   19.2650 C.3    50  LEU50       0.0022
    127  CD1       28.8480    2.7640   20.6140 C.3    50  LEU50       0.0001
    128  CD2       28.6340    2.3560   18.1690 C.3    50  LEU50       0.0001
    129  N         29.5270    6.5840   16.5820 N.am   51  PRO51      -0.2727
    130  CA        29.2520    8.0190   16.5330 C.3    51  PRO51       0.1402
    131  C         28.8330    8.4870   17.9160 C.2    51  PRO51       0.2269
    132  O         28.1320    7.7740   18.6380 O.2    51  PRO51      -0.2865
    133  CB        28.1040    8.1240   15.5230 C.3    51  PRO51       0.0296
    134  CG        28.1940    6.8780   14.7040 C.3    51  PRO51       0.0237
    135  CD        28.7050    5.8170   15.6310 C.3    51  PRO51       0.0939
    136  N         25.2990    8.1610   19.3110 N.3    54  VAL54      -0.1245
    137  CA        24.7650    6.8410   19.5830 C.3    54  VAL54       0.1561
    138  C         25.6900    6.0420   20.5120 C.2    54  VAL54       0.2260
    139  O         25.6780    4.8060   20.5010 O.2    54  VAL54      -0.2867
    140  CB        24.4680    6.1120   18.2610 C.3    54  VAL54       0.0252
    141  CG1       25.7500    5.6070   17.6040 C.3    54  VAL54       0.0019
    142  CG2       23.4260    5.0250   18.4520 C.3    54  VAL54       0.0019
    143  N         24.5820    2.7630   22.6130 N.3    57  LEU57      -0.1231
    144  CA        23.4480    2.5190   21.7340 C.3    57  LEU57       0.1678
    145  C         22.1510    2.5290   22.5350 C.2    57  LEU57       0.2434
    146  O         22.0710    1.8770   23.5840 O.2    57  LEU57      -0.2733
    147  CB        23.6170    1.1870   21.0140 C.3    57  LEU57       0.0284
    148  CG        24.9440    1.0020   20.2830 C.3    57  LEU57       0.0019
    149  CD1       25.1880   -0.4710   19.9610 C.3    57  LEU57       0.0001
    150  CD2       24.9520    1.8490   19.0220 C.3    57  LEU57       0.0001
    151  N         21.1140    3.2170   22.0690 N.am   58  PRO58      -0.2729
    152  CA        19.9240    3.4080   22.9010 C.3    58  PRO58       0.1401
    153  C         19.0730    2.1510   22.9600 C.2    58  PRO58       0.2269
    154  O         19.0230    1.3570   22.0180 O.2    58  PRO58      -0.2865
    155  CB        19.1830    4.5590   22.2060 C.3    58  PRO58       0.0296
    156  CG        19.6410    4.5190   20.7800 C.3    58  PRO58       0.0237
    157  CD        21.0080    3.8790   20.7560 C.3    58  PRO58       0.0939
    158  N         19.3980   -0.5810   24.7520 N.3    60  ARG60      -0.1245
    159  CA        20.0670   -1.8570   24.9520 C.3    60  ARG60       0.1563
    160  C         21.1300   -1.7040   26.0230 C.2    60  ARG60       0.2260
    161  O         21.7350   -0.6420   26.1720 O.2    60  ARG60      -0.2867
    162  CB        20.7280   -2.3840   23.6670 C.3    60  ARG60       0.0307
    163  CG        19.7640   -2.8510   22.5870 C.3    60  ARG60       0.0489
    164  CD        20.3590   -2.5890   21.2110 C.3    60  ARG60       0.2205
    165  NE        20.2580   -1.1730   20.8740 N.pl3  60  ARG60      -0.0865
    166  CZ        20.5340   -0.6570   19.6810 C.cat  60  ARG60       0.5346
    167  NH1       20.9360   -1.4400   18.6920 N.pl3  60  ARG60       0.1354
    168  NH2       20.4020    0.6480   19.4790 N.pl3  60  ARG60       0.1354
    169  N         28.2540   -7.9350   18.8870 N.3    91  ILE91      -0.1245
    170  CA        28.1430   -6.9650   17.8070 C.3    91  ILE91       0.1561
    171  C         29.5090   -6.5140   17.2940 C.2    91  ILE91       0.2260
    172  O         29.5870   -5.5480   16.5280 O.2    91  ILE91      -0.2867
    173  CB        27.2700   -5.7640   18.2250 C.3    91  ILE91       0.0252
    174  CG1       27.9880   -4.8780   19.2400 C.3    91  ILE91       0.0019
    175  CG2       25.9520   -6.2430   18.8180 C.3    91  ILE91       0.0019
    176  CD1       27.3160   -3.5410   19.4770 C.3    91  ILE91       0.0001
    177  N         34.7450  -11.3210   17.4850 N.3    97  TYR97      -0.1241
    178  CA        34.1490  -12.3900   16.6880 C.3    97  TYR97       0.1605
    179  C         35.0260  -13.6350   16.6970 C.2    97  TYR97       0.2264
    180  O         34.5230  -14.7550   16.8460 O.2    97  TYR97      -0.2867
    181  CB        33.9060  -11.9160   15.2540 C.3    97  TYR97       0.0534
    182  CG        32.8000  -10.8850   15.1090 C.ar   97  TYR97      -0.0201
    183  CD1       31.6560  -10.9500   15.8900 C.ar   97  TYR97      -0.0009
    184  CD2       32.9140   -9.8310   14.1960 C.ar   97  TYR97      -0.0009
    185  CE1       30.6500   -9.9970   15.7640 C.ar   97  TYR97       0.0417
    186  CE2       31.9210   -8.8770   14.0700 C.ar   97  TYR97       0.0417
    187  CZ        30.7880   -8.9690   14.8490 C.ar   97  TYR97       0.1957
    188  OH        29.7850   -8.0330   14.7250 O.3    97  TYR97      -0.2866
    189  N         25.0410   -9.5410    7.1510 N.3   110  THR110     -0.1218
    190  CA        24.7130   -8.6970    6.0080 C.3   110  THR110      0.1862
    191  C         25.9010   -8.7350    5.0560 C.2   110  THR110      0.2287
    192  O         27.0530   -8.6640    5.5010 O.2   110  THR110     -0.2866
    193  CB        24.4200   -7.2570    6.4310 C.3   110  THR110      0.1770
    194  OG1       23.4830   -7.2510    7.5140 O.3   110  THR110     -0.2211
    195  CG2       23.8610   -6.4430    5.2620 C.3   110  THR110      0.0375
@<TRIPOS>BOND
     1    53    52    2
     2    40    37    1
     3    40    41    1
     4    37    36    1
     5    37    38    1
     6    41    43   ar
     7    41    42   ar
     8    46    43   ar
     9    46    48   ar
    10    50    38   am
    11    50    51    1
    12    52    51    1
    13    43    45   ar
    14    48    49   ar
    15    38    39    2
    16    42    44   ar
    17    54    51    1
    18    54    55    1
    19   191   192    2
    20   191   190    1
    21    45    44   ar
    22    45    47   ar
    23   195   193    1
    24    55    56    1
    25    49    47   ar
    26   190   193    1
    27   190   189    1
    28   193   194    1
    29    61    62    1
    30    56    57    1
    31    65    62    1
    32    65    66    1
    33    31    30    2
    34    30    29    1
    35    25    24    1
    36    25    26    2
    37    62    63    1
    38    59    58    1
    39    27    24    1
    40    57    58    2
    41    34    32    1
    42    24    23    1
    43    66    67   ar
    44    66    68   ar
    45    58    60    1
    46    86    85    1
    47    29    32    1
    48    29    28    1
    49    83    84    1
    50    83    82    1
    51    17    15   ar
    52    17    18   ar
    53    63    69   am
    54    63    64    2
    55    32    33    1
    56    69    70    1
    57    85    84    2
    58    85    87    1
    59    15    14   ar
    60    12    11    2
    61    23    11   am
    62    81    82    1
    63    81    78    1
    64    20    18   ar
    65    20    22   ar
    66    18    16   ar
    67    11    10    1
    68    73    70    1
    69    73    74    1
    70    77    78    1
    71    70    71    1
    72    33    35    1
    73    78    79    1
    74    14    16   ar
    75    14    13    1
    76    71    72    2
    77    22    21   ar
    78    16    19   ar
    79    76    74    1
    80    74    75    1
    81    10    13    1
    82    10     9    1
    83    79    88   am
    84    79    80    2
    85    88    89    1
    86    21    19   ar
    87     9     3   am
    88    92    89    1
    89    92    93    1
    90    89    90    1
    91     6     8    1
    92     6     5    1
    93     3     2    1
    94     3     4    2
    95     2     5    1
    96     2     1    1
    97   186   184   ar
    98   186   187   ar
    99   184   182   ar
   100    99    90   am
   101    99   100    1
   102    93    94   ar
   103    93    95   ar
   104    90    91    2
   105     5     7    1
   106   134   133    1
   107   134   135    1
   108   188   187    1
   109   187   185   ar
   110    94    96   ar
   111   103   100    1
   112   103   104    1
   113    95    97   ar
   114   182   181    1
   115   182   183   ar
   116   181   178    1
   117   100   101    1
   118   133   130    1
   119   118   117    2
   120   135   129    1
   121   105   104    1
   122   105   106    1
   123   185   183   ar
   124   101   102    2
   125   119   120    1
   126   119   116    1
   127    96    98   ar
   128    97    98   ar
   129   107   106    1
   130   172   171    2
   131   130   129    1
   132   130   131    1
   133   129   123   am
   134   117   116    1
   135   117   121   am
   136   178   179    1
   137   178   177    1
   138   179   180    2
   139   116   115    1
   140   171   170    1
   141   123   122    1
   142   123   124    2
   143   113   112    1
   144   141   140    1
   145   122   121    1
   146   122   125    1
   147   170   173    1
   148   170   169    1
   149   114   112    1
   150   131   132    2
   151   128   126    1
   152   173   175    1
   153   173   174    1
   154   140   142    1
   155   140   137    1
   156   112   109    1
   157   109   108    1
   158   109   110    1
   159   111   110    2
   160   167   166    1
   161   125   126    1
   162   150   148    1
   163   174   176    1
   164   126   127    1
   165   136   137    1
   166   168   166    1
   167   137   138    1
   168   166   165    2
   169   149   148    1
   170   148   147    1
   171   139   138    2
   172   157   156    1
   173   157   151    1
   174   156   155    1
   175   165   164    1
   176   147   144    1
   177   164   163    1
   178   144   145    1
   179   144   143    1
   180   154   153    2
   181   151   145   am
   182   151   152    1
   183   155   152    1
   184   145   146    2
   185   163   162    1
   186   152   153    1
   187   162   159    1
   188   158   159    1
   189   159   160    1
   190   160   161    2
