@<TRIPOS>MOLECULE
tmp/6cxtB00.pdb
 213 200 0 0 0
SMALL
GASTEIGER

@<TRIPOS>ATOM
      1  N         13.6560   32.8720  133.2570 N.3    77  PHE77      -0.1241
      2  CA        12.8270   33.9370  133.8220 C.3    77  PHE77       0.1605
      3  C         11.6020   34.1790  132.8960 C.2    77  PHE77       0.2264
      4  O         10.4900   34.2080  133.3710 O.2    77  PHE77      -0.2867
      5  CB        13.6570   35.1910  133.9320 C.3    77  PHE77       0.0534
      6  CG        12.8670   36.4340  134.2420 C.ar   77  PHE77      -0.0203
      7  CD1       12.2120   36.5860  135.4470 C.ar   77  PHE77      -0.0042
      8  CD2       12.8530   37.4920  133.3350 C.ar   77  PHE77      -0.0042
      9  CE1       11.4440   37.7620  135.7220 C.ar   77  PHE77      -0.0003
     10  CE2       12.1100   38.6680  133.5790 C.ar   77  PHE77      -0.0003
     11  CZ        11.4300   38.8140  134.7920 C.ar   77  PHE77      -0.0000
     12  N          7.7460   33.5220  134.0390 N.3    81  ALA81      -0.1245
     13  CA         6.8140   34.6260  134.0330 C.3    81  ALA81       0.1562
     14  C          5.5390   34.1000  133.3170 C.2    81  ALA81       0.2260
     15  O          4.4390   34.2360  133.8020 O.2    81  ALA81      -0.2867
     16  CB         7.3870   35.7830  133.2320 C.3    81  ALA81       0.0290
     17  N          2.8670   33.6720  136.3090 N.3    85  ALA85      -0.1245
     18  CA         2.0260   34.8490  136.3040 C.3    85  ALA85       0.1562
     19  C          0.8330   34.7450  135.3090 C.2    85  ALA85       0.2260
     20  O         -0.0840   35.5810  135.3630 O.2    85  ALA85      -0.2867
     21  CB         2.8150   36.1520  136.0750 C.3    85  ALA85       0.0290
     22  N          2.4650   38.8120  131.3250 N.3   115  ASN115     -0.1240
     23  CA         1.7260   39.4130  132.4140 C.3   115  ASN115      0.1653
     24  C          1.8110   40.9490  132.2930 C.2   115  ASN115      0.2266
     25  O          2.8870   41.4730  132.2070 O.2   115  ASN115     -0.2867
     26  CB         2.3470   38.9220  133.7200 C.3   115  ASN115      0.1155
     27  CG         1.6640   39.4510  134.9360 C.2   115  ASN115      0.2627
     28  OD1        2.3150   39.8180  135.9000 O.2   115  ASN115     -0.2716
     29  ND2        0.3800   39.4520  134.9180 N.am  115  ASN115     -0.0877
     30  N          0.6340   44.4480  134.1460 N.3   117  ILE117     -0.1231
     31  CA        -0.0620   45.2740  135.1490 C.3   117  ILE117      0.1692
     32  C          0.5880   46.6450  135.2910 C.2   117  ILE117      0.2592
     33  O         -0.1390   47.6450  135.3340 O.2   117  ILE117     -0.2718
     34  CB        -0.2580   44.5080  136.5160 C.3   117  ILE117      0.0266
     35  CG1       -1.0930   45.3630  137.4740 C.3   117  ILE117      0.0019
     36  CG2        1.1120   44.1970  137.1890 C.3   117  ILE117      0.0020
     37  CD1       -1.6350   44.6780  138.6900 C.3   117  ILE117      0.0001
     38  N          1.9470   46.7230  135.3000 N.am  118  SER118     -0.1952
     39  CA         2.6590   47.9890  135.5900 C.3   118  SER118      0.1924
     40  C          2.3350   49.0490  134.5170 C.2   118  SER118      0.2314
     41  O          2.1660   48.6820  133.3490 O.2   118  SER118     -0.2863
     42  CB         4.1990   47.7550  135.6580 C.3   118  SER118      0.2116
     43  OG         4.4320   46.7190  136.6310 O.3   118  SER118     -0.2180
     44  N          3.5410   51.2620  139.6240 N.3   123  GLY123     -0.1210
     45  CA         4.6160   50.2430  139.7160 C.3   123  GLY123      0.1956
     46  C          4.4840   49.4770  141.0210 C.2   123  GLY123      0.2613
     47  O          3.8700   48.4010  141.0830 O.2   123  GLY123     -0.2717
     48  N          5.1050   50.0130  142.0590 N.am  124  SER124     -0.1938
     49  CA         4.9740   49.4090  143.3860 C.3   124  SER124      0.2055
     50  C          3.5220   49.5400  143.9320 C.2   124  SER124      0.2643
     51  O          3.0550   48.6990  144.7180 O.2   124  SER124     -0.2714
     52  CB         5.9120   50.1290  144.3710 C.3   124  SER124      0.2130
     53  OG         7.2810   49.8960  143.9950 O.3   124  SER124     -0.2179
     54  N          2.8580   50.6310  143.5270 N.am  125  ASP125     -0.1957
     55  CA         1.4570   50.8680  143.8830 C.3   125  ASP125      0.1840
     56  C          0.5860   50.5910  142.6520 C.2   125  ASP125      0.2621
     57  O          0.7030   51.2720  141.6360 O.2   125  ASP125     -0.2715
     58  CB         1.2710   52.3440  144.3040 C.3   125  ASP125      0.1450
     59  CG        -0.1120   52.5700  144.9640 C.2   125  ASP125      0.3671
     60  OD1       -1.0970   52.0010  144.4870 O.co2 125  ASP125     -0.2456
     61  OD2       -0.1820   53.2140  146.0280 O.co2 125  ASP125     -0.2456
     62  N         -0.2550   49.5850  142.7500 N.am  126  ILE126     -0.1977
     63  CA        -1.0590   49.1710  141.6030 C.3   126  ILE126      0.1596
     64  C         -2.5460   49.3790  141.9760 C.2   126  ILE126      0.2287
     65  O         -3.4220   48.7460  141.4150 O.2   126  ILE126     -0.2864
     66  CB        -0.8000   47.6870  141.2920 C.3   126  ILE126      0.0276
     67  CG1       -0.7900   46.9210  142.6180 C.3   126  ILE126      0.0022
     68  CG2        0.5260   47.5090  140.5140 C.3   126  ILE126      0.0022
     69  CD1       -0.9130   45.4420  142.4360 C.3   126  ILE126      0.0001
     70  N          6.0960   47.7180  131.3050 N.3   148  TYR148     -0.1241
     71  CA         7.2730   46.8080  131.4460 C.3   148  TYR148      0.1605
     72  C          6.7400   45.4060  131.3570 C.2   148  TYR148      0.2264
     73  O          6.5720   44.7200  132.3590 O.2   148  TYR148     -0.2867
     74  CB         7.9310   46.9770  132.8220 C.3   148  TYR148      0.0534
     75  CG         8.4530   48.3550  133.0340 C.ar  148  TYR148     -0.0201
     76  CD1        9.5130   48.8440  132.2390 C.ar  148  TYR148     -0.0009
     77  CD2        7.8910   49.1930  133.9950 C.ar  148  TYR148     -0.0009
     78  CE1        9.9750   50.1280  132.3990 C.ar  148  TYR148      0.0417
     79  CE2        8.3530   50.5020  134.1650 C.ar  148  TYR148      0.0417
     80  CZ         9.4100   50.9420  133.3750 C.ar  148  TYR148      0.1957
     81  OH         9.9240   52.1970  133.4670 O.3   148  TYR148     -0.2866
     82  N          7.2240   41.6960  130.4900 N.3   150  THR150     -0.1218
     83  CA         8.1360   40.6320  130.1620 C.3   150  THR150      0.1862
     84  C          7.4420   39.7180  129.1210 C.2   150  THR150      0.2287
     85  O          6.2480   39.3780  129.2890 O.2   150  THR150     -0.2866
     86  CB         8.5260   39.8620  131.4470 C.3   150  THR150      0.1770
     87  OG1        9.3910   40.7040  132.2340 O.3   150  THR150     -0.2211
     88  CG2        9.2670   38.5700  131.1080 C.3   150  THR150      0.0375
     89  N         -9.8850   49.1400  145.5380 N.3   170  TYR170     -0.1241
     90  CA        -9.2290   47.8370  145.6040 C.3   170  TYR170      0.1605
     91  C        -10.0290   46.7050  145.0050 C.2   170  TYR170      0.2264
     92  O         -9.4540   45.7360  144.4680 O.2   170  TYR170     -0.2867
     93  CB        -8.8650   47.5570  147.1070 C.3   170  TYR170      0.0534
     94  CG        -8.4530   46.1660  147.5030 C.ar  170  TYR170     -0.0201
     95  CD1       -7.3160   45.5570  146.9440 C.ar  170  TYR170     -0.0009
     96  CD2       -9.1850   45.4550  148.4800 C.ar  170  TYR170     -0.0009
     97  CE1       -6.9290   44.2710  147.3360 C.ar  170  TYR170      0.0417
     98  CE2       -8.8170   44.1690  148.8820 C.ar  170  TYR170      0.0417
     99  CZ        -7.6770   43.5810  148.3080 C.ar  170  TYR170      0.1957
    100  OH        -7.3010   42.3180  148.7160 O.3   170  TYR170     -0.2866
    101  N         -7.5920   42.7540  141.5700 N.3   224  ALA224     -0.1245
    102  CA        -6.5360   42.9220  142.5820 C.3   224  ALA224      0.1562
    103  C         -6.1620   41.6180  143.2930 C.2   224  ALA224      0.2260
    104  O         -4.9670   41.3290  143.4830 O.2   224  ALA224     -0.2867
    105  CB        -6.8890   44.0070  143.5750 C.3   224  ALA224      0.0290
    106  N         -4.5110   39.1330  140.9250 N.3   227  PHE227     -0.1227
    107  CA        -3.1190   39.5600  140.7520 C.3   227  PHE227      0.1736
    108  C         -2.2870   39.1220  141.9910 C.2   227  PHE227      0.2595
    109  O         -1.2420   38.4720  141.8610 O.2   227  PHE227     -0.2718
    110  CB        -2.9870   41.0380  140.5550 C.3   227  PHE227      0.0547
    111  CG        -1.5490   41.4330  140.3690 C.ar  227  PHE227     -0.0202
    112  CD1       -0.8450   40.9770  139.2160 C.ar  227  PHE227     -0.0042
    113  CD2       -0.8520   42.1170  141.3900 C.ar  227  PHE227     -0.0042
    114  CE1        0.5210   41.2580  139.0610 C.ar  227  PHE227     -0.0003
    115  CE2        0.5150   42.4170  141.2180 C.ar  227  PHE227     -0.0003
    116  CZ         1.1820   41.9920  140.0620 C.ar  227  PHE227     -0.0000
    117  N         -2.7940   39.4150  143.1980 N.am  228  ALA228     -0.1980
    118  CA        -2.1160   38.9200  144.4080 C.3   228  ALA228      0.1597
    119  C         -1.8900   37.4160  144.3540 C.2   228  ALA228      0.2287
    120  O         -0.8060   36.9260  144.7380 O.2   228  ALA228     -0.2864
    121  CB        -2.8470   39.3410  145.6910 C.3   228  ALA228      0.0319
    122  N          1.0050   36.6860  141.8830 N.3   231  MET231     -0.1245
    123  CA         2.2910   37.0710  142.5430 C.3   231  MET231      0.1570
    124  C          2.6600   36.0710  143.6380 C.2   231  MET231      0.2261
    125  O          3.8290   35.7950  143.8510 O.2   231  MET231     -0.2867
    126  CB         2.2290   38.4670  143.0960 C.3   231  MET231      0.0387
    127  CG         2.3090   39.5570  142.0630 C.3   231  MET231      0.0595
    128  SD         3.7450   39.3420  140.9330 S.3   231  MET231     -0.1393
    129  CE         2.9670   38.6070  139.4630 C.3   231  MET231      0.0692
    130  N          4.2810   33.5130  141.5070 N.3   234  GLU234     -0.1231
    131  CA         5.5180   33.9880  140.8500 C.3   234  GLU234      0.1699
    132  C          6.6390   34.2310  141.8940 C.2   234  GLU234      0.2592
    133  O          7.7660   33.7720  141.7320 O.2   234  GLU234     -0.2718
    134  CB         5.2440   35.2670  140.0840 C.3   234  GLU234      0.0402
    135  CG         6.4440   35.6850  139.2560 C.3   234  GLU234      0.1161
    136  CD         6.1540   36.9200  138.4390 C.2   234  GLU234      0.3649
    137  OE1        5.6550   36.7690  137.3160 O.co2 234  GLU234     -0.2457
    138  OE2        6.4280   38.0500  138.8850 O.co2 234  GLU234     -0.2457
    139  N          6.3020   34.9270  142.9740 N.am  235  ARG235     -0.1980
    140  CA         7.2860   35.2870  144.0140 C.3   235  ARG235      0.1597
    141  C          7.8360   34.0160  144.6470 C.2   235  ARG235      0.2287
    142  O          8.9870   33.9850  145.0660 O.2   235  ARG235     -0.2864
    143  CB         6.6230   36.1800  145.0640 C.3   235  ARG235      0.0334
    144  CG         6.3960   37.6220  144.5760 C.3   235  ARG235      0.0492
    145  CD         5.5480   38.3360  145.6350 C.3   235  ARG235      0.2205
    146  NE         5.0910   39.6130  145.1050 N.pl3 235  ARG235     -0.0865
    147  CZ         4.0500   40.3100  145.5940 C.cat 235  ARG235      0.5346
    148  NH1        3.3330   39.8230  146.5980 N.pl3 235  ARG235      0.1354
    149  NH2        3.7150   41.4830  145.0520 N.pl3 235  ARG235      0.1354
    150  N          1.7000   34.0950  152.6180 N.3   305  THR305     -0.1218
    151  CA         2.2190   35.2810  151.9930 C.3   305  THR305      0.1862
    152  C          3.5180   35.7370  152.6710 C.2   305  THR305      0.2287
    153  O          4.4800   36.1540  151.9680 O.2   305  THR305     -0.2866
    154  CB         1.1810   36.4240  152.0410 C.3   305  THR305      0.1770
    155  OG1        0.0620   36.0340  151.2480 O.3   305  THR305     -0.2211
    156  CG2        1.7460   37.7070  151.4430 C.3   305  THR305      0.0375
    157  N         11.5900   43.1830  140.0080 N.3   354  PHE354     -0.1227
    158  CA        10.3680   42.5610  139.4540 C.3   354  PHE354      0.1736
    159  C          9.6790   41.6930  140.5010 C.2   354  PHE354      0.2596
    160  O         10.3100   41.2700  141.4850 O.2   354  PHE354     -0.2718
    161  CB        10.6040   41.8260  138.1140 C.3   354  PHE354      0.0547
    162  CG        11.6550   40.7510  138.1640 C.ar  354  PHE354     -0.0202
    163  CD1       11.4680   39.5550  138.9040 C.ar  354  PHE354     -0.0042
    164  CD2       12.8290   40.9150  137.4050 C.ar  354  PHE354     -0.0042
    165  CE1       12.4480   38.5580  138.9100 C.ar  354  PHE354     -0.0003
    166  CE2       13.8230   39.9230  137.4240 C.ar  354  PHE354     -0.0003
    167  CZ        13.6290   38.7500  138.1500 C.ar  354  PHE354     -0.0000
    168  N          8.3860   41.4310  140.3090 N.am  355  SER355     -0.1938
    169  CA         7.5590   40.7340  141.2820 C.3   355  SER355      0.2055
    170  C          7.3950   41.5110  142.6110 C.2   355  SER355      0.2643
    171  O          7.0640   40.9360  143.6180 O.2   355  SER355     -0.2714
    172  CB         8.0360   39.3030  141.5710 C.3   355  SER355      0.2130
    173  OG         8.5130   38.6980  140.3750 O.3   355  SER355     -0.2179
    174  N          7.5730   42.8170  142.5750 N.am  356  GLY356     -0.1954
    175  CA         7.5660   43.6740  143.7880 C.3   356  GLY356      0.1869
    176  C          8.9920   43.9230  144.2860 C.2   356  GLY356      0.2309
    177  O          9.7230   42.9480  144.5310 O.2   356  GLY356     -0.2863
    178  N          8.8270   46.5280  148.8250 N.3   360  ILE360     -0.1245
    179  CA         7.4420   46.0410  148.8630 C.3   360  ILE360      0.1561
    180  C          7.3440   44.7120  149.5810 C.2   360  ILE360      0.2260
    181  O          6.4200   44.4440  150.3660 O.2   360  ILE360     -0.2867
    182  CB         6.8970   45.9430  147.4130 C.3   360  ILE360      0.0252
    183  CG1        6.6420   47.3270  146.8400 C.3   360  ILE360      0.0019
    184  CG2        5.6760   45.0160  147.2800 C.3   360  ILE360      0.0019
    185  CD1        6.1140   48.4130  147.7390 C.3   360  ILE360      0.0001
    186  N          7.1990   45.5860  153.0800 N.3   363  GLU363     -0.1231
    187  CA         5.8210   46.0140  153.3870 C.3   363  GLU363      0.1699
    188  C          4.8920   44.8440  153.6440 C.2   363  GLU363      0.2592
    189  O          4.1380   44.8570  154.6280 O.2   363  GLU363     -0.2718
    190  CB         5.2340   46.9430  152.3050 C.3   363  GLU363      0.0402
    191  CG         5.8690   48.2930  152.3460 C.3   363  GLU363      0.1161
    192  CD         5.4850   49.0550  153.6000 C.2   363  GLU363      0.3649
    193  OE1        4.3670   49.5750  153.6950 O.co2 363  GLU363     -0.2457
    194  OE2        6.2900   49.1510  154.5220 O.co2 363  GLU363     -0.2457
    195  N          4.9310   43.8430  152.7720 N.am  364  LEU364     -0.1980
    196  CA         4.1200   42.6700  152.9700 C.3   364  LEU364      0.1596
    197  C          4.5010   41.8880  154.2100 C.2   364  LEU364      0.2287
    198  O          3.6500   41.4230  154.9520 O.2   364  LEU364     -0.2864
    199  CB         4.2580   41.7190  151.7770 C.3   364  LEU364      0.0297
    200  CG         3.5660   42.3460  150.5460 C.3   364  LEU364      0.0022
    201  CD1        4.1690   41.7990  149.2300 C.3   364  LEU364      0.0001
    202  CD2        2.0680   42.0380  150.7080 C.3   364  LEU364      0.0001
    203  N          2.0150   41.0560  157.3940 N.3   368  ARG368     -0.1245
    204  CA         1.7830   39.7350  157.9240 C.3   368  ARG368      0.1563
    205  C          2.3050   39.5160  159.3360 C.2   368  ARG368      0.2260
    206  O          1.8290   38.6250  160.0320 O.2   368  ARG368     -0.2867
    207  CB         2.2980   38.6230  156.9720 C.3   368  ARG368      0.0307
    208  CG         1.6090   38.5760  155.6260 C.3   368  ARG368      0.0489
    209  CD         0.0590   38.5790  155.7910 C.3   368  ARG368      0.2205
    210  NE        -0.6470   38.2990  154.5300 N.pl3 368  ARG368     -0.0865
    211  CZ        -0.8540   39.1360  153.5060 C.cat 368  ARG368      0.5346
    212  NH1       -0.3970   40.3890  153.5000 N.pl3 368  ARG368      0.1354
    213  NH2       -1.5470   38.6810  152.4360 N.pl3 368  ARG368      0.1354
@<TRIPOS>BOND
     1    84    85    2
     2    84    83    1
     3    83    82    1
     4    83    86    1
     5    88    86    1
     6    70    71    1
     7    22    23    1
     8    72    71    1
     9    72    73    2
    10    71    74    1
    11    86    87    1
    12    25    24    2
    13    76    78   ar
    14    76    75   ar
    15    24    23    1
    16    78    80   ar
    17    23    26    1
    18    74    75    1
    19     3     4    2
    20     3     2    1
    21    75    77   ar
    22    16    13    1
    23     1     2    1
    24    14    15    2
    25    14    13    1
    26     8    10   ar
    27     8     6   ar
    28    41    40    2
    29    80    81    1
    30    80    79   ar
    31    10    11   ar
    32    26    27    1
    33     2     5    1
    34     5     6    1
    35    77    79   ar
    36    13    12    1
    37    30    31    1
    38     6     7   ar
    39    40    39    1
    40    11     9   ar
    41    29    27   am
    42    27    28    2
    43    31    32    1
    44    31    34    1
    45    32    38   am
    46    32    33    2
    47    38    39    1
    48    19    20    2
    49    19    18    1
    50     7     9   ar
    51    39    42    1
    52    42    43    1
    53    21    18    1
    54    18    17    1
    55    34    36    1
    56    34    35    1
    57   137   136   ar
    58   164   166   ar
    59   164   162   ar
    60   166   167   ar
    61    35    37    1
    62   161   162    1
    63   161   158    1
    64   167   165   ar
    65   162   163   ar
    66   136   138   ar
    67   136   135    1
    68   163   165   ar
    69   114   112   ar
    70   114   116   ar
    71   112   111   ar
    72   135   134    1
    73   158   157    1
    74   158   159    1
    75   129   128    1
    76    44    45    1
    77    45    46    1
    78   116   115   ar
    79   134   131    1
    80   168   159   am
    81   168   169    1
    82   111   110    1
    83   111   113   ar
    84   173   172    1
    85   159   160    2
    86    68    66    1
    87   110   107    1
    88   107   106    1
    89   107   108    1
    90   131   130    1
    91   131   132    1
    92   128   127    1
    93    46    47    2
    94    46    48   am
    95   115   113   ar
    96   169   172    1
    97   169   170    1
    98    66    63    1
    99    66    67    1
   100    65    64    2
   101   101   102    1
   102    63    64    1
   103    63    62    1
   104    57    56    2
   105   133   132    2
   106   109   108    2
   107   122   123    1
   108   132   139   am
   109   108   117   am
   110    48    49    1
   111   127   126    1
   112    69    67    1
   113   123   126    1
   114   123   124    1
   115   174   170   am
   116   174   175    1
   117   102   103    1
   118   102   105    1
   119   170   171    2
   120    56    62   am
   121    56    55    1
   122   139   140    1
   123   117   118    1
   124   103   104    2
   125    49    50    1
   126    49    52    1
   127    54    55    1
   128    54    50   am
   129   124   125    2
   130   175   176    1
   131    55    58    1
   132    50    51    2
   133    53    52    1
   134   140   141    1
   135   140   143    1
   136   176   177    2
   137    58    59    1
   138   119   118    1
   139   119   120    2
   140   118   121    1
   141    92    91    2
   142    60    59   ar
   143   144   143    1
   144   144   145    1
   145   141   142    2
   146    59    61   ar
   147    91    90    1
   148   149   147    1
   149   146   147    2
   150   146   145    1
   151    89    90    1
   152   147   148    1
   153    90    93    1
   154   183   182    1
   155   183   185    1
   156    95    97   ar
   157    95    94   ar
   158    93    94    1
   159   184   182    1
   160    97    99   ar
   161   182   179    1
   162    94    96   ar
   163    99   100    1
   164    99    98   ar
   165    96    98   ar
   166   178   179    1
   167   179   180    1
   168   201   200    1
   169   180   181    2
   170   200   202    1
   171   200   199    1
   172   155   154    1
   173   156   154    1
   174   199   196    1
   175   153   152    2
   176   151   154    1
   177   151   150    1
   178   151   152    1
   179   190   191    1
   180   190   187    1
   181   191   192    1
   182   213   211    1
   183   195   196    1
   184   195   188   am
   185   196   197    1
   186   186   187    1
   187   187   188    1
   188   212   211    1
   189   211   210    2
   190   192   193   ar
   191   192   194   ar
   192   188   189    2
   193   197   198    2
   194   210   209    1
   195   208   209    1
   196   208   207    1
   197   207   204    1
   198   203   204    1
   199   204   205    1
   200   205   206    2
