@<TRIPOS>MOLECULE
tmp/6cxvA02.pdb
 115 107 0 0 0
SMALL
GASTEIGER

@<TRIPOS>ATOM
      1  N        112.9480   -5.5500  133.0790 N.3   156  VAL156     -0.1245
      2  CA       111.5760   -5.0590  133.2470 C.3   156  VAL156      0.1561
      3  C        111.5020   -3.5430  132.9830 C.2   156  VAL156      0.2260
      4  O        110.5550   -3.0710  132.3510 O.2   156  VAL156     -0.2867
      5  CB       110.9970   -5.4100  134.6370 C.3   156  VAL156      0.0252
      6  CG1      109.6080   -4.8090  134.8190 C.3   156  VAL156      0.0019
      7  CG2      110.9050   -6.9190  134.8160 C.3   156  VAL156      0.0019
      8  N        109.2580   -1.8840  130.0570 N.3   160  ALA160     -0.1245
      9  CA       108.3460   -0.8040  130.4210 C.3   160  ALA160      0.1562
     10  C        108.7010    0.5140  129.7360 C.2   160  ALA160      0.2260
     11  O        107.8130    1.3090  129.4300 O.2   160  ALA160     -0.2867
     12  CB       108.3240   -0.6260  131.9300 C.3   160  ALA160      0.0290
     13  N        103.3060   -2.7320  129.1170 N.3   193  LEU193     -0.1245
     14  CA       103.1840   -3.1770  130.5110 C.3   193  LEU193      0.1561
     15  C        102.8450   -4.6780  130.6410 C.2   193  LEU193      0.2260
     16  O        103.2740   -5.3300  131.5950 O.2   193  LEU193     -0.2867
     17  CB       102.1450   -2.3300  131.2660 C.3   193  LEU193      0.0270
     18  CG       102.4570   -0.8410  131.4610 C.3   193  LEU193      0.0019
     19  CD1      101.2740   -0.1340  132.1040 C.3   193  LEU193      0.0001
     20  CD2      103.7170   -0.6300  132.2860 C.3   193  LEU193      0.0001
     21  N        106.1050   -6.3520  129.9910 N.3   196  ALA196     -0.1245
     22  CA       106.9250   -6.1980  131.1950 C.3   196  ALA196      0.1562
     23  C        106.6060   -7.2710  132.2440 C.2   196  ALA196      0.2260
     24  O        107.5000   -7.7250  132.9610 O.2   196  ALA196     -0.2867
     25  CB       106.7420   -4.8060  131.7870 C.3   196  ALA196      0.0290
     26  N        109.0550  -10.1890  133.8690 N.3   200  PHE200     -0.1241
     27  CA       109.0810  -10.4300  135.3220 C.3   200  PHE200      0.1605
     28  C        109.2100  -11.9340  135.6350 C.2   200  PHE200      0.2264
     29  O        110.0090  -12.3120  136.4930 O.2   200  PHE200     -0.2867
     30  CB       107.7930   -9.8720  135.9660 C.3   200  PHE200      0.0534
     31  CG       107.9630   -9.3100  137.3550 C.ar  200  PHE200     -0.0203
     32  CD1      108.7370   -9.9510  138.3230 C.ar  200  PHE200     -0.0042
     33  CD2      107.2790   -8.1510  137.7160 C.ar  200  PHE200     -0.0042
     34  CE1      108.8540   -9.4310  139.6020 C.ar  200  PHE200     -0.0003
     35  CE2      107.3940   -7.6250  138.9920 C.ar  200  PHE200     -0.0003
     36  CZ       108.1820   -8.2670  139.9380 C.ar  200  PHE200     -0.0000
     37  N        113.0050   -1.2960  144.6660 N.3   250  ALA250     -0.1245
     38  CA       112.4350   -0.9180  143.3690 C.3   250  ALA250      0.1562
     39  C        111.3970    0.2130  143.4420 C.2   250  ALA250      0.2260
     40  O        111.1270    0.8560  142.4320 O.2   250  ALA250     -0.2867
     41  CB       111.8560   -2.1330  142.6600 C.3   250  ALA250      0.0290
     42  N        110.3920    4.4830  136.4150 N.3   255  VAL255     -0.1231
     43  CA       109.4800    3.7240  135.5470 C.3   255  VAL255      0.1692
     44  C        108.2620    3.2650  136.3260 C.2   255  VAL255      0.2592
     45  O        107.1240    3.4330  135.8810 O.2   255  VAL255     -0.2718
     46  CB       110.1520    2.4500  134.9700 C.3   255  VAL255      0.0266
     47  CG1      109.1440    1.5330  134.2780 C.3   255  VAL255      0.0020
     48  CG2      111.2570    2.8030  133.9870 C.3   255  VAL255      0.0020
     49  N        108.5160    2.6910  137.4950 N.am  256  PHE256     -0.1976
     50  CA       107.4700    2.0120  138.2520 C.3   256  PHE256      0.1639
     51  C        106.5590    2.9710  139.0210 C.2   256  PHE256      0.2290
     52  O        105.5330    2.5410  139.5430 O.2   256  PHE256     -0.2864
     53  CB       108.0670    0.9570  139.1980 C.3   256  PHE256      0.0560
     54  CG       109.1140    0.0510  138.5610 C.ar  256  PHE256     -0.0200
     55  CD1      109.0550   -0.3070  137.2100 C.ar  256  PHE256     -0.0042
     56  CD2      110.1480   -0.4750  139.3330 C.ar  256  PHE256     -0.0042
     57  CE1      110.0160   -1.1410  136.6500 C.ar  256  PHE256     -0.0003
     58  CE2      111.1120   -1.3070  138.7770 C.ar  256  PHE256     -0.0003
     59  CZ       111.0450   -1.6400  137.4350 C.ar  256  PHE256     -0.0000
     60  N        103.8850    5.4960  135.5840 N.3   259  PHE259     -0.1241
     61  CA       102.5960    5.0790  135.0190 C.3   259  PHE259      0.1605
     62  C        101.4210    5.3820  135.9400 C.2   259  PHE259      0.2264
     63  O        100.3240    5.6260  135.4550 O.2   259  PHE259     -0.2867
     64  CB       102.6120    3.6100  134.6010 C.3   259  PHE259      0.0534
     65  CG       103.5840    3.3230  133.4990 C.ar  259  PHE259     -0.0203
     66  CD1      103.3160    3.7270  132.1940 C.ar  259  PHE259     -0.0042
     67  CD2      104.7860    2.6800  133.7650 C.ar  259  PHE259     -0.0042
     68  CE1      104.2290    3.4800  131.1730 C.ar  259  PHE259     -0.0003
     69  CE2      105.6980    2.4260  132.7510 C.ar  259  PHE259     -0.0003
     70  CZ       105.4210    2.8260  131.4570 C.ar  259  PHE259     -0.0000
     71  N         98.8820   -2.6510  135.2660 N.3   325  LEU325     -0.1245
     72  CA        99.5270   -2.2610  136.5230 C.3   325  LEU325      0.1561
     73  C         99.0320   -3.1060  137.6930 C.2   325  LEU325      0.2260
     74  O         99.8250   -3.4830  138.5460 O.2   325  LEU325     -0.2867
     75  CB        99.3170   -0.7710  136.8300 C.3   325  LEU325      0.0270
     76  CG       100.1360    0.2530  136.0310 C.3   325  LEU325      0.0019
     77  CD1       99.7180    1.6620  136.4270 C.3   325  LEU325      0.0001
     78  CD2      101.6370    0.0730  136.2330 C.3   325  LEU325      0.0001
     79  N        100.7360   -6.5750  137.3690 N.3   328  LEU328     -0.1231
     80  CA       102.1230   -6.4770  137.8430 C.3   328  LEU328      0.1693
     81  C        102.2300   -6.4860  139.3640 C.2   328  LEU328      0.2591
     82  O        103.1030   -7.1550  139.9140 O.2   328  LEU328     -0.2718
     83  CB       102.7960   -5.2160  137.2960 C.3   328  LEU328      0.0284
     84  CG       103.1850   -5.2700  135.8220 C.3   328  LEU328      0.0019
     85  CD1      103.3160   -3.8700  135.2550 C.3   328  LEU328      0.0001
     86  CD2      104.4840   -6.0320  135.6360 C.3   328  LEU328      0.0001
     87  N        101.3430   -5.7440  140.0280 N.am  329  ARG329     -0.1980
     88  CA       101.3560   -5.6200  141.4940 C.3   329  ARG329      0.1597
     89  C        100.8720   -6.8760  142.1850 C.2   329  ARG329      0.2287
     90  O        101.3760   -7.2270  143.2630 O.2   329  ARG329     -0.2864
     91  CB       100.5290   -4.4130  141.9390 C.3   329  ARG329      0.0334
     92  CG       101.1890   -3.1190  141.5030 C.3   329  ARG329      0.0492
     93  CD       100.6270   -1.8780  142.1460 C.3   329  ARG329      0.2205
     94  NE       101.6340   -0.8190  142.0820 N.pl3 329  ARG329     -0.0865
     95  CZ       101.5570    0.3160  141.3840 C.cat 329  ARG329      0.5346
     96  NH1      100.4930    0.6310  140.6380 N.pl3 329  ARG329      0.1354
     97  NH2      102.5760    1.1680  141.4470 N.pl3 329  ARG329      0.1354
     98  N        103.7320   -9.2510  141.7960 N.3   332  HIS332     -0.1241
     99  CA       104.7720   -8.8190  142.7250 C.3   332  HIS332      0.1621
    100  C        104.4680   -9.2880  144.1490 C.2   332  HIS332      0.2264
    101  O        105.3860   -9.6320  144.8870 O.2   332  HIS332     -0.2867
    102  CB       104.9280   -7.2960  142.6480 C.3   332  HIS332      0.0745
    103  CG       105.9580   -6.7260  143.5730 C.ar  332  HIS332      0.0817
    104  ND1      105.6390   -6.2430  144.8220 N.ar  332  HIS332     -0.2268
    105  CD2      107.2890   -6.5230  143.4190 C.ar  332  HIS332      0.1154
    106  CE1      106.7290   -5.7810  145.4040 C.ar  332  HIS332      0.1986
    107  NE2      107.7510   -5.9320  144.5740 N.ar  332  HIS332     -0.2212
    108  N        102.0250   -2.7300  150.1760 N.3   363  LEU363     -0.1245
    109  CA       101.8460   -3.2200  148.8130 C.3   363  LEU363      0.1561
    110  C        100.3770   -3.3880  148.4300 C.2   363  LEU363      0.2260
    111  O         99.9920   -3.0520  147.3090 O.2   363  LEU363     -0.2867
    112  CB       102.6300   -4.5210  148.5940 C.3   363  LEU363      0.0270
    113  CG       104.1480   -4.3110  148.6010 C.3   363  LEU363      0.0019
    114  CD1      104.8970   -5.6230  148.7540 C.3   363  LEU363      0.0001
    115  CD2      104.5920   -3.5930  147.3420 C.3   363  LEU363      0.0001
@<TRIPOS>BOND
     1    13    14    1
     2    11    10    2
     3    10     9    1
     4    21    22    1
     5     8     9    1
     6     9    12    1
     7    14    15    1
     8    14    17    1
     9    15    16    2
    10    68    70   ar
    11    68    66   ar
    12    22    25    1
    13    22    23    1
    14    17    18    1
    15    70    69   ar
    16    18    19    1
    17    18    20    1
    18    66    65   ar
    19    23    24    2
    20     4     3    2
    21    69    67   ar
    22     3     2    1
    23     1     2    1
    24     2     5    1
    25    65    67   ar
    26    65    64    1
    27    26    27    1
    28    48    46    1
    29    47    46    1
    30    64    61    1
    31     5     7    1
    32     5     6    1
    33    46    43    1
    34    61    60    1
    35    61    62    1
    36    85    84    1
    37    71    72    1
    38    27    28    1
    39    27    30    1
    40    63    62    2
    41    43    44    1
    42    43    42    1
    43    28    29    2
    44    86    84    1
    45    84    83    1
    46    45    44    2
    47    30    31    1
    48    76    78    1
    49    76    77    1
    50    76    75    1
    51    44    49   am
    52    72    75    1
    53    72    73    1
    54    57    55   ar
    55    57    59   ar
    56    55    54   ar
    57    83    80    1
    58    31    33   ar
    59    31    32   ar
    60    79    80    1
    61    59    58   ar
    62    49    50    1
    63    73    74    2
    64    33    35   ar
    65    80    81    1
    66    50    51    1
    67    50    53    1
    68    32    34   ar
    69    54    53    1
    70    54    56   ar
    71    58    56   ar
    72    35    36   ar
    73    51    52    2
    74    81    82    2
    75    81    87   am
    76    34    36   ar
    77    87    88    1
    78    96    95    1
    79    95    97    1
    80    95    94    2
    81    88    91    1
    82    88    89    1
    83    92    91    1
    84    92    93    1
    85    98    99    1
    86    94    93    1
    87    89    90    2
    88    40    39    2
    89   102    99    1
    90   102   103    1
    91    41    38    1
    92    99   100    1
    93    38    39    1
    94    38    37    1
    95   105   103   ar
    96   105   107   ar
    97   103   104   ar
    98   100   101    2
    99   107   106   ar
   100   104   106   ar
   101   111   110    2
   102   115   113    1
   103   110   109    1
   104   112   113    1
   105   112   109    1
   106   113   114    1
   107   109   108    1
