@<TRIPOS>MOLECULE
tmp/6cy5B00.pdb
 145 137 0 0 0
SMALL
GASTEIGER

@<TRIPOS>ATOM
      1  N         14.6570  -13.1640    0.8810 N.3   124  ASN124     -0.1225
      2  CA        14.0850  -14.5040    0.9620 C.3   124  ASN124      0.1785
      3  C         12.6260  -14.5020    0.5130 C.2   124  ASN124      0.2598
      4  O         11.8480  -13.6030    0.8530 O.2   124  ASN124     -0.2718
      5  CB        14.1890  -15.0390    2.3930 C.3   124  ASN124      0.1169
      6  CG        13.7630  -16.4870    2.5050 C.2   124  ASN124      0.2627
      7  OD1       14.5420  -17.3890    2.2060 O.2   124  ASN124     -0.2716
      8  ND2       12.5320  -16.7210    2.9640 N.am  124  ASN124     -0.0877
      9  N         12.2650  -15.5100   -0.2670 N.am  125  GLY125     -0.1942
     10  CA        10.9000  -15.7210   -0.6870 C.3   125  GLY125      0.2014
     11  C         10.5510  -15.1680   -2.0550 C.2   125  GLY125      0.2639
     12  O          9.4380  -15.4240   -2.5370 O.2   125  GLY125     -0.2714
     13  N         11.4510  -14.4150   -2.6920 N.am  126  VAL126     -0.1963
     14  CA        11.0910  -13.8010   -3.9750 C.3   126  VAL126      0.1727
     15  C         11.2130  -14.7670   -5.1410 C.2   126  VAL126      0.2617
     16  O         10.6580  -14.4880   -6.2140 O.2   126  VAL126     -0.2715
     17  CB        11.9300  -12.5540   -4.2980 C.3   126  VAL126      0.0290
     18  CG1       11.6760  -11.4790   -3.2640 C.3   126  VAL126      0.0023
     19  CG2       13.4220  -12.8950   -4.4220 C.3   126  VAL126      0.0023
     20  N         11.9400  -15.8690   -4.9670 N.am  127  GLY127     -0.1940
     21  CA        12.1580  -16.8380   -6.0250 C.3   127  GLY127      0.2014
     22  C         13.5830  -16.9460   -6.5360 C.2   127  GLY127      0.2639
     23  O         13.7850  -17.3470   -7.6810 O.2   127  GLY127     -0.2714
     24  N         14.5770  -16.5950   -5.7120 N.am  128  LYS128     -0.1963
     25  CA        15.9730  -16.6690   -6.1470 C.3   128  LYS128      0.1728
     26  C         16.3560  -18.0830   -6.5610 C.2   128  LYS128      0.2617
     27  O         16.8810  -18.3100   -7.6570 O.2   128  LYS128     -0.2715
     28  CB        16.9000  -16.2090   -5.0210 C.3   128  LYS128      0.0311
     29  CG        16.8130  -14.7300   -4.7120 C.3   128  LYS128      0.0038
     30  CD        17.6970  -14.3980   -3.5050 C.3   128  LYS128      0.0206
     31  CE        17.1280  -14.9900   -2.2070 C.3   128  LYS128      0.1093
     32  NZ        17.9940  -14.6640   -1.0170 N.3   128  LYS128     -0.1314
     33  N         16.1570  -19.0430   -5.6580 N.am  129  THR129     -0.1937
     34  CA        16.6480  -20.3950   -5.8980 C.3   129  THR129      0.2028
     35  C         15.9080  -21.0320   -7.0630 C.2   129  THR129      0.2643
     36  O         16.5190  -21.6920   -7.9060 O.2   129  THR129     -0.2714
     37  CB        16.5120  -21.2090   -4.6040 C.3   129  THR129      0.1808
     38  OG1       17.2460  -20.5410   -3.5610 O.3   129  THR129     -0.2208
     39  CG2       17.0280  -22.6520   -4.7720 C.3   129  THR129      0.0379
     40  N         14.5940  -20.7880   -7.1500 N.am  130  THR130     -0.1936
     41  CA        13.8170  -21.2090   -8.3080 C.3   130  THR130      0.2028
     42  C         14.3710  -20.6060   -9.5870 C.2   130  THR130      0.2642
     43  O         14.5080  -21.2890  -10.6090 O.2   130  THR130     -0.2714
     44  CB        12.3660  -20.7830   -8.1210 C.3   130  THR130      0.1808
     45  OG1       11.8500  -21.4020   -6.9350 O.3   130  THR130     -0.2208
     46  CG2       11.5260  -21.1970   -9.3400 C.3   130  THR130      0.0379
     47  N         14.6840  -19.3140   -9.5480 N.am  131  THR131     -0.1950
     48  CA        15.2020  -18.6640  -10.7450 C.3   131  THR131      0.1897
     49  C         16.5530  -19.2460  -11.1370 C.2   131  THR131      0.2313
     50  O         16.8450  -19.4080  -12.3270 O.2   131  THR131     -0.2863
     51  CB        15.2700  -17.1550  -10.5110 C.3   131  THR131      0.1794
     52  OG1       13.9430  -16.6840  -10.2570 O.3   131  THR131     -0.2208
     53  CG2       15.8290  -16.4270  -11.7490 C.3   131  THR131      0.0378
     54  N         15.8390  -22.3260  -13.0380 N.3   134  LYS134     -0.1245
     55  CA        15.4070  -21.9580  -14.3860 C.3   134  LYS134      0.1561
     56  C         16.5830  -21.5130  -15.2460 C.2   134  LYS134      0.2260
     57  O         16.6740  -21.8830  -16.4270 O.2   134  LYS134     -0.2867
     58  CB        14.3570  -20.8440  -14.3150 C.3   134  LYS134      0.0271
     59  CG        13.0290  -21.2620  -13.7120 C.3   134  LYS134      0.0035
     60  CD        12.1480  -20.0250  -13.4700 C.3   134  LYS134      0.0206
     61  CE        10.7420  -20.4070  -13.0540 C.3   134  LYS134      0.1093
     62  NZ         9.9180  -19.1570  -12.9190 N.3   134  LYS134     -0.1314
     63  N         23.9920  -19.4280   -0.0950 N.3   152  ASP152     -0.1239
     64  CA        22.9490  -19.1010    0.8750 C.3   152  ASP152      0.1674
     65  C         23.0350  -20.1690    1.9580 C.2   152  ASP152      0.2266
     66  O         22.5540  -21.2890    1.7710 O.2   152  ASP152     -0.2867
     67  CB        21.5760  -19.0720    0.2010 C.3   152  ASP152      0.1410
     68  CG        20.4500  -18.6190    1.1340 C.2   152  ASP152      0.3668
     69  OD1       20.6480  -18.5290    2.3630 O.co2 152  ASP152     -0.2456
     70  OD2       19.3390  -18.3370    0.6210 O.co2 152  ASP152     -0.2456
     71  N         19.9450  -20.4580    6.5520 N.3   155  ARG155     -0.1245
     72  CA        19.0630  -21.5750    6.8680 C.3   155  ARG155      0.1563
     73  C         19.6100  -22.8600    6.2550 C.2   155  ARG155      0.2260
     74  O         20.1520  -22.8510    5.1470 O.2   155  ARG155     -0.2867
     75  CB        17.6460  -21.3060    6.3580 C.3   155  ARG155      0.0307
     76  CG        16.8960  -20.2310    7.1680 C.3   155  ARG155      0.0489
     77  CD        15.4740  -20.0540    6.6620 C.3   155  ARG155      0.2205
     78  NE        15.4530  -19.6190    5.2650 N.pl3 155  ARG155     -0.0865
     79  CZ        14.9660  -20.3170    4.2400 C.cat 155  ARG155      0.5346
     80  NH1       14.3780  -21.4940    4.4330 N.pl3 155  ARG155      0.1354
     81  NH2       15.0250  -19.8110    3.0210 N.pl3 155  ARG155      0.1354
     82  N         17.5780  -26.8150   -0.7410 N.3   161  GLN161     -0.1245
     83  CA        16.7310  -26.3850   -1.8500 C.3   161  GLN161      0.1566
     84  C         17.5340  -26.2250   -3.1360 C.2   161  GLN161      0.2260
     85  O         17.0400  -26.5510   -4.2220 O.2   161  GLN161     -0.2867
     86  CB        16.0190  -25.0830   -1.4800 C.3   161  GLN161      0.0367
     87  CG        14.9310  -25.3250   -0.4670 C.3   161  GLN161      0.0905
     88  CD        14.5750  -24.1110    0.3600 C.2   161  GLN161      0.2608
     89  OE1       15.1430  -23.0350    0.1940 O.2   161  GLN161     -0.2717
     90  NE2       13.6300  -24.2920    1.2890 N.am  161  GLN161     -0.0878
     91  N         17.2650  -28.3980   -6.7590 N.3   165  TRP165     -0.1241
     92  CA        17.2210  -27.8740   -8.1230 C.3   165  TRP165      0.1605
     93  C         18.3710  -28.4100   -8.9650 C.2   165  TRP165      0.2264
     94  O         18.1960  -28.6770  -10.1600 O.2   165  TRP165     -0.2867
     95  CB        17.2150  -26.3440   -8.1130 C.3   165  TRP165      0.0550
     96  CG        15.8270  -25.8210   -8.1010 C.ar  165  TRP165      0.0003
     97  CD1       15.1440  -25.3050   -7.0350 C.ar  165  TRP165      0.0946
     98  CD2       14.9090  -25.8320   -9.1990 C.ar  165  TRP165      0.0152
     99  NE1       13.8670  -24.9680   -7.4150 N.ar  165  TRP165     -0.2442
    100  CE2       13.7020  -25.2740   -8.7410 C.ar  165  TRP165      0.0810
    101  CE3       15.0070  -26.2290  -10.5370 C.ar  165  TRP165      0.0012
    102  CZ2       12.5900  -25.1110   -9.5700 C.ar  165  TRP165      0.0191
    103  CZ3       13.9050  -26.0660  -11.3590 C.ar  165  TRP165      0.0001
    104  CH2       12.7170  -25.5030  -10.8750 C.ar  165  TRP165      0.0015
    105  N          9.5880  -12.0910  -10.8440 N.3   268  THR268     -0.1203
    106  CA         8.9820  -13.4200  -10.8170 C.3   268  THR268      0.1994
    107  C          7.4950  -13.3580  -10.4850 C.2   268  THR268      0.2617
    108  O          6.9480  -12.3260  -10.1060 O.2   268  THR268     -0.2717
    109  CB         9.6570  -14.3060   -9.7660 C.3   268  THR268      0.1784
    110  OG1        9.4530  -13.6950   -8.4840 O.3   268  THR268     -0.2211
    111  CG2       11.1570  -14.4620  -10.0280 C.3   268  THR268      0.0376
    112  N          6.8480  -14.5210  -10.5950 N.am  269  LYS269     -0.1979
    113  CA         5.5000  -14.7440  -10.0760 C.3   269  LYS269      0.1596
    114  C          4.4550  -13.8710  -10.7640 C.2   269  LYS269      0.2287
    115  O          3.4530  -13.4960  -10.1550 O.2   269  LYS269     -0.2864
    116  CB         5.4440  -14.5390   -8.5580 C.3   269  LYS269      0.0298
    117  CG         6.5190  -15.3270   -7.7930 C.3   269  LYS269      0.0038
    118  CD         6.1720  -15.4380   -6.3090 C.3   269  LYS269      0.0206
    119  CE         7.4010  -15.8050   -5.4810 C.3   269  LYS269      0.1093
    120  NZ         7.0590  -15.8660   -4.0240 N.3   269  LYS269     -0.1314
    121  N          2.6450  -14.9510  -13.2170 N.3   271  ASP271     -0.1239
    122  CA         1.5440  -15.8370  -13.5670 C.3   271  ASP271      0.1674
    123  C          0.5300  -15.9250  -12.4320 C.2   271  ASP271      0.2266
    124  O          0.8970  -16.0960  -11.2670 O.2   271  ASP271     -0.2867
    125  CB         2.0820  -17.2350  -13.8760 C.3   271  ASP271      0.1410
    126  CG         2.9330  -17.7860  -12.7500 C.2   271  ASP271      0.3668
    127  OD1        3.9580  -17.1560  -12.4190 O.co2 271  ASP271     -0.2456
    128  OD2        2.5590  -18.8580  -12.2050 O.co2 271  ASP271     -0.2456
    129  N          9.5770  -14.2440  -14.6140 N.3   294  GLY294     -0.1225
    130  CA         9.1710  -15.5760  -14.2040 C.3   294  GLY294      0.1811
    131  C          7.6590  -15.7010  -14.3470 C.2   294  GLY294      0.2280
    132  O          6.9200  -14.8150  -13.9240 O.2   294  GLY294     -0.2866
    133  N          6.0060  -18.9390  -13.7650 N.3   296  GLY296     -0.1210
    134  CA         5.5280  -20.2040  -13.2420 C.3   296  GLY296      0.1956
    135  C          6.5340  -20.9180  -12.3670 C.2   296  GLY296      0.2611
    136  O          7.6440  -20.4550  -12.1300 O.2   296  GLY296     -0.2717
    137  N          6.1010  -22.0860  -11.8870 N.am  297  GLU297     -0.1979
    138  CA         6.9040  -22.8700  -10.9560 C.3   297  GLU297      0.1602
    139  C          7.9050  -23.7940  -11.6360 C.2   297  GLU297      0.2287
    140  O          8.7900  -24.3290  -10.9550 O.2   297  GLU297     -0.2864
    141  CB         5.9920  -23.7160  -10.0620 C.3   297  GLU297      0.0415
    142  CG         5.0570  -22.9260   -9.1660 C.3   297  GLU297      0.1163
    143  CD         3.9720  -23.8140   -8.5710 C.2   297  GLU297      0.3649
    144  OE1        3.7120  -24.9030   -9.1300 O.co2 297  GLU297     -0.2457
    145  OE2        3.3940  -23.4350   -7.5350 O.co2 297  GLU297     -0.2457
@<TRIPOS>BOND
     1    57    56    2
     2    56    55    1
     3   129   130    1
     4    55    58    1
     5    55    54    1
     6   131   130    1
     7   131   132    2
     8    58    59    1
     9   125   122    1
    10   125   126    1
    11   133   134    1
    12    59    60    1
    13   122   121    1
    14   122   123    1
    15    60    61    1
    16   134   135    1
    17    61    62    1
    18   126   127   ar
    19   126   128   ar
    20   123   124    2
    21   135   136    2
    22   135   137   am
    23    50    49    2
    24   137   138    1
    25    53    51    1
    26   139   138    1
    27   139   140    2
    28   103   104   ar
    29   103   101   ar
    30    49    48    1
    31   138   141    1
    32   104   102   ar
    33   105   106    1
    34   106   107    1
    35   106   109    1
    36   114   115    2
    37   114   113    1
    38    48    51    1
    39    48    47    1
    40    43    42    2
    41   112   107   am
    42   112   113    1
    43   101    98   ar
    44    51    52    1
    45   107   108    2
    46    94    93    2
    47   113   116    1
    48   141   142    1
    49   111   109    1
    50   109   110    1
    51    42    47   am
    52    42    41    1
    53   102   100   ar
    54    46    44    1
    55    98   100   ar
    56    98    96   ar
    57   142   143    1
    58   144   143   ar
    59    93    92    1
    60   100    99   ar
    61   143   145   ar
    62   116   117    1
    63    41    44    1
    64    41    40    1
    65    92    95    1
    66    92    91    1
    67    44    45    1
    68    95    96    1
    69    96    97   ar
    70    36    35    2
    71   117   118    1
    72    23    22    2
    73    27    26    2
    74    99    97   ar
    75    40    35   am
    76    35    34    1
    77    26    25    1
    78    26    33   am
    79    22    21    1
    80    22    24   am
    81   118   119    1
    82    16    15    2
    83    25    24    1
    84    25    28    1
    85    21    20    1
    86    34    33    1
    87    34    37    1
    88   119   120    1
    89    15    20   am
    90    15    14    1
    91    28    29    1
    92    39    37    1
    93    29    30    1
    94    37    38    1
    95    19    17    1
    96    17    14    1
    97    17    18    1
    98    85    84    2
    99    14    13    1
   100    30    31    1
   101    84    83    1
   102    13    11   am
   103    12    11    2
   104    31    32    1
   105    11    10    1
   106    83    86    1
   107    83    82    1
   108    86    87    1
   109    10     9    1
   110    87    88    1
   111     9     3   am
   112    63    64    1
   113    89    88    2
   114    67    64    1
   115    67    68    1
   116    88    90   am
   117     3     4    2
   118     3     2    1
   119    70    68   ar
   120    64    65    1
   121     1     2    1
   122     2     5    1
   123    68    69   ar
   124    66    65    2
   125     7     6    2
   126     5     6    1
   127     6     8   am
   128    81    79    1
   129    79    80    1
   130    79    78    2
   131    74    73    2
   132    78    77    1
   133    73    72    1
   134    75    72    1
   135    75    76    1
   136    71    72    1
   137    77    76    1
