@<TRIPOS>MOLECULE
tmp/6cy5A01.pdb
 83 77 0 0 0
SMALL
GASTEIGER

@<TRIPOS>ATOM
      1  N        -26.5310   15.7820   -0.6860 N.3   174  GLN174     -0.1245
      2  CA       -27.0400   16.2530   -1.9640 C.3   174  GLN174      0.1566
      3  C        -26.9570   15.1200   -2.9790 C.2   174  GLN174      0.2260
      4  O        -27.0290   13.9460   -2.6060 O.2   174  GLN174     -0.2867
      5  CB       -26.2600   17.4820   -2.4330 C.3   174  GLN174      0.0367
      6  CG       -26.3410   18.6700   -1.4840 C.3   174  GLN174      0.0905
      7  CD       -25.5100   19.8400   -1.9660 C.2   174  GLN174      0.2608
      8  OE1      -25.0610   19.8610   -3.1130 O.2   174  GLN174     -0.2717
      9  NE2      -25.3010   20.8230   -1.0980 N.am  174  GLN174     -0.0878
     10  N        -21.0420   19.4140   -5.2380 N.3   179  ASP179     -0.1239
     11  CA       -19.8290   20.0250   -4.7160 C.3   179  ASP179      0.1674
     12  C        -19.6370   19.6220   -3.2620 C.2   179  ASP179      0.2266
     13  O        -20.4750   19.9760   -2.4180 O.2   179  ASP179     -0.2867
     14  CB       -19.8850   21.5440   -4.8320 C.3   179  ASP179      0.1410
     15  CG       -18.7260   22.2120   -4.1310 C.2   179  ASP179      0.3668
     16  OD1      -17.5860   22.0980   -4.6270 O.co2 179  ASP179     -0.2456
     17  OD2      -18.9550   22.8310   -3.0730 O.co2 179  ASP179     -0.2456
     18  N        -17.7510   20.7270   -0.8850 N.3   181  ALA181     -0.1231
     19  CA       -17.7390   21.8510    0.0440 C.3   181  ALA181      0.1694
     20  C        -19.1490   22.3610    0.3110 C.2   181  ALA181      0.2592
     21  O        -19.4690   22.7570    1.4400 O.2   181  ALA181     -0.2718
     22  CB       -16.8490   22.9770   -0.4910 C.3   181  ALA181      0.0304
     23  N        -20.0080   22.3750   -0.7130 N.am  182  SER182     -0.1952
     24  CA       -21.3760   22.8370   -0.5040 C.3   182  SER182      0.1924
     25  C        -22.1220   21.9220    0.4570 C.2   182  SER182      0.2314
     26  O        -22.8990   22.3870    1.2940 O.2   182  SER182     -0.2863
     27  CB       -22.1210   22.9230   -1.8360 C.3   182  SER182      0.2116
     28  OG       -21.5090   23.8560   -2.7010 O.3   182  SER182     -0.2180
     29  N        -20.8760   22.7370    3.8950 N.3   185  PHE185     -0.1227
     30  CA       -21.4690   23.9910    4.3550 C.3   185  PHE185      0.1736
     31  C        -22.8710   23.7520    4.8960 C.2   185  PHE185      0.2595
     32  O        -23.2150   24.1930    6.0000 O.2   185  PHE185     -0.2718
     33  CB       -21.5140   24.9960    3.2080 C.3   185  PHE185      0.0547
     34  CG       -22.1110   26.3310    3.5800 C.ar  185  PHE185     -0.0202
     35  CD1      -23.4740   26.5500    3.4930 C.ar  185  PHE185     -0.0042
     36  CD2      -21.2930   27.3690    3.9950 C.ar  185  PHE185     -0.0042
     37  CE1      -24.0120   27.7810    3.8260 C.ar  185  PHE185     -0.0003
     38  CE2      -21.8150   28.6080    4.3230 C.ar  185  PHE185     -0.0003
     39  CZ       -23.1740   28.8130    4.2420 C.ar  185  PHE185     -0.0000
     40  N        -23.6890   23.0450    4.1160 N.am  186  ASP186     -0.1974
     41  CA       -25.0570   22.7550    4.5270 C.3   186  ASP186      0.1709
     42  C        -25.0830   21.9280    5.7980 C.2   186  ASP186      0.2293
     43  O        -25.9720   22.1070    6.6370 O.2   186  ASP186     -0.2864
     44  CB       -25.7950   22.0230    3.4130 C.3   186  ASP186      0.1436
     45  CG       -26.1050   22.9160    2.2390 C.2   186  ASP186      0.3671
     46  OD1      -26.0940   24.1560    2.3940 O.co2 186  ASP186     -0.2456
     47  OD2      -26.3810   22.3660    1.1650 O.co2 186  ASP186     -0.2456
     48  N        -10.8890   23.3690    0.1730 N.3   219  LYS219     -0.1245
     49  CA       -12.1580   24.0560   -0.0510 C.3   219  LYS219      0.1561
     50  C        -13.1950   23.6620    0.9950 C.2   219  LYS219      0.2260
     51  O        -13.9400   24.5160    1.4860 O.2   219  LYS219     -0.2867
     52  CB       -12.6920   23.7690   -1.4520 C.3   219  LYS219      0.0271
     53  CG       -13.8380   24.6780   -1.8010 C.3   219  LYS219      0.0035
     54  CD       -14.5110   24.2840   -3.1000 C.3   219  LYS219      0.0206
     55  CE       -15.7200   25.1760   -3.3630 C.3   219  LYS219      0.1093
     56  NZ       -16.5070   24.6640   -4.5120 N.3   219  LYS219     -0.1314
     57  N        -12.2990   25.6100    4.1510 N.3   222  ARG222     -0.1231
     58  CA       -12.5260   27.0500    4.0300 C.3   222  ARG222      0.1694
     59  C        -14.0140   27.3810    4.0560 C.2   222  ARG222      0.2591
     60  O        -14.4360   28.3660    4.6810 O.2   222  ARG222     -0.2718
     61  CB       -11.8750   27.5520    2.7400 C.3   222  ARG222      0.0321
     62  CG       -11.8670   29.0500    2.5440 C.3   222  ARG222      0.0489
     63  CD       -11.0790   29.3970    1.2830 C.3   222  ARG222      0.2205
     64  NE       -11.6370   28.7770    0.0790 N.pl3 222  ARG222     -0.0865
     65  CZ       -11.0930   27.7480   -0.5700 C.cat 222  ARG222      0.5346
     66  NH1       -9.9560   27.2010   -0.1510 N.pl3 222  ARG222      0.1354
     67  NH2      -11.6860   27.2690   -1.6550 N.pl3 222  ARG222      0.1354
     68  N        -14.8310   26.5660    3.3940 N.am  223  VAL223     -0.1980
     69  CA       -16.2560   26.8730    3.3410 C.3   223  VAL223      0.1595
     70  C        -16.9120   26.6370    4.7000 C.2   223  VAL223      0.2287
     71  O        -17.7640   27.4240    5.1330 O.2   223  VAL223     -0.2864
     72  CB       -16.9260   26.0630    2.2200 C.3   223  VAL223      0.0276
     73  CG1      -18.4070   26.2770    2.2540 C.3   223  VAL223      0.0022
     74  CG2      -16.3720   26.5030    0.8740 C.3   223  VAL223      0.0022
     75  N        -16.7090   29.5270    7.0810 N.3   226  LYS226     -0.1245
     76  CA       -17.6820   30.6060    6.9500 C.3   226  LYS226      0.1561
     77  C        -18.7410   30.5140    8.0380 C.2   226  LYS226      0.2260
     78  O        -19.2830   31.5400    8.4710 O.2   226  LYS226     -0.2867
     79  CB       -18.3490   30.5490    5.5730 C.3   226  LYS226      0.0271
     80  CG       -17.4150   30.7380    4.3910 C.3   226  LYS226      0.0035
     81  CD       -18.2000   30.6700    3.0840 C.3   226  LYS226      0.0206
     82  CE       -17.2900   30.6900    1.8670 C.3   226  LYS226      0.1093
     83  NZ       -16.4940   31.9480    1.8010 N.3   226  LYS226     -0.1314
@<TRIPOS>BOND
     1    10    11    1
     2    14    11    1
     3    14    15    1
     4    11    12    1
     5    16    15   ar
     6    56    55    1
     7    15    17   ar
     8    55    54    1
     9    12    13    2
    10     8     7    2
    11    54    53    1
    12     3     4    2
    13     3     2    1
    14    28    27    1
    15     5     2    1
    16     5     6    1
    17     7     6    1
    18     7     9   am
    19     2     1    1
    20    27    24    1
    21    53    52    1
    22    67    65    1
    23    52    49    1
    24    18    19    1
    25    23    24    1
    26    23    20   am
    27    65    66    1
    28    65    64    2
    29    24    25    1
    30    22    19    1
    31    49    48    1
    32    49    50    1
    33    19    20    1
    34    64    63    1
    35    20    21    2
    36    25    26    2
    37    74    72    1
    38    50    51    2
    39    47    45   ar
    40    63    62    1
    41    83    82    1
    42    82    81    1
    43    72    73    1
    44    72    69    1
    45    45    46   ar
    46    45    44    1
    47    62    61    1
    48    61    58    1
    49    81    80    1
    50    33    34    1
    51    33    30    1
    52    69    68    1
    53    69    70    1
    54    68    59   am
    55    44    41    1
    56    35    34   ar
    57    35    37   ar
    58    34    36   ar
    59    37    39   ar
    60    29    30    1
    61    36    38   ar
    62    58    59    1
    63    58    57    1
    64    59    60    2
    65    40    41    1
    66    40    31   am
    67    39    38   ar
    68    30    31    1
    69    80    79    1
    70    41    42    1
    71    70    71    2
    72    31    32    2
    73    79    76    1
    74    42    43    2
    75    76    75    1
    76    76    77    1
    77    77    78    2
