@<TRIPOS>MOLECULE
tmp/6cy6A05.pdb
 83 78 0 0 0
SMALL
GASTEIGER

@<TRIPOS>ATOM
      1  N         64.4490   62.7210   84.0960 N.3    24  SER24      -0.1217
      2  CA        65.5430   61.9900   84.7300 C.3    24  SER24       0.1889
      3  C         66.7080   62.8680   85.1210 C.2    24  SER24       0.2288
      4  O         67.5700   62.4030   85.9140 O.2    24  SER24      -0.2866
      5  CB        66.0360   60.8450   83.8370 C.3    24  SER24       0.2089
      6  OG        66.7030   61.3610   82.6890 O.3    24  SER24      -0.2183
      7  N         65.4320   65.6600   88.5040 N.3    27  ARG27      -0.1245
      8  CA        64.7910   64.8970   89.6100 C.3    27  ARG27       0.1563
      9  C         64.7110   65.7020   90.8720 C.2    27  ARG27       0.2260
     10  O         63.9030   65.3800   91.7490 O.2    27  ARG27      -0.2867
     11  CB        65.5570   63.6140   89.9440 C.3    27  ARG27       0.0307
     12  CG        65.4340   62.5470   88.8750 C.3    27  ARG27       0.0489
     13  CD        66.1940   61.2940   89.2230 C.3    27  ARG27       0.2205
     14  NE        67.6150   61.5380   89.0910 N.pl3  27  ARG27      -0.0865
     15  CZ        68.5480   61.6870   90.0500 C.cat  27  ARG27       0.5346
     16  NH1       69.7810   61.9560   89.6520 N.pl3  27  ARG27       0.1354
     17  NH2       68.3160   61.5820   91.3650 N.pl3  27  ARG27       0.1354
     18  N         74.9200   58.6600   88.9020 N.3   119  ILE119     -0.1231
     19  CA        74.1250   57.4830   89.0820 C.3   119  ILE119      0.1692
     20  C         73.6730   56.9790   87.7330 C.2   119  ILE119      0.2592
     21  O         73.3520   57.7570   86.8370 O.2   119  ILE119     -0.2718
     22  CB        72.9490   57.7510   90.0430 C.3   119  ILE119      0.0266
     23  CG1       72.0010   58.7380   89.5080 C.3   119  ILE119      0.0019
     24  CG2       73.4620   58.2300   91.4250 C.3   119  ILE119      0.0020
     25  CD1       70.6950   58.7310   90.3050 C.3   119  ILE119      0.0001
     26  N         73.8050   55.6820   87.5350 N.am  120  VAL120     -0.1966
     27  CA        73.4420   55.0250   86.2610 C.3   120  VAL120      0.1727
     28  C         72.7170   53.7060   86.5340 C.2   120  VAL120      0.2616
     29  O         72.9470   53.0010   87.5370 O.2   120  VAL120     -0.2715
     30  CB        74.7030   54.8630   85.3920 C.3   120  VAL120      0.0290
     31  CG1       75.7710   54.0500   86.0670 C.3   120  VAL120      0.0023
     32  CG2       74.4300   54.2430   84.0580 C.3   120  VAL120      0.0023
     33  N         71.7750   53.3500   85.6430 N.am  121  ASP121     -0.1971
     34  CA        71.0970   52.0880   85.8110 C.3   121  ASP121      0.1709
     35  C         72.0930   50.9480   85.7190 C.2   121  ASP121      0.2293
     36  O         72.9340   50.9700   84.8320 O.2   121  ASP121     -0.2864
     37  CB        70.0500   51.8840   84.6840 C.3   121  ASP121      0.1436
     38  CG        69.0930   50.7350   85.0310 C.2   121  ASP121      0.3671
     39  OD1       69.4440   49.5460   84.9550 O.co2 121  ASP121     -0.2456
     40  OD2       67.9590   51.0160   85.4440 O.co2 121  ASP121     -0.2456
     41  N         65.0550   53.1810   92.3790 N.3   146  PHE146     -0.1241
     42  CA        64.1360   53.8680   91.4630 C.3   146  PHE146      0.1605
     43  C         63.0360   52.8690   91.0270 C.2   146  PHE146      0.2264
     44  O         63.3320   51.7530   90.5920 O.2   146  PHE146     -0.2867
     45  CB        64.8790   54.3910   90.2320 C.3   146  PHE146      0.0534
     46  CG        65.9030   55.4470   90.5770 C.ar  146  PHE146     -0.0203
     47  CD1       65.5200   56.7540   90.6910 C.ar  146  PHE146     -0.0042
     48  CD2       67.2070   55.1220   90.7930 C.ar  146  PHE146     -0.0042
     49  CE1       66.4620   57.7300   90.9610 C.ar  146  PHE146     -0.0003
     50  CE2       68.1300   56.0700   91.1600 C.ar  146  PHE146     -0.0003
     51  CZ        67.7200   57.3630   91.2640 C.ar  146  PHE146     -0.0000
     52  N         60.8450   52.3840   87.9680 N.3   148  ILE148     -0.1245
     53  CA        60.8330   52.7910   86.5780 C.3   148  ILE148      0.1561
     54  C         60.0600   51.7560   85.7590 C.2   148  ILE148      0.2260
     55  O         60.3610   50.5760   85.8100 O.2   148  ILE148     -0.2867
     56  CB        62.2740   52.8530   86.0130 C.3   148  ILE148      0.0252
     57  CG1       63.2170   53.6170   86.9410 C.3   148  ILE148      0.0019
     58  CG2       62.2270   53.4060   84.5900 C.3   148  ILE148      0.0019
     59  CD1       62.9290   55.1280   86.9520 C.3   148  ILE148      0.0001
     60  N         64.2660   49.2360   90.2490 N.3   153  ARG153     -0.1231
     61  CA        65.5380   49.0180   89.5480 C.3   153  ARG153      0.1694
     62  C         66.7210   49.4060   90.4380 C.2   153  ARG153      0.2592
     63  O         66.6220   50.2480   91.3760 O.2   153  ARG153     -0.2718
     64  CB        65.5780   49.8630   88.2770 C.3   153  ARG153      0.0321
     65  CG        64.4730   49.4540   87.3230 C.3   153  ARG153      0.0489
     66  CD        64.6960   50.0120   85.9400 C.3   153  ARG153      0.2205
     67  NE        65.8780   49.4760   85.2740 N.pl3 153  ARG153     -0.0865
     68  CZ        65.8880   48.4460   84.4180 C.cat 153  ARG153      0.5346
     69  NH1       64.7440   47.7740   84.0700 N.pl3 153  ARG153      0.1354
     70  NH2       67.0310   48.0590   83.8910 N.pl3 153  ARG153      0.1354
     71  N         67.8110   48.7370   90.1500 N.am  154  ASN154     -0.1960
     72  CA        69.0580   48.9940   90.8510 C.3   154  ASN154      0.1819
     73  C         69.9220   50.0030   90.1130 C.2   154  ASN154      0.2621
     74  O         70.0180   49.9940   88.8600 O.2   154  ASN154     -0.2715
     75  CB        69.8490   47.6840   91.0590 C.3   154  ASN154      0.1195
     76  CG        69.0570   46.6920   91.8430 C.2   154  ASN154      0.2630
     77  OD1       68.4020   47.0370   92.8210 O.2   154  ASN154     -0.2716
     78  ND2       69.1160   45.4050   91.4270 N.am  154  ASN154     -0.0877
     79  N         70.5250   50.8980   90.8860 N.am  155  ALA155     -0.1977
     80  CA        71.4330   51.8790   90.2880 C.3   155  ALA155      0.1597
     81  C         72.8320   51.7200   90.8400 C.2   155  ALA155      0.2287
     82  O         73.0420   51.1340   91.9070 O.2   155  ALA155     -0.2864
     83  CB        70.9600   53.2650   90.5730 C.3   155  ALA155      0.0319
@<TRIPOS>BOND
     1     6     5    1
     2     5     2    1
     3    70    68    1
     4    32    30    1
     5    69    68    1
     6     1     2    1
     7    68    67    2
     8    58    56    1
     9    37    38    1
    10    37    34    1
    11     2     3    1
    12    36    35    2
    13    39    38   ar
    14    38    40   ar
    15     3     4    2
    16    67    66    1
    17    30    31    1
    18    30    27    1
    19    33    34    1
    20    33    28   am
    21    35    34    1
    22    54    55    2
    23    54    53    1
    24    66    65    1
    25    56    53    1
    26    56    57    1
    27    27    28    1
    28    27    26    1
    29    28    29    2
    30    53    52    1
    31    21    20    2
    32    57    59    1
    33    65    64    1
    34    26    20   am
    35    20    19    1
    36    64    61    1
    37     7     8    1
    38    74    73    2
    39    12    13    1
    40    12    11    1
    41    18    19    1
    42    19    22    1
    43    14    13    1
    44    14    15    2
    45    23    22    1
    46    23    25    1
    47    61    60    1
    48    61    62    1
    49     8    11    1
    50     8     9    1
    51    16    15    1
    52    22    24    1
    53    15    17    1
    54    73    72    1
    55    73    79   am
    56    71    62   am
    57    71    72    1
    58    45    46    1
    59    45    42    1
    60    80    83    1
    61    80    81    1
    62    80    79    1
    63    62    63    2
    64    46    47   ar
    65    46    48   ar
    66    44    43    2
    67    47    49   ar
    68    48    50   ar
    69    81    82    2
    70    72    75    1
    71     9    10    2
    72    49    51   ar
    73    43    42    1
    74    75    76    1
    75    50    51   ar
    76    78    76   am
    77    42    41    1
    78    76    77    2
