@<TRIPOS>MOLECULE
tmp/6cy6A01.pdb
 98 97 0 0 0
SMALL
GASTEIGER

@<TRIPOS>ATOM
      1  N         75.4890   77.7920   78.3300 N.3     7  PRO7       -0.2102
      2  CA        74.5150   77.7260   79.4230 C.3     7  PRO7        0.1504
      3  C         73.1220   77.4670   78.9630 C.2     7  PRO7        0.2575
      4  O         72.7490   77.8550   77.8610 O.2     7  PRO7       -0.2718
      5  CB        74.5270   79.1580   80.0350 C.3     7  PRO7        0.0282
      6  CG        75.6680   79.8660   79.3980 C.3     7  PRO7        0.0208
      7  CD        76.1660   79.1070   78.2100 C.3     7  PRO7        0.0893
      8  N         72.3570   76.7180   79.7660 N.am    8  LEU8       -0.1980
      9  CA        70.9850   76.4850   79.4980 C.3     8  LEU8        0.1596
     10  C         70.2280   77.8070   79.6880 C.2     8  LEU8        0.2287
     11  O         70.0900   78.3140   80.8120 O.2     8  LEU8       -0.2864
     12  CB        70.3560   75.4230   80.4350 C.3     8  LEU8        0.0297
     13  CG        68.8750   75.1800   80.2500 C.3     8  LEU8        0.0022
     14  CD1       68.6330   74.5230   78.9020 C.3     8  LEU8        0.0001
     15  CD2       68.3340   74.3360   81.3590 C.3     8  LEU8        0.0001
     16  N         64.1040   68.9260   90.7950 N.3    29  TRP29      -0.1298
     17  CA        63.0870   69.9690   90.5560 C.3    29  TRP29       0.1291
     18  C         61.7160   69.4360   90.6980 C.3    29  TRP29       0.2013
     19  O         60.7780   70.1450   91.2340 O.3    29  TRP29      -0.2188
     20  CB        63.2480   70.5920   89.1540 C.3    29  TRP29       0.0497
     21  CG        64.2710   71.7170   89.1120 C.ar   29  TRP29      -0.0001
     22  CD1       65.1470   72.1020   90.0850 C.ar   29  TRP29       0.0946
     23  CD2       64.5940   72.5280   87.9450 C.ar   29  TRP29       0.0152
     24  NE1       65.9480   73.1130   89.6150 N.ar   29  TRP29      -0.2442
     25  CE2       65.6170   73.3780   88.3020 C.ar   29  TRP29       0.0810
     26  CE3       64.0800   72.5990   86.6420 C.ar   29  TRP29       0.0012
     27  CZ2       66.1620   74.3340   87.4090 C.ar   29  TRP29       0.0191
     28  CZ3       64.5880   73.5060   85.7990 C.ar   29  TRP29       0.0001
     29  CH2       65.6320   74.3700   86.1700 C.ar   29  TRP29       0.0015
     30  N         62.6680   77.0320   86.5310 N.3    44  TYR44      -0.1241
     31  CA        63.9080   77.6600   86.0240 C.3    44  TYR44       0.1605
     32  C         64.0530   79.0330   86.6780 C.2    44  TYR44       0.2264
     33  O         65.1240   79.3440   87.1980 O.2    44  TYR44      -0.2867
     34  CB        63.8530   77.7640   84.4980 C.3    44  TYR44       0.0534
     35  CG        65.0460   78.3640   83.8450 C.ar   44  TYR44      -0.0201
     36  CD1       65.2440   79.7440   83.8440 C.ar   44  TYR44      -0.0009
     37  CD2       66.0390   77.5550   83.2720 C.ar   44  TYR44      -0.0009
     38  CE1       66.3700   80.3080   83.2550 C.ar   44  TYR44       0.0417
     39  CE2       67.1330   78.1040   82.6590 C.ar   44  TYR44       0.0417
     40  CZ        67.3400   79.4730   82.6700 C.ar   44  TYR44       0.1957
     41  OH        68.4700   80.0410   82.0870 O.3    44  TYR44      -0.2866
     42  N         65.2440   79.1970   90.2310 N.3    47  HIS47      -0.1226
     43  CA        66.6120   78.7270   90.4340 C.3    47  HIS47       0.1752
     44  C         67.6760   79.5950   89.8150 C.2    47  HIS47       0.2595
     45  O         68.8430   79.2120   89.7600 O.2    47  HIS47      -0.2718
     46  CB        66.7640   77.2480   90.0450 C.3    47  HIS47       0.0759
     47  CG        66.1080   76.3730   91.0350 C.ar   47  HIS47       0.0818
     48  ND1       64.7800   75.9960   90.9000 N.ar   47  HIS47      -0.2268
     49  CD2       66.4770   76.0310   92.3030 C.ar   47  HIS47       0.1154
     50  CE1       64.4260   75.3010   91.9780 C.ar   47  HIS47       0.1986
     51  NE2       65.3990   75.3760   92.8700 N.ar   47  HIS47      -0.2212
     52  N         67.2830   80.7910   89.3440 N.am   48  ILE48      -0.1980
     53  CA        68.2680   81.6820   88.8760 C.3    48  ILE48       0.1595
     54  C         69.1090   82.0400   90.1570 C.2    48  ILE48       0.2287
     55  O         68.6270   82.2660   91.2590 O.2    48  ILE48      -0.2864
     56  CB        67.7360   82.9650   88.0900 C.3    48  ILE48       0.0276
     57  CG1       67.0670   83.9290   89.0000 C.3    48  ILE48       0.0022
     58  CG2       66.9790   82.4690   86.8690 C.3    48  ILE48       0.0022
     59  CD1       66.9380   85.3230   88.3930 C.3    48  ILE48       0.0001
     60  N         71.0660   80.0820   91.6820 N.3    50  ASP50      -0.1239
     61  CA        71.2540   78.9640   92.5900 C.3    50  ASP50       0.1674
     62  C         72.6670   78.4180   92.4080 C.2    50  ASP50       0.2266
     63  O         72.9800   77.7820   91.3810 O.2    50  ASP50      -0.2867
     64  CB        70.1950   77.9370   92.3650 C.3    50  ASP50       0.1410
     65  CG        70.2660   76.7460   93.2900 C.2    50  ASP50       0.3668
     66  OD1       71.2450   76.5640   94.0890 O.co2  50  ASP50      -0.2456
     67  OD2       69.2880   76.0130   93.2560 O.co2  50  ASP50      -0.2456
     68  N         73.7250   74.5690   91.3230 N.3    53  GLU53      -0.1231
     69  CA        73.5720   73.9440   89.9780 C.3    53  GLU53       0.1699
     70  C         74.0890   74.7570   88.8550 C.2    53  GLU53       0.2592
     71  O         74.0320   76.0130   88.8380 O.2    53  GLU53      -0.2718
     72  CB        72.1180   73.5890   89.7220 C.3    53  GLU53       0.0402
     73  CG        71.1300   74.7850   89.8620 C.3    53  GLU53       0.1161
     74  CD        69.7340   74.3680   89.3560 C.2    53  GLU53       0.3649
     75  OE1       68.9950   73.7740   90.1340 O.co2  53  GLU53      -0.2457
     76  OE2       69.4260   74.7170   88.1720 O.co2  53  GLU53      -0.2457
     77  N         74.6080   74.0980   87.8610 N.am   54  ARG54      -0.1966
     78  CA        74.9720   74.7220   86.5880 C.3    54  ARG54       0.1729
     79  C         74.5210   73.7160   85.4950 C.2    54  ARG54       0.2616
     80  O         74.9980   72.5170   85.4990 O.2    54  ARG54      -0.2715
     81  CB        76.4350   75.0110   86.4370 C.3    54  ARG54       0.0348
     82  CG        76.7860   75.6670   85.1210 C.3    54  ARG54       0.0492
     83  CD        76.1640   77.0750   84.7950 C.3    54  ARG54       0.2205
     84  NE        76.6000   78.2450   85.5770 N.pl3  54  ARG54      -0.0865
     85  CZ        75.8290   79.1490   86.2000 C.cat  54  ARG54       0.5346
     86  NH1       76.3900   80.2470   86.6910 N.pl3  54  ARG54       0.1354
     87  NH2       74.4870   79.0490   86.3100 N.pl3  54  ARG54       0.1354
     88  N         73.6380   74.1450   84.5870 N.am   55  ARG55      -0.1977
     89  CA        73.1100   73.3150   83.5220 C.3    55  ARG55       0.1597
     90  C         73.4820   73.8750   82.1770 C.2    55  ARG55       0.2287
     91  O         73.4230   75.0910   81.9830 O.2    55  ARG55      -0.2864
     92  CB        71.5910   73.1760   83.6390 C.3    55  ARG55       0.0334
     93  CG        71.1020   72.7760   85.0310 C.3    55  ARG55       0.0492
     94  CD        69.5760   72.5620   85.1060 C.3    55  ARG55       0.2205
     95  NE        69.1390   72.4530   86.5240 N.pl3  55  ARG55      -0.0865
     96  CZ        68.7000   71.3360   87.0970 C.cat  55  ARG55       0.5346
     97  NH1       68.3780   71.3670   88.3410 N.pl3  55  ARG55       0.1354
     98  NH2       68.6370   70.1490   86.4670 N.pl3  55  ARG55       0.1354
@<TRIPOS>BOND
     1     4     3    2
     2     7     1    1
     3     7     6    1
     4     1     2    1
     5    14    13    1
     6     3     2    1
     7     3     8   am
     8     6     5    1
     9     2     5    1
    10     9    10    1
    11     9     8    1
    12     9    12    1
    13    10    11    2
    14    13    12    1
    15    13    15    1
    16    91    90    2
    17    41    40    1
    18    90    89    1
    19    39    40   ar
    20    39    37   ar
    21    40    38   ar
    22    38    36   ar
    23    37    35   ar
    24    89    92    1
    25    89    88    1
    26    92    93    1
    27    36    35   ar
    28    35    34    1
    29    34    31    1
    30    88    79   am
    31    83    82    1
    32    83    84    1
    33    93    94    1
    34    94    95    1
    35    82    81    1
    36    79    80    2
    37    79    78    1
    38    84    85    2
    39    28    29   ar
    40    28    26   ar
    41    31    30    1
    42    31    32    1
    43    29    27   ar
    44    85    87    1
    45    85    86    1
    46    81    78    1
    47    98    96    1
    48    95    96    2
    49    78    77    1
    50    26    23   ar
    51    32    33    2
    52    58    56    1
    53    96    97    1
    54    27    25   ar
    55    77    70   am
    56    23    25   ar
    57    23    21   ar
    58    56    53    1
    59    56    57    1
    60    76    74   ar
    61    25    24   ar
    62    59    57    1
    63    71    70    2
    64    70    69    1
    65    53    52    1
    66    53    54    1
    67    21    20    1
    68    21    22   ar
    69    20    17    1
    70    52    44   am
    71    74    73    1
    72    74    75   ar
    73    24    22   ar
    74    72    73    1
    75    72    69    1
    76    45    44    2
    77    44    43    1
    78    69    68    1
    79    46    43    1
    80    46    47    1
    81    54    55    2
    82    42    43    1
    83    17    18    1
    84    17    16    1
    85    18    19    1
    86    48    47   ar
    87    48    50   ar
    88    47    49   ar
    89    63    62    2
    90    60    61    1
    91    50    51   ar
    92    49    51   ar
    93    64    61    1
    94    64    65    1
    95    62    61    1
    96    67    65   ar
    97    65    66   ar
