@<TRIPOS>MOLECULE
tmp/6cy6A02.pdb
 84 79 0 0 0
SMALL
GASTEIGER

@<TRIPOS>ATOM
      1  N         73.7430   63.6350   82.4010 N.3    84  ILE84      -0.1231
      2  CA        73.7320   63.9490   80.9440 C.3    84  ILE84       0.1692
      3  C         72.5440   63.2780   80.2560 C.2    84  ILE84       0.2592
      4  O         72.1710   62.1700   80.6220 O.2    84  ILE84      -0.2718
      5  CB        75.0660   63.5760   80.3230 C.3    84  ILE84       0.0266
      6  CG1       75.1580   64.0120   78.8240 C.3    84  ILE84       0.0019
      7  CG2       75.3920   62.0840   80.4810 C.3    84  ILE84       0.0020
      8  CD1       76.5430   63.8180   78.2470 C.3    84  ILE84       0.0001
      9  N         72.0080   63.9430   79.2230 N.am   85  ILE85      -0.1966
     10  CA        71.0250   63.3090   78.3500 C.3    85  ILE85       0.1727
     11  C         71.3730   63.7800   76.9590 C.2    85  ILE85       0.2616
     12  O         71.6970   64.9330   76.7620 O.2    85  ILE85      -0.2715
     13  CB        69.5860   63.5610   78.7770 C.3    85  ILE85       0.0290
     14  CG1       68.6410   62.8320   77.8360 C.3    85  ILE85       0.0022
     15  CG2       69.2340   65.0030   78.8160 C.3    85  ILE85       0.0023
     16  CD1       67.1710   62.9010   78.2420 C.3    85  ILE85       0.0001
     17  N         71.3590   62.8440   76.0370 N.am   86  ILE86      -0.1977
     18  CA        71.7070   63.1800   74.5910 C.3    86  ILE86       0.1596
     19  C         70.5010   62.8000   73.7690 C.2    86  ILE86       0.2287
     20  O         69.9240   61.7280   73.9920 O.2    86  ILE86      -0.2864
     21  CB        72.9280   62.4130   74.1390 C.3    86  ILE86       0.0276
     22  CG1       74.2050   62.8370   74.8880 C.3    86  ILE86       0.0022
     23  CG2       73.2220   62.5290   72.6200 C.3    86  ILE86       0.0022
     24  CD1       74.6940   64.2250   74.6420 C.3    86  ILE86       0.0001
     25  N         73.1010   59.7110   69.6000 N.3    91  GLN91      -0.1231
     26  CA        73.6890   58.6330   70.3950 C.3    91  GLN91       0.1698
     27  C         74.4950   57.6820   69.5550 C.2    91  GLN91       0.2592
     28  O         74.2350   57.5700   68.3490 O.2    91  GLN91      -0.2718
     29  CB        72.6420   57.8580   71.1830 C.3    91  GLN91       0.0381
     30  CG        72.0310   58.6980   72.3270 C.3    91  GLN91       0.0905
     31  CD        70.9140   57.9910   73.0920 C.2    91  GLN91       0.2608
     32  OE1       70.1940   58.6120   73.9000 O.2    91  GLN91      -0.2717
     33  NE2       70.7350   56.7010   72.8210 N.am   91  GLN91      -0.0878
     34  N         75.4820   57.0400   70.1880 N.am   92  GLY92      -0.1957
     35  CA        76.3990   56.0750   69.5440 C.3    92  GLY92       0.1869
     36  C         77.5050   56.6230   68.6720 C.2    92  GLY92       0.2309
     37  O         78.2670   55.8300   68.0450 O.2    92  GLY92      -0.2863
     38  N         78.3780   61.7170   73.5710 N.3    96  ALA96      -0.1245
     39  CA        78.2560   61.7090   75.0340 C.3    96  ALA96       0.1562
     40  C         79.6340   61.7800   75.6690 C.2    96  ALA96       0.2260
     41  O         79.8230   62.4800   76.6830 O.2    96  ALA96      -0.2867
     42  CB        77.5350   60.4480   75.4920 C.3    96  ALA96       0.0290
     43  N         72.5990   49.4740   82.2270 N.3   124  ASN124     -0.1240
     44  CA        73.0120   50.3210   81.1260 C.3   124  ASN124      0.1653
     45  C         74.5350   50.1610   80.8590 C.2   124  ASN124      0.2266
     46  O         75.3320   51.0440   81.2280 O.2   124  ASN124     -0.2867
     47  CB        72.6360   51.7840   81.3530 C.3   124  ASN124      0.1155
     48  CG        72.7560   52.6080   80.0920 C.2   124  ASN124      0.2627
     49  OD1       73.3940   52.1780   79.1610 O.2   124  ASN124     -0.2716
     50  ND2       72.2500   53.8530   80.1220 N.am  124  ASN124     -0.0877
     51  N         76.2330   50.2150   78.1250 N.3   126  LYS126     -0.1231
     52  CA        76.8330   51.1970   77.2110 C.3   126  LYS126      0.1693
     53  C         77.2650   52.4260   78.0020 C.2   126  LYS126      0.2591
     54  O         78.3920   52.9300   77.8080 O.2   126  LYS126     -0.2718
     55  CB        75.8910   51.6540   76.0670 C.3   126  LYS126      0.0285
     56  CG        75.7820   50.7590   74.8240 C.3   126  LYS126      0.0035
     57  CD        74.6820   51.3050   73.8810 C.3   126  LYS126      0.0206
     58  CE        74.6590   50.6330   72.5170 C.3   126  LYS126      0.1093
     59  NZ        74.5450   49.1700   72.6510 N.3   126  LYS126     -0.1314
     60  N         76.3630   52.9420   78.8540 N.am  127  ALA127     -0.1980
     61  CA        76.7180   54.0940   79.6600 C.3   127  ALA127      0.1597
     62  C         77.8880   53.8350   80.6120 C.2   127  ALA127      0.2287
     63  O         78.8300   54.6220   80.7120 O.2   127  ALA127     -0.2864
     64  CB        75.5200   54.6420   80.4050 C.3   127  ALA127      0.0319
     65  N         81.2210   53.9870   78.7830 N.3   130  ILE130     -0.1231
     66  CA        81.6110   55.3580   78.4820 C.3   130  ILE130      0.1692
     67  C         82.1820   56.0500   79.7360 C.2   130  ILE130      0.2592
     68  O         83.2860   56.6400   79.6930 O.2   130  ILE130     -0.2718
     69  CB        80.3990   56.1240   77.9210 C.3   130  ILE130      0.0266
     70  CG1       80.0460   55.6250   76.5220 C.3   130  ILE130      0.0019
     71  CG2       80.6370   57.6350   77.9900 C.3   130  ILE130      0.0020
     72  CD1       78.7120   56.1810   76.0020 C.3   130  ILE130      0.0001
     73  N         81.5040   55.8790   80.8610 N.am  131  TYR131     -0.1976
     74  CA        81.9600   56.5330   82.1270 C.3   131  TYR131      0.1639
     75  C         83.2830   55.9350   82.6000 C.2   131  TYR131      0.2290
     76  O         84.1670   56.6610   83.0320 O.2   131  TYR131     -0.2864
     77  CB        80.8720   56.4830   83.1720 C.3   131  TYR131      0.0560
     78  CG        79.5440   57.1060   82.7530 C.ar  131  TYR131     -0.0198
     79  CD1       79.5160   58.3670   82.1740 C.ar  131  TYR131     -0.0009
     80  CD2       78.3860   56.5480   83.1770 C.ar  131  TYR131     -0.0009
     81  CE1       78.3110   58.9460   81.8350 C.ar  131  TYR131      0.0417
     82  CE2       77.1590   57.1390   82.8650 C.ar  131  TYR131      0.0417
     83  CZ        77.1700   58.3290   82.1770 C.ar  131  TYR131      0.1957
     84  OH        75.9520   58.9510   81.9030 O.3   131  TYR131     -0.2866
@<TRIPOS>BOND
     1    37    36    2
     2    28    27    2
     3    36    35    1
     4    35    34    1
     5    27    34   am
     6    27    26    1
     7    25    26    1
     8    26    29    1
     9    29    30    1
    10    30    31    1
    11    58    59    1
    12    58    57    1
    13    23    21    1
    14    33    31   am
    15    31    32    2
    16    38    39    1
    17    19    20    2
    18    19    18    1
    19    57    56    1
    20    21    18    1
    21    21    22    1
    22    18    17    1
    23    24    22    1
    24    56    55    1
    25    39    42    1
    26    39    40    1
    27    40    41    2
    28    72    70    1
    29    17    11   am
    30    55    52    1
    31    70    69    1
    32    12    11    2
    33    11    10    1
    34    52    53    1
    35    52    51    1
    36    54    53    2
    37    14    16    1
    38    14    13    1
    39    69    71    1
    40    69    66    1
    41    53    60   am
    42     8     6    1
    43    10    13    1
    44    10     9    1
    45    66    65    1
    46    66    67    1
    47    13    15    1
    48     6     5    1
    49    60    61    1
    50    49    48    2
    51     9     3   am
    52    61    64    1
    53    61    62    1
    54    68    67    2
    55    67    73   am
    56    48    50   am
    57    48    47    1
    58     3     4    2
    59     3     2    1
    60     5     7    1
    61     5     2    1
    62    62    63    2
    63    45    44    1
    64    45    46    2
    65    73    74    1
    66     2     1    1
    67    44    47    1
    68    44    43    1
    69    81    79   ar
    70    81    83   ar
    71    84    83    1
    72    74    75    1
    73    74    77    1
    74    79    78   ar
    75    83    82   ar
    76    75    76    2
    77    78    77    1
    78    78    80   ar
    79    82    80   ar
