@<TRIPOS>MOLECULE
tmp/6cy8A01.pdb
 196 186 0 0 0
SMALL
GASTEIGER

@<TRIPOS>ATOM
      1  N          2.2960   38.8030  132.2380 N.3   113  ASN113     -0.1240
      2  CA         1.5320   39.4540  133.2990 C.3   113  ASN113      0.1653
      3  C          1.7390   40.9660  133.2460 C.2   113  ASN113      0.2266
      4  O          2.8770   41.4420  133.2710 O.2   113  ASN113     -0.2867
      5  CB         1.9610   38.9050  134.6590 C.3   113  ASN113      0.1155
      6  CG         1.1580   39.4800  135.8050 C.2   113  ASN113      0.2627
      7  OD1        0.0450   39.0270  136.1070 O.2   113  ASN113     -0.2716
      8  ND2        1.7220   40.4850  136.4580 N.am  113  ASN113     -0.0877
      9  N          0.5510   44.5410  134.9860 N.3   115  ILE115     -0.1231
     10  CA        -0.1440   45.3370  135.9990 C.3   115  ILE115      0.1692
     11  C          0.5300   46.6960  136.1660 C.2   115  ILE115      0.2592
     12  O         -0.1510   47.7160  136.3110 O.2   115  ILE115     -0.2718
     13  CB        -0.2420   44.5790  137.3430 C.3   115  ILE115      0.0266
     14  CG1       -0.9940   45.4010  138.4020 C.3   115  ILE115      0.0019
     15  CG2        1.1140   44.1730  137.8620 C.3   115  ILE115      0.0020
     16  CD1       -1.5710   44.5340  139.5340 C.3   115  ILE115      0.0001
     17  N          1.8590   46.7310  136.0930 N.am  116  SER116     -0.1952
     18  CA         2.6040   47.9690  136.3060 C.3   116  SER116      0.1924
     19  C          2.2730   49.0290  135.2510 C.2   116  SER116      0.2314
     20  O          2.0470   48.7240  134.0730 O.2   116  SER116     -0.2863
     21  CB         4.1080   47.6810  136.3000 C.3   116  SER116      0.2116
     22  OG         4.4760   46.8410  137.3800 O.3   116  SER116     -0.2180
     23  N          3.5360   51.2290  140.4980 N.3   121  GLY121     -0.1210
     24  CA         4.5660   50.2150  140.5860 C.3   121  GLY121      0.1956
     25  C          4.4400   49.4600  141.8870 C.2   121  GLY121      0.2613
     26  O          3.7710   48.4280  141.9550 O.2   121  GLY121     -0.2717
     27  N          5.0750   49.9780  142.9370 N.am  122  SER122     -0.1938
     28  CA         4.8800   49.4130  144.2690 C.3   122  SER122      0.2055
     29  C          3.4380   49.5640  144.7470 C.2   122  SER122      0.2643
     30  O          2.9720   48.7550  145.5570 O.2   122  SER122     -0.2714
     31  CB         5.8280   50.0810  145.2670 C.3   122  SER122      0.2130
     32  OG         7.1760   49.9630  144.8500 O.3   122  SER122     -0.2179
     33  N          2.7320   50.6100  144.2990 N.am  123  ASP123     -0.1957
     34  CA         1.3350   50.8370  144.6590 C.3   123  ASP123      0.1840
     35  C          0.4640   50.5320  143.4440 C.2   123  ASP123      0.2621
     36  O          0.5390   51.2260  142.4230 O.2   123  ASP123     -0.2715
     37  CB         1.1070   52.2630  145.1620 C.3   123  ASP123      0.1450
     38  CG        -0.1420   52.3770  146.0410 C.2   123  ASP123      0.3671
     39  OD1       -0.8680   51.3620  146.1920 O.co2 123  ASP123     -0.2456
     40  OD2       -0.3850   53.4680  146.5980 O.co2 123  ASP123     -0.2456
     41  N         -0.3560   49.4930  143.5620 N.am  124  ILE124     -0.1977
     42  CA        -1.2010   49.0200  142.4730 C.3   124  ILE124      0.1596
     43  C         -2.6650   49.2340  142.8690 C.2   124  ILE124      0.2287
     44  O         -3.5680   48.5100  142.4310 O.2   124  ILE124     -0.2864
     45  CB        -0.8720   47.5460  142.1530 C.3   124  ILE124      0.0276
     46  CG1       -0.6940   46.7570  143.4380 C.3   124  ILE124      0.0022
     47  CG2        0.4140   47.4480  141.3610 C.3   124  ILE124      0.0022
     48  CD1       -0.8670   45.2980  143.2730 C.3   124  ILE124      0.0001
     49  N          5.9660   47.8210  132.1840 N.3   146  TYR146     -0.1241
     50  CA         7.0800   46.8550  132.2690 C.3   146  TYR146      0.1605
     51  C          6.5500   45.4220  132.1700 C.2   146  TYR146      0.2264
     52  O          6.5000   44.7250  133.1840 O.2   146  TYR146     -0.2867
     53  CB         7.9080   47.0400  133.5850 C.3   146  TYR146      0.0534
     54  CG         8.3710   48.4480  133.8240 C.ar  146  TYR146     -0.0201
     55  CD1        9.3890   48.9990  133.0570 C.ar  146  TYR146     -0.0009
     56  CD2        7.7730   49.2480  134.7910 C.ar  146  TYR146     -0.0009
     57  CE1        9.8130   50.2890  133.2510 C.ar  146  TYR146      0.0417
     58  CE2        8.1960   50.5550  134.9920 C.ar  146  TYR146      0.0417
     59  CZ         9.2200   51.0690  134.2160 C.ar  146  TYR146      0.1957
     60  OH         9.6630   52.3660  134.3960 O.3   146  TYR146     -0.2866
     61  N         -9.7910   49.1560  146.3690 N.3   168  TYR168     -0.1241
     62  CA        -9.0890   47.8810  146.4060 C.3   168  TYR168      0.1605
     63  C         -9.9050   46.7600  145.7780 C.2   168  TYR168      0.2264
     64  O         -9.3280   45.7690  145.3110 O.2   168  TYR168     -0.2867
     65  CB        -8.7180   47.5890  147.8690 C.3   168  TYR168      0.0534
     66  CG        -8.4230   46.1550  148.2720 C.ar  168  TYR168     -0.0201
     67  CD1       -7.3220   45.4660  147.7610 C.ar  168  TYR168     -0.0009
     68  CD2       -9.2120   45.5160  149.2280 C.ar  168  TYR168     -0.0009
     69  CE1       -7.0450   44.1530  148.1590 C.ar  168  TYR168      0.0417
     70  CE2       -8.9510   44.2130  149.6340 C.ar  168  TYR168      0.0417
     71  CZ        -7.8650   43.5340  149.1000 C.ar  168  TYR168      0.1957
     72  OH        -7.6120   42.2370  149.5100 O.3   168  TYR168     -0.2866
     73  N         -7.5630   42.5940  142.2840 N.3   222  ALA222     -0.1231
     74  CA        -6.4850   42.8680  143.2260 C.3   222  ALA222      0.1694
     75  C         -6.1220   41.6390  144.0460 C.2   222  ALA222      0.2591
     76  O         -4.9430   41.4350  144.3660 O.2   222  ALA222     -0.2718
     77  CB        -6.8620   44.0290  144.1400 C.3   222  ALA222      0.0304
     78  N         -7.1030   40.8080  144.3860 N.am  223  ARG223     -0.1980
     79  CA        -6.8130   39.5930  145.1400 C.3   223  ARG223      0.1597
     80  C         -6.3570   38.4640  144.2260 C.2   223  ARG223      0.2287
     81  O         -5.5390   37.6320  144.6350 O.2   223  ARG223     -0.2864
     82  CB        -8.0380   39.1800  145.9640 C.3   223  ARG223      0.0334
     83  CG        -8.4210   40.2260  147.0280 C.3   223  ARG223      0.0492
     84  CD        -9.6840   39.8650  147.7990 C.3   223  ARG223      0.2205
     85  NE        -9.4790   38.7210  148.6770 N.pl3 223  ARG223     -0.0865
     86  CZ        -8.8530   38.7810  149.8520 C.cat 223  ARG223      0.5346
     87  NH1       -8.3680   39.9450  150.3070 N.pl3 223  ARG223      0.1354
     88  NH2       -8.7130   37.6700  150.5710 N.pl3 223  ARG223      0.1354
     89  N         -4.4630   39.1490  141.7620 N.3   225  PHE225     -0.1227
     90  CA        -3.0620   39.5260  141.6410 C.3   225  PHE225      0.1736
     91  C         -2.2560   39.0690  142.8520 C.2   225  PHE225      0.2595
     92  O         -1.2060   38.4320  142.7060 O.2   225  PHE225     -0.2718
     93  CB        -2.8930   41.0240  141.4540 C.3   225  PHE225      0.0547
     94  CG        -1.4780   41.3960  141.2030 C.ar  225  PHE225     -0.0202
     95  CD1       -0.8370   40.9180  140.0620 C.ar  225  PHE225     -0.0042
     96  CD2       -0.7540   42.1440  142.1190 C.ar  225  PHE225     -0.0042
     97  CE1        0.4860   41.2200  139.8200 C.ar  225  PHE225     -0.0003
     98  CE2        0.5920   42.4610  141.8800 C.ar  225  PHE225     -0.0003
     99  CZ         1.2080   42.0030  140.7320 C.ar  225  PHE225     -0.0000
    100  N         -2.7250   39.3920  144.0600 N.am  226  ALA226     -0.1980
    101  CA        -2.0210   38.9310  145.2530 C.3   226  ALA226      0.1597
    102  C         -1.8200   37.4220  145.2230 C.2   226  ALA226      0.2287
    103  O         -0.7680   36.9240  145.6380 O.2   226  ALA226     -0.2864
    104  CB        -2.7680   39.3520  146.5200 C.3   226  ALA226      0.0319
    105  N          1.0470   36.7200  142.7780 N.3   229  MET229     -0.1245
    106  CA         2.3050   37.0920  143.4120 C.3   229  MET229      0.1570
    107  C          2.7050   36.0880  144.4800 C.2   229  MET229      0.2261
    108  O          3.8970   35.8820  144.7190 O.2   229  MET229     -0.2867
    109  CB         2.2080   38.5040  143.9930 C.3   229  MET229      0.0387
    110  CG         2.2270   39.5810  142.9320 C.3   229  MET229      0.0595
    111  SD         3.5510   39.3610  141.7150 S.3   229  MET229     -0.1393
    112  CE         2.6820   38.6520  140.3090 C.3   229  MET229      0.0692
    113  N          4.4320   33.6200  142.1630 N.3   232  GLU232     -0.1231
    114  CA         5.6770   34.1260  141.5940 C.3   232  GLU232      0.1699
    115  C          6.7330   34.3510  142.6750 C.2   232  GLU232      0.2592
    116  O          7.8860   33.9290  142.5240 O.2   232  GLU232     -0.2718
    117  CB         5.4130   35.4110  140.8120 C.3   232  GLU232      0.0402
    118  CG         6.3310   35.6230  139.6230 C.3   232  GLU232      0.1161
    119  CD         6.2440   37.0410  139.0730 C.2   232  GLU232      0.3649
    120  OE1        5.8850   37.2180  137.8840 O.co2 232  GLU232     -0.2457
    121  OE2        6.5340   37.9940  139.8280 O.co2 232  GLU232     -0.2457
    122  N          6.3570   34.9820  143.7930 N.am  233  ARG233     -0.1980
    123  CA         7.3520   35.2570  144.8260 C.3   233  ARG233      0.1597
    124  C          7.8450   33.9810  145.4850 C.2   233  ARG233      0.2287
    125  O          8.9750   33.9440  145.9770 O.2   233  ARG233     -0.2864
    126  CB         6.8000   36.1890  145.9050 C.3   233  ARG233      0.0334
    127  CG         6.5560   37.6070  145.4890 C.3   233  ARG233      0.0492
    128  CD         5.5620   38.2620  146.4590 C.3   233  ARG233      0.2205
    129  NE         5.0770   39.5570  145.9870 N.pl3 233  ARG233     -0.0865
    130  CZ         4.0850   40.2390  146.5580 C.cat 233  ARG233      0.5346
    131  NH1        3.4620   39.7410  147.6210 N.pl3 233  ARG233      0.1354
    132  NH2        3.7120   41.4160  146.0660 N.pl3 233  ARG233      0.1354
    133  N          1.7660   34.1590  153.6180 N.3   303  THR303     -0.1218
    134  CA         2.3350   35.3380  152.9830 C.3   303  THR303      0.1862
    135  C          3.6300   35.7660  153.6700 C.2   303  THR303      0.2287
    136  O          4.5960   36.1440  152.9950 O.2   303  THR303     -0.2866
    137  CB         1.3070   36.4680  152.9710 C.3   303  THR303      0.1770
    138  OG1        0.1550   36.0380  152.2460 O.3   303  THR303     -0.2211
    139  CG2        1.8690   37.7030  152.2820 C.3   303  THR303      0.0375
    140  N         11.4430   43.1310  140.9390 N.3   352  PHE352     -0.1227
    141  CA        10.2000   42.5440  140.4710 C.3   352  PHE352      0.1736
    142  C          9.6280   41.5930  141.5150 C.2   352  PHE352      0.2596
    143  O         10.3110   41.1550  142.4450 O.2   352  PHE352     -0.2718
    144  CB        10.3790   41.8200  139.1340 C.3   352  PHE352      0.0547
    145  CG        11.4890   40.8220  139.1090 C.ar  352  PHE352     -0.0202
    146  CD1       11.3690   39.6040  139.7640 C.ar  352  PHE352     -0.0042
    147  CD2       12.6520   41.0850  138.3970 C.ar  352  PHE352     -0.0042
    148  CE1       12.4060   38.6620  139.7300 C.ar  352  PHE352     -0.0003
    149  CE2       13.6930   40.1490  138.3510 C.ar  352  PHE352     -0.0003
    150  CZ        13.5630   38.9330  139.0180 C.ar  352  PHE352     -0.0000
    151  N          8.3520   41.2650  141.3300 N.am  353  SER353     -0.1938
    152  CA         7.5250   40.6500  142.3600 C.3   353  SER353      0.2055
    153  C          7.4500   41.5290  143.6040 C.2   353  SER353      0.2643
    154  O          7.0970   41.0540  144.6860 O.2   353  SER353     -0.2714
    155  CB         8.0140   39.2390  142.7280 C.3   353  SER353      0.2130
    156  OG         8.5160   38.5390  141.6020 O.3   353  SER353     -0.2179
    157  N          7.7570   42.8190  143.4590 N.am  354  GLY354     -0.1954
    158  CA         7.7060   43.7310  144.5840 C.3   354  GLY354      0.1869
    159  C          9.0610   43.9000  145.2410 C.2   354  GLY354      0.2309
    160  O          9.7050   42.9270  145.6530 O.2   354  GLY354     -0.2863
    161  N          8.8790   46.5160  149.7910 N.3   358  ILE358     -0.1245
    162  CA         7.4750   46.1100  149.8260 C.3   358  ILE358      0.1561
    163  C          7.3110   44.7510  150.5080 C.2   358  ILE358      0.2260
    164  O          6.3410   44.5320  151.2470 O.2   358  ILE358     -0.2867
    165  CB         6.8620   46.1430  148.4060 C.3   358  ILE358      0.0252
    166  CG1        6.4070   47.5580  147.9970 C.3   358  ILE358      0.0019
    167  CG2        5.7000   45.1960  148.2880 C.3   358  ILE358      0.0019
    168  CD1        7.3590   48.7070  148.3450 C.3   358  ILE358      0.0001
    169  N          7.1440   45.4830  154.1280 N.3   361  GLU361     -0.1231
    170  CA         5.8040   45.9620  154.4570 C.3   361  GLU361      0.1699
    171  C          4.8400   44.8010  154.6760 C.2   361  GLU361      0.2592
    172  O          4.0830   44.7860  155.6560 O.2   361  GLU361     -0.2718
    173  CB         5.2930   46.8850  153.3470 C.3   361  GLU361      0.0402
    174  CG         5.8810   48.2750  153.3950 C.3   361  GLU361      0.1161
    175  CD         5.4010   49.0630  154.6020 C.2   361  GLU361      0.3649
    176  OE1        4.2090   49.4460  154.6370 O.co2 361  GLU361     -0.2457
    177  OE2        6.2140   49.3140  155.5110 O.co2 361  GLU361     -0.2457
    178  N          4.8730   43.8090  153.7820 N.am  362  LEU362     -0.1980
    179  CA         4.0740   42.5990  153.9720 C.3   362  LEU362      0.1596
    180  C          4.4600   41.8810  155.2550 C.2   362  LEU362      0.2287
    181  O          3.5930   41.5250  156.0620 O.2   362  LEU362     -0.2864
    182  CB         4.2290   41.6570  152.7730 C.3   362  LEU362      0.0297
    183  CG         3.5910   42.1230  151.4600 C.3   362  LEU362      0.0022
    184  CD1        4.4190   41.6730  150.2550 C.3   362  LEU362      0.0001
    185  CD2        2.1380   41.6520  151.3660 C.3   362  LEU362      0.0001
    186  N          1.9850   40.9780  158.4220 N.3   366  ARG366     -0.1245
    187  CA         1.6970   39.6430  158.9300 C.3   366  ARG366      0.1563
    188  C          2.2480   39.4220  160.3330 C.2   366  ARG366      0.2260
    189  O          1.8510   38.4600  160.9980 O.2   366  ARG366     -0.2867
    190  CB         2.2630   38.5790  157.9860 C.3   366  ARG366      0.0307
    191  CG         1.5910   38.5180  156.6200 C.3   366  ARG366      0.0489
    192  CD         0.0670   38.4410  156.7320 C.3   366  ARG366      0.2205
    193  NE        -0.5840   38.0810  155.4680 N.pl3 366  ARG366     -0.0865
    194  CZ        -0.7940   38.9290  154.4610 C.cat 366  ARG366      0.5346
    195  NH1       -0.3950   40.1880  154.5590 N.pl3 366  ARG366      0.1354
    196  NH2       -1.3980   38.5180  153.3540 N.pl3 366  ARG366      0.1354
@<TRIPOS>BOND
     1    51    50    1
     2    51    52    2
     3    49    50    1
     4     1     2    1
     5    50    53    1
     6    55    57   ar
     7    55    54   ar
     8     3     4    2
     9     3     2    1
    10    57    59   ar
    11     2     5    1
    12    53    54    1
    13    54    56   ar
    14    20    19    2
    15    59    60    1
    16    59    58   ar
    17     5     6    1
    18    56    58   ar
    19     9    10    1
    20    19    18    1
    21     6     7    2
    22     6     8   am
    23    10    11    1
    24    10    13    1
    25    17    11   am
    26    17    18    1
    27    11    12    2
    28    21    18    1
    29    21    22    1
    30    13    15    1
    31    13    14    1
    32   120   119   ar
    33   149   147   ar
    34   149   150   ar
    35   147   145   ar
    36    14    16    1
    37   150   148   ar
    38   119   118    1
    39   119   121   ar
    40   145   144    1
    41   145   146   ar
    42   144   141    1
    43   118   117    1
    44   148   146   ar
    45    97    95   ar
    46    97    99   ar
    47    95    94   ar
    48   112   111    1
    49   141   140    1
    50   141   142    1
    51    23    24    1
    52    24    25    1
    53    99    98   ar
    54   117   114    1
    55    94    93    1
    56    94    96   ar
    57   151   142   am
    58   151   152    1
    59    47    45    1
    60    93    90    1
    61   142   143    2
    62   114   113    1
    63   114   115    1
    64   156   155    1
    65    90    89    1
    66    90    91    1
    67   111   110    1
    68    98    96   ar
    69    25    26    2
    70    25    27   am
    71    45    42    1
    72    45    46    1
    73    73    74    1
    74   152   155    1
    75   152   153    1
    76    36    35    2
    77    44    43    2
    78    42    43    1
    79    42    41    1
    80   116   115    2
    81   115   122   am
    82    92    91    2
    83   105   106    1
    84    91   100   am
    85   110   109    1
    86    27    28    1
    87    74    75    1
    88    74    77    1
    89    48    46    1
    90   106   109    1
    91   106   107    1
    92    35    41   am
    93    35    34    1
    94   157   153   am
    95   157   158    1
    96   153   154    2
    97   122   123    1
    98    75    76    2
    99    75    78   am
   100   100   101    1
   101    80    81    2
   102    80    79    1
   103    28    29    1
   104    28    31    1
   105    33    34    1
   106    33    29   am
   107    78    79    1
   108   107   108    2
   109   158   159    1
   110    34    37    1
   111    29    30    2
   112   123   124    1
   113   123   126    1
   114    32    31    1
   115    79    82    1
   116    37    38    1
   117   102   101    1
   118   102   103    2
   119   159   160    2
   120   101   104    1
   121    64    63    2
   122   124   125    2
   123   127   126    1
   124   127   128    1
   125    63    62    1
   126    82    83    1
   127   129   128    1
   128   129   130    2
   129    38    39   ar
   130    38    40   ar
   131   132   130    1
   132    61    62    1
   133    62    65    1
   134   130   131    1
   135    83    84    1
   136    67    69   ar
   137    67    66   ar
   138    84    85    1
   139    65    66    1
   140   166   168    1
   141   166   165    1
   142    69    71   ar
   143    66    68   ar
   144   167   165    1
   145   165   162    1
   146    85    86    2
   147    71    72    1
   148    71    70   ar
   149    68    70   ar
   150   161   162    1
   151   162   163    1
   152    86    87    1
   153    86    88    1
   154   184   183    1
   155   163   164    2
   156   185   183    1
   157   183   182    1
   158   138   137    1
   159   139   137    1
   160   182   179    1
   161   137   134    1
   162   134   133    1
   163   134   135    1
   164   136   135    2
   165   173   174    1
   166   173   170    1
   167   196   194    1
   168   174   175    1
   169   178   179    1
   170   178   171   am
   171   179   180    1
   172   169   170    1
   173   170   171    1
   174   194   195    1
   175   194   193    2
   176   175   176   ar
   177   175   177   ar
   178   171   172    2
   179   180   181    2
   180   193   192    1
   181   191   192    1
   182   191   190    1
   183   190   187    1
   184   186   187    1
   185   187   188    1
   186   188   189    2
