@<TRIPOS>MOLECULE
tmp/6cybA00.pdb
 183 175 0 0 0
SMALL
GASTEIGER

@<TRIPOS>ATOM
      1  N         28.3880  -14.0910   18.6640 N.3    82  TYR82      -0.1227
      2  CA        29.2470  -12.9410   18.9440 C.3    82  TYR82       0.1736
      3  C         28.7600  -12.0250   20.0550 C.2    82  TYR82       0.2595
      4  O         29.5450  -11.7410   20.9520 O.2    82  TYR82      -0.2718
      5  CB        29.5260  -12.1060   17.6820 C.3    82  TYR82       0.0548
      6  CG        30.5300  -10.9940   17.9300 C.ar   82  TYR82      -0.0200
      7  CD1       31.9060  -11.2460   17.9130 C.ar   82  TYR82      -0.0009
      8  CD2       30.1080   -9.6850   18.1460 C.ar   82  TYR82      -0.0009
      9  CE1       32.8320  -10.2270   18.1550 C.ar   82  TYR82       0.0417
     10  CE2       31.0270   -8.6580   18.3900 C.ar   82  TYR82       0.0417
     11  CZ        32.3870   -8.9320   18.3760 C.ar   82  TYR82       0.1957
     12  OH        33.2780   -7.9080   18.5850 O.3    82  TYR82      -0.2866
     13  N         27.5170  -11.5340   19.9790 N.am   83  HIS83      -0.1975
     14  CA        27.0130  -10.5410   20.9440 C.3    83  HIS83       0.1656
     15  C         26.5740  -11.1640   22.2730 C.2    83  HIS83       0.2291
     16  O         25.3880  -11.1040   22.6710 O.2    83  HIS83      -0.2864
     17  CB        25.9150   -9.7010   20.2960 C.3    83  HIS83       0.0771
     18  CG        26.4950   -8.7250   19.3190 C.ar   83  HIS83       0.0820
     19  ND1       26.3810   -8.9170   17.9500 N.ar   83  HIS83      -0.2267
     20  CD2       27.1910   -7.5850   19.5480 C.ar   83  HIS83       0.1154
     21  CE1       26.9800   -7.8730   17.3890 C.ar   83  HIS83       0.1986
     22  NE2       27.5140   -7.0640   18.3090 N.ar   83  HIS83      -0.2212
     23  N         27.9230    3.4740   19.9750 N.3   195  THR195     -0.1203
     24  CA        28.2310    2.1330   19.4370 C.3   195  THR195      0.1994
     25  C         27.4170    1.8050   18.1740 C.2   195  THR195      0.2618
     26  O         27.6640    0.7810   17.5420 O.2   195  THR195     -0.2717
     27  CB        28.0620    1.0220   20.4860 C.3   195  THR195      0.1784
     28  OG1       26.6940    0.9980   20.8810 O.3   195  THR195     -0.2211
     29  CG2       28.9650    1.1840   21.6840 C.3   195  THR195      0.0376
     30  N         26.4560    2.6770   17.7850 N.am  196  ASP196     -0.1959
     31  CA        25.7260    2.4330   16.5400 C.3   196  ASP196      0.1840
     32  C         26.6810    2.9110   15.4290 C.2   196  ASP196      0.2621
     33  O         27.0980    4.0800   15.4320 O.2   196  ASP196     -0.2715
     34  CB        24.4430    3.2610   16.5040 C.3   196  ASP196      0.1450
     35  CG        23.5820    3.0460   15.2660 C.2   196  ASP196      0.3671
     36  OD1       24.0490    2.3840   14.3190 O.co2 196  ASP196     -0.2456
     37  OD2       22.4300    3.5280   15.2550 O.co2 196  ASP196     -0.2456
     38  N         27.0600    2.0030   14.5000 N.am  197  LEU197     -0.1977
     39  CA        27.9500    2.3620   13.3990 C.3   197  LEU197      0.1596
     40  C         27.4180    3.5970   12.6330 C.2   197  LEU197      0.2287
     41  O         28.2200    4.4350   12.2150 O.2   197  LEU197     -0.2864
     42  CB        28.1440    1.1760   12.4460 C.3   197  LEU197      0.0297
     43  CG        29.0520    1.4030   11.2410 C.3   197  LEU197      0.0022
     44  CD1       30.4490    1.9210   11.6590 C.3   197  LEU197      0.0001
     45  CD2       29.2010    0.1260   10.4660 C.3   197  LEU197      0.0001
     46  N         28.7750    6.6650   14.3240 N.3   200  HIS200     -0.1241
     47  CA        30.2010    6.8320   14.0230 C.3   200  HIS200      0.1621
     48  C         30.3590    7.4590   12.6110 C.2   200  HIS200      0.2264
     49  O         31.0960    8.4350   12.4770 O.2   200  HIS200     -0.2867
     50  CB        30.9420    5.4820   14.1170 C.3   200  HIS200      0.0745
     51  CG        32.3470    5.5910   13.6170 C.ar  200  HIS200      0.0817
     52  ND1       33.2980    6.3360   14.3040 N.ar  200  HIS200     -0.2268
     53  CD2       32.9080    5.0820   12.5010 C.ar  200  HIS200      0.1154
     54  CE1       34.4030    6.2430   13.5900 C.ar  200  HIS200      0.1986
     55  NE2       34.2150    5.5080   12.4890 N.ar  200  HIS200     -0.2212
     56  N         34.0700    3.2280   20.4290 N.3   232  THR232     -0.1218
     57  CA        34.1400    2.4130   19.2020 C.3   232  THR232      0.1862
     58  C         35.4570    1.6160   19.1480 C.2   232  THR232      0.2287
     59  O         35.4450    0.4770   18.6840 O.2   232  THR232     -0.2866
     60  CB        33.8710    3.2240   17.9360 C.3   232  THR232      0.1770
     61  OG1       34.8590    4.2710   17.8160 O.3   232  THR232     -0.2211
     62  CG2       32.4330    3.7850   17.9200 C.3   232  THR232      0.0375
     63  N         34.8380   -1.3950   21.2200 N.3   235  ASP235     -0.1225
     64  CA        33.8890   -2.3030   20.5630 C.3   235  ASP235      0.1805
     65  C         34.5200   -3.1360   19.4410 C.2   235  ASP235      0.2597
     66  O         34.0320   -4.2370   19.1590 O.2   235  ASP235     -0.2718
     67  CB        32.7060   -1.5100   19.9840 C.3   235  ASP235      0.1424
     68  CG        31.3260   -2.1560   20.0940 C.2   235  ASP235      0.3668
     69  OD1       31.2470   -3.3800   20.3820 O.co2 235  ASP235     -0.2456
     70  OD2       30.3440   -1.4570   19.8610 O.co2 235  ASP235     -0.2456
     71  N         35.5780   -2.6090   18.8000 N.am  236  LEU236     -0.1979
     72  CA        36.2370   -3.2790   17.6860 C.3   236  LEU236      0.1596
     73  C         37.5710   -3.8790   18.0960 C.2   236  LEU236      0.2287
     74  O         38.2970   -4.4030   17.2430 O.2   236  LEU236     -0.2864
     75  CB        36.4630   -2.2280   16.5510 C.3   236  LEU236      0.0297
     76  CG        35.2010   -1.5770   15.9660 C.3   236  LEU236      0.0022
     77  CD1       35.5240   -0.7820   14.7330 C.3   236  LEU236      0.0001
     78  CD2       34.1310   -2.6470   15.6110 C.3   236  LEU236      0.0001
     79  N         38.6890   -6.5980   19.2750 N.3   238  ASP238     -0.1225
     80  CA        39.1260   -7.9650   18.9030 C.3   238  ASP238      0.1805
     81  C         40.0490   -7.8890   17.6640 C.2   238  ASP238      0.2597
     82  O         40.8930   -8.7720   17.4720 O.2   238  ASP238     -0.2718
     83  CB        37.9290   -8.8270   18.4960 C.3   238  ASP238      0.1424
     84  CG        37.0940   -9.3550   19.6340 C.2   238  ASP238      0.3668
     85  OD1       37.6560   -9.5870   20.7350 O.co2 238  ASP238     -0.2456
     86  OD2       35.8810   -9.5490   19.4310 O.co2 238  ASP238     -0.2456
     87  N         39.9100   -6.8370   16.8340 N.am  239  GLN239     -0.1979
     88  CA        40.7440   -6.6920   15.6200 C.3   239  GLN239      0.1601
     89  C         42.2100   -6.2630   15.8890 C.2   239  GLN239      0.2287
     90  O         43.0480   -6.3070   14.9630 O.2   239  GLN239     -0.2864
     91  CB        40.1020   -5.7180   14.6200 C.3   239  GLN239      0.0394
     92  CG        38.7100   -6.1570   14.1430 C.3   239  GLN239      0.0908
     93  CD        38.7140   -7.3700   13.2470 C.2   239  GLN239      0.2608
     94  OE1       39.7430   -7.7750   12.7020 O.2   239  GLN239     -0.2717
     95  NE2       37.5540   -7.9700   13.0540 N.am  239  GLN239     -0.0878
     96  N         37.0820  -14.5490   15.4810 N.3   249  ILE249     -0.1231
     97  CA        35.9920  -13.5690   15.6220 C.3   249  ILE249      0.1692
     98  C         35.2540  -13.4210   14.2920 C.2   249  ILE249      0.2591
     99  O         34.0270  -13.2200   14.3100 O.2   249  ILE249     -0.2718
    100  CB        36.5010  -12.2600   16.2820 C.3   249  ILE249      0.0266
    101  CG1       36.4640  -12.4120   17.8380 C.3   249  ILE249      0.0019
    102  CG2       35.6310  -11.0270   15.8890 C.3   249  ILE249      0.0020
    103  CD1       37.1880  -13.5910   18.5190 C.3   249  ILE249      0.0001
    104  N         35.9490  -13.6040   13.1440 N.am  250  ALA250     -0.1980
    105  CA        35.2540  -13.5640   11.8550 C.3   250  ALA250      0.1597
    106  C         34.2640  -14.7330   11.8210 C.2   250  ALA250      0.2287
    107  O         33.1400  -14.5440   11.3800 O.2   250  ALA250     -0.2864
    108  CB        36.2470  -13.6970   10.7180 C.3   250  ALA250      0.0319
    109  N         31.2770  -13.7500   14.1270 N.3   253  ILE253     -0.1231
    110  CA        30.4940  -12.6770   13.4850 C.3   253  ILE253      0.1692
    111  C         29.6430  -13.2250   12.3460 C.2   253  ILE253      0.2592
    112  O         28.4470  -12.9510   12.2870 O.2   253  ILE253     -0.2718
    113  CB        31.4460  -11.5510   12.9790 C.3   253  ILE253      0.0266
    114  CG1       31.8320  -10.6130   14.1380 C.3   253  ILE253      0.0019
    115  CG2       30.8750  -10.7570   11.7970 C.3   253  ILE253      0.0020
    116  CD1       30.6550   -9.6070   14.5950 C.3   253  ILE253      0.0001
    117  N         30.2670  -13.9910   11.4380 N.am  254  TYR254     -0.1976
    118  CA        29.5060  -14.4840   10.2890 C.3   254  TYR254      0.1639
    119  C         28.5240  -15.5950   10.6410 C.2   254  TYR254      0.2290
    120  O         27.4690  -15.6520   10.0050 O.2   254  TYR254     -0.2864
    121  CB        30.4520  -14.8350    9.1330 C.3   254  TYR254      0.0560
    122  CG        30.9930  -13.5390    8.5690 C.ar  254  TYR254     -0.0198
    123  CD1       30.1970  -12.7200    7.7710 C.ar  254  TYR254     -0.0009
    124  CD2       32.2540  -13.0730    8.9290 C.ar  254  TYR254     -0.0009
    125  CE1       30.6640  -11.4890    7.3080 C.ar  254  TYR254      0.0417
    126  CE2       32.7390  -11.8510    8.4550 C.ar  254  TYR254      0.0417
    127  CZ        31.9310  -11.0590    7.6610 C.ar  254  TYR254      0.1957
    128  OH        32.3910   -9.8620    7.1790 O.3   254  TYR254     -0.2866
    129  N         25.7000  -13.2890   11.7370 N.3   257  PHE257     -0.1241
    130  CA        25.1240  -12.5780   10.6080 C.3   257  PHE257      0.1605
    131  C         24.3780  -13.5000    9.6460 C.2   257  PHE257      0.2264
    132  O         23.2750  -13.1550    9.2230 O.2   257  PHE257     -0.2867
    133  CB        26.2380  -11.8520    9.8430 C.3   257  PHE257      0.0534
    134  CG        26.8750  -10.6310   10.4760 C.ar  257  PHE257     -0.0203
    135  CD1       26.5130  -10.2090   11.7580 C.ar  257  PHE257     -0.0042
    136  CD2       27.8610   -9.9200    9.8040 C.ar  257  PHE257     -0.0042
    137  CE1       27.1250   -9.0930   12.3430 C.ar  257  PHE257     -0.0003
    138  CE2       28.4450   -8.7910   10.3740 C.ar  257  PHE257     -0.0003
    139  CZ        28.0770   -8.3830   11.6400 C.ar  257  PHE257     -0.0000
    140  N         26.1560   -9.2410    2.8240 N.3   274  MET274     -0.1245
    141  CA        27.0400   -9.6100    3.9420 C.3   274  MET274      0.1570
    142  C         26.3960  -10.5580    4.9570 C.2   274  MET274      0.2261
    143  O         27.1150  -11.1820    5.7420 O.2   274  MET274     -0.2867
    144  CB        27.6180   -8.3740    4.6380 C.3   274  MET274      0.0387
    145  CG        26.5760   -7.5580    5.4000 C.3   274  MET274      0.0595
    146  SD        27.3140   -6.1700    6.2850 S.3   274  MET274     -0.1393
    147  CE        27.9930   -6.9650    7.5790 C.3   274  MET274      0.0692
    148  N         35.7780   -8.6800    5.0950 N.3   286  GLN286     -0.1245
    149  CA        36.6540   -8.3020    6.1960 C.3   286  GLN286      0.1566
    150  C         37.6900   -7.2920    5.7650 C.2   286  GLN286      0.2260
    151  O         37.9400   -6.3590    6.5120 O.2   286  GLN286     -0.2867
    152  CB        37.2590   -9.5080    6.8990 C.3   286  GLN286      0.0367
    153  CG        36.1680  -10.2500    7.7040 C.3   286  GLN286      0.0905
    154  CD        35.5040   -9.3730    8.7620 C.2   286  GLN286      0.2608
    155  OE1       34.3760   -8.8880    8.5980 O.2   286  GLN286     -0.2717
    156  NE2       36.1930   -9.1510    9.8560 N.am  286  GLN286     -0.0878
    157  N         35.7780   -4.0370    5.6360 N.3   289  PHE289     -0.1241
    158  CA        35.4480   -3.6160    6.9950 C.3   289  PHE289      0.1605
    159  C         36.6780   -3.0460    7.6930 C.2   289  PHE289      0.2264
    160  O         36.5940   -2.0130    8.3630 O.2   289  PHE289     -0.2867
    161  CB        34.8610   -4.7980    7.8010 C.3   289  PHE289      0.0534
    162  CG        34.6780   -4.4900    9.2720 C.ar  289  PHE289     -0.0203
    163  CD1       33.5350   -3.8330    9.7240 C.ar  289  PHE289     -0.0042
    164  CD2       35.6320   -4.8880   10.2100 C.ar  289  PHE289     -0.0042
    165  CE1       33.3710   -3.5450   11.0850 C.ar  289  PHE289     -0.0003
    166  CE2       35.4730   -4.5820   11.5700 C.ar  289  PHE289     -0.0003
    167  CZ        34.3420   -3.9190   11.9930 C.ar  289  PHE289     -0.0000
    168  N         36.1690    0.7920    8.3130 N.3   293  ILE293     -0.1245
    169  CA        35.7200    0.9790    9.6850 C.3   293  ILE293      0.1561
    170  C         36.8150    0.8930   10.7470 C.2   293  ILE293      0.2260
    171  O         37.0250    1.8590   11.4860 O.2   293  ILE293     -0.2867
    172  CB        34.5490   -0.0220    9.9850 C.3   293  ILE293      0.0252
    173  CG1       33.4320    0.0110    8.8750 C.3   293  ILE293      0.0019
    174  CG2       33.9680    0.2070   11.3990 C.3   293  ILE293      0.0019
    175  CD1       32.8080    1.4300    8.5530 C.3   293  ILE293      0.0001
    176  N         39.4590    4.1810   12.7200 N.3   297  ILE297     -0.1245
    177  CA        39.2790    4.4040   14.1480 C.3   297  ILE297      0.1561
    178  C         40.6350    4.2970   14.8630 C.2   297  ILE297      0.2260
    179  O         40.9430    5.1420   15.7050 O.2   297  ILE297     -0.2867
    180  CB        38.2140    3.4140   14.7130 C.3   297  ILE297      0.0252
    181  CG1       36.7980    3.9500   14.4140 C.3   297  ILE297      0.0019
    182  CG2       38.3990    3.1410   16.2290 C.3   297  ILE297      0.0019
    183  CD1       35.6400    2.8690   14.4800 C.3   297  ILE297      0.0001
@<TRIPOS>BOND
     1   140   141    1
     2   141   144    1
     3   141   142    1
     4   144   145    1
     5   142   143    2
     6   148   149    1
     7   145   146    1
     8   157   158    1
     9   150   149    1
    10   150   151    2
    11   149   152    1
    12   146   147    1
    13   152   153    1
    14   158   159    1
    15   158   161    1
    16   128   127    1
    17   125   127   ar
    18   125   123   ar
    19   127   126   ar
    20   159   160    2
    21   153   154    1
    22   123   122   ar
    23   161   162    1
    24   168   169    1
    25   126   124   ar
    26   175   173    1
    27   122   124   ar
    28   122   121    1
    29   155   154    2
    30   154   156   am
    31   173   172    1
    32   121   118    1
    33   132   131    2
    34   162   163   ar
    35   162   164   ar
    36   131   130    1
    37   169   172    1
    38   169   170    1
    39   163   165   ar
    40   136   138   ar
    41   136   134   ar
    42   133   134    1
    43   133   130    1
    44   172   174    1
    45   120   119    2
    46   164   166   ar
    47   118   119    1
    48   118   117    1
    49   138   139   ar
    50    45    43    1
    51   134   135   ar
    52   130   129    1
    53   108   105    1
    54   170   171    2
    55   165   167   ar
    56    43    44    1
    57    43    42    1
    58   107   106    2
    59   117   111   am
    60   166   167   ar
    61   139   137   ar
    62   135   137   ar
    63   115   113    1
    64   106   105    1
    65   105   104    1
    66    41    40    2
    67   112   111    2
    68   111   110    1
    69    42    39    1
    70    49    48    2
    71    55    53   ar
    72    55    54   ar
    73    53    51   ar
    74    48    47    1
    75    40    39    1
    76    94    93    2
    77   176   177    1
    78   113   110    1
    79   113   114    1
    80    95    93   am
    81   104    98   am
    82    93    92    1
    83    39    38    1
    84   110   109    1
    85    54    52   ar
    86    51    50    1
    87    51    52   ar
    88    47    50    1
    89    47    46    1
    90   114   116    1
    91    92    91    1
    92   177   180    1
    93   177   178    1
    94    98    99    2
    95    98    97    1
    96    36    35   ar
    97   181   183    1
    98   181   180    1
    99    38    32   am
   100    91    88    1
   101   180   182    1
   102    77    76    1
   103   178   179    2
   104    90    89    2
   105    37    35   ar
   106    35    34    1
   107    32    33    2
   108    32    31    1
   109    96    97    1
   110    78    76    1
   111    88    89    1
   112    88    87    1
   113    97   100    1
   114   102   100    1
   115    76    75    1
   116   100   101    1
   117    34    31    1
   118    31    30    1
   119    75    72    1
   120    87    81   am
   121    74    73    2
   122    21    19   ar
   123    21    22   ar
   124    82    81    2
   125    26    25    2
   126    81    80    1
   127     5     6    1
   128     5     2    1
   129    72    73    1
   130    72    71    1
   131    30    25   am
   132    61    60    1
   133   101   103    1
   134     7     6   ar
   135     7     9   ar
   136    62    60    1
   137     6     8   ar
   138    60    57    1
   139    19    18   ar
   140     8    10   ar
   141     9    11   ar
   142    25    24    1
   143    22    20   ar
   144    11    10   ar
   145    11    12    1
   146    83    80    1
   147    83    84    1
   148     1     2    1
   149    59    58    2
   150    71    65   am
   151    80    79    1
   152     2     3    1
   153    58    57    1
   154    66    65    2
   155    57    56    1
   156    18    20   ar
   157    18    17    1
   158    86    84   ar
   159    24    23    1
   160    24    27    1
   161    65    64    1
   162    84    85   ar
   163    70    68   ar
   164    13     3   am
   165    13    14    1
   166    67    68    1
   167    67    64    1
   168     3     4    2
   169    68    69   ar
   170    17    14    1
   171    27    28    1
   172    27    29    1
   173    64    63    1
   174    14    15    1
   175    15    16    2
