@<TRIPOS>MOLECULE
tmp/6cycB00.pdb
 183 175 0 0 0
SMALL
GASTEIGER

@<TRIPOS>ATOM
      1  N          7.8460   35.7710   15.0440 N.3    87  TYR87      -0.1227
      2  CA         6.9560   34.6680   15.3840 C.3    87  TYR87       0.1736
      3  C          7.4270   33.7850   16.5310 C.2    87  TYR87       0.2595
      4  O          6.6430   33.5080   17.4420 O.2    87  TYR87      -0.2718
      5  CB         6.6740   33.8050   14.1330 C.3    87  TYR87       0.0548
      6  CG         5.7440   32.6400   14.3930 C.ar   87  TYR87      -0.0200
      7  CD1        4.3620   32.8230   14.4430 C.ar   87  TYR87      -0.0009
      8  CD2        6.2490   31.3700   14.6730 C.ar   87  TYR87      -0.0009
      9  CE1        3.5050   31.7570   14.6960 C.ar   87  TYR87       0.0417
     10  CE2        5.3980   30.3000   14.9570 C.ar   87  TYR87       0.0417
     11  CZ         4.0290   30.4970   14.9510 C.ar   87  TYR87       0.1957
     12  OH         3.1750   29.4500   15.1650 O.3    87  TYR87      -0.2866
     13  N          8.6940   33.3320   16.5040 N.am   88  HIS88      -0.1975
     14  CA         9.1820   32.3640   17.5080 C.3    88  HIS88       0.1656
     15  C          9.6040   33.0140   18.8300 C.2    88  HIS88       0.2291
     16  O         10.7640   32.9810   19.2350 O.2    88  HIS88      -0.2864
     17  CB        10.2940   31.5040   16.8900 C.3    88  HIS88       0.0771
     18  CG         9.7650   30.4720   15.9500 C.ar   88  HIS88       0.0820
     19  ND1        9.8760   30.6110   14.5760 N.ar   88  HIS88      -0.2267
     20  CD2        9.0950   29.3300   16.2180 C.ar   88  HIS88       0.1154
     21  CE1        9.3100   29.5310   14.0560 C.ar   88  HIS88       0.1986
     22  NE2        8.8200   28.7380   15.0120 N.ar   88  HIS88      -0.2212
     23  N          8.4930   18.2660   17.2210 N.3   200  THR200     -0.1203
     24  CA         8.1670   19.5410   16.5670 C.3   200  THR200      0.1994
     25  C          9.0140   19.8060   15.3360 C.2   200  THR200      0.2618
     26  O          8.7880   20.8080   14.6640 O.2   200  THR200     -0.2717
     27  CB         8.2220   20.7090   17.5490 C.3   200  THR200      0.1784
     28  OG1        9.5680   20.8270   17.9760 O.3   200  THR200     -0.2211
     29  CG2        7.3160   20.4920   18.7250 C.3   200  THR200      0.0376
     30  N          9.9790   18.9010   15.0180 N.am  201  ASP201     -0.1959
     31  CA        10.7410   19.0230   13.7900 C.3   201  ASP201      0.1840
     32  C          9.8050   18.4400   12.7260 C.2   201  ASP201      0.2621
     33  O          9.4040   17.2540   12.8040 O.2   201  ASP201     -0.2715
     34  CB        12.0360   18.1880   13.8650 C.3   201  ASP201      0.1450
     35  CG        12.8690   18.2190   12.5820 C.2   201  ASP201      0.3671
     36  OD1       12.4370   18.8520   11.6160 O.co2 201  ASP201     -0.2456
     37  OD2       13.9700   17.6270   12.5700 O.co2 201  ASP201     -0.2456
     38  N          9.4580   19.2590   11.7290 N.am  202  LEU202     -0.1977
     39  CA         8.5690   18.8250   10.6430 C.3   202  LEU202      0.1596
     40  C          9.1200   17.5610    9.9570 C.2   202  LEU202      0.2287
     41  O          8.3430   16.6960    9.5660 O.2   202  LEU202     -0.2864
     42  CB         8.3520   19.9820    9.6290 C.3   202  LEU202      0.0297
     43  CG         7.5270   19.6580    8.3580 C.3   202  LEU202      0.0022
     44  CD1        6.1020   19.1840    8.6730 C.3   202  LEU202      0.0001
     45  CD2        7.5560   20.8240    7.3790 C.3   202  LEU202      0.0001
     46  N          7.8020   14.6660   11.8920 N.3   205  HIS205     -0.1241
     47  CA         6.3820   14.5070   11.6360 C.3   205  HIS205      0.1621
     48  C          6.1730   13.7600   10.3080 C.2   205  HIS205      0.2264
     49  O          5.4100   12.8000   10.2510 O.2   205  HIS205     -0.2867
     50  CB         5.7030   15.8860   11.6130 C.3   205  HIS205      0.0745
     51  CG         4.2690   15.8070   11.1990 C.ar  205  HIS205      0.0817
     52  ND1        3.3280   15.1870   11.9850 N.ar  205  HIS205     -0.2268
     53  CD2        3.6830   16.2240   10.0530 C.ar  205  HIS205      0.1154
     54  CE1        2.1860   15.2720   11.3150 C.ar  205  HIS205      0.1986
     55  NE2        2.3540   15.8920   10.1470 N.ar  205  HIS205     -0.2212
     56  N          2.2410   18.5270   17.4990 N.3   237  THR237     -0.1218
     57  CA         2.2000   19.2580   16.2150 C.3   237  THR237      0.1862
     58  C          0.9090   20.0570   16.1330 C.2   237  THR237      0.2287
     59  O          0.9510   21.1700   15.6050 O.2   237  THR237     -0.2866
     60  CB         2.4900   18.3830   15.0000 C.3   237  THR237      0.1770
     61  OG1        1.4810   17.3620   14.9070 O.3   237  THR237     -0.2211
     62  CG2        3.9060   17.7760   15.0570 C.3   237  THR237      0.0375
     63  N          1.4540   23.2350   18.1060 N.3   240  ASP240     -0.1225
     64  CA         2.3980   24.0990   17.4050 C.3   240  ASP240      0.1805
     65  C          1.7560   24.8810   16.2460 C.2   240  ASP240      0.2597
     66  O          2.1670   26.0130   15.9740 O.2   240  ASP240     -0.2718
     67  CB         3.5590   23.2550   16.8570 C.3   240  ASP240      0.1424
     68  CG         4.9260   23.8750   16.9770 C.2   240  ASP240      0.3668
     69  OD1        5.0080   25.1340   17.1500 O.co2 240  ASP240     -0.2456
     70  OD2        5.9210   23.1230   16.8540 O.co2 240  ASP240     -0.2456
     71  N          0.7490   24.2840   15.5550 N.am  241  LEU241     -0.1979
     72  CA         0.1270   24.9660   14.4090 C.3   241  LEU241      0.1596
     73  C         -1.2800   25.5070   14.7510 C.2   241  LEU241      0.2287
     74  O         -2.0220   25.8880   13.8550 O.2   241  LEU241     -0.2864
     75  CB         0.0250   23.9500   13.2560 C.3   241  LEU241      0.0297
     76  CG         1.3700   23.3770   12.7460 C.3   241  LEU241      0.0022
     77  CD1        1.1550   22.5140   11.5150 C.3   241  LEU241      0.0001
     78  CD2        2.4280   24.4760   12.4590 C.3   241  LEU241      0.0001
     79  N         -2.5060   28.2610   15.7280 N.3   243  ASP243     -0.1225
     80  CA        -2.9820   29.5730   15.2820 C.3   243  ASP243      0.1805
     81  C         -3.9230   29.3890   14.0760 C.2   243  ASP243      0.2597
     82  O         -4.8100   30.2190   13.8720 O.2   243  ASP243     -0.2718
     83  CB        -1.7940   30.4300   14.8350 C.3   243  ASP243      0.1424
     84  CG        -0.9690   30.9270   15.9900 C.2   243  ASP243      0.3668
     85  OD1       -1.5660   31.4370   16.9830 O.co2 243  ASP243     -0.2456
     86  OD2        0.2720   30.8560   15.8960 O.co2 243  ASP243     -0.2456
     87  N         -3.7470   28.3010   13.3150 N.am  244  GLN244     -0.1979
     88  CA        -4.5870   28.0560   12.1330 C.3   244  GLN244      0.1601
     89  C         -6.0050   27.6670   12.4670 C.2   244  GLN244      0.2287
     90  O         -6.8620   27.6480   11.5670 O.2   244  GLN244     -0.2864
     91  CB        -3.9400   26.9840   11.2320 C.3   244  GLN244      0.0394
     92  CG        -2.5120   27.3190   10.8380 C.3   244  GLN244      0.0908
     93  CD        -2.3910   28.6900   10.2040 C.2   244  GLN244      0.2608
     94  OE1       -3.2720   29.1460    9.4510 O.2   244  GLN244     -0.2717
     95  NE2       -1.2980   29.3690   10.5120 N.am  244  GLN244     -0.0878
     96  N         -0.7180   35.9550   11.7310 N.3   254  ILE254     -0.1231
     97  CA         0.3880   35.0130   11.8730 C.3   254  ILE254      0.1692
     98  C          1.1250   34.8520   10.5470 C.2   254  ILE254      0.2591
     99  O          2.3430   34.6470   10.5780 O.2   254  ILE254     -0.2718
    100  CB        -0.0710   33.7010   12.5670 C.3   254  ILE254      0.0266
    101  CG1       -0.0420   33.9050   14.1260 C.3   254  ILE254      0.0019
    102  CG2        0.7850   32.4620   12.1820 C.3   254  ILE254      0.0020
    103  CD1       -0.8010   35.0810   14.7230 C.3   254  ILE254      0.0001
    104  N          0.4440   35.0480    9.3810 N.am  255  ALA255     -0.1980
    105  CA         1.1680   35.0370    8.1010 C.3   255  ALA255      0.1597
    106  C          2.1270   36.2250    8.0840 C.2   255  ALA255      0.2287
    107  O          3.2810   36.0950    7.6290 O.2   255  ALA255     -0.2864
    108  CB         0.1890   35.1660    6.9490 C.3   255  ALA255      0.0319
    109  N          5.0600   35.1490   10.4470 N.3   258  ILE258     -0.1231
    110  CA         5.8510   34.0830    9.8480 C.3   258  ILE258      0.1692
    111  C          6.6940   34.6180    8.6840 C.2   258  ILE258      0.2592
    112  O          7.8930   34.3380    8.6250 O.2   258  ILE258     -0.2718
    113  CB         4.9190   32.9090    9.3770 C.3   258  ILE258      0.0266
    114  CG1        4.4690   32.0220   10.5520 C.3   258  ILE258      0.0019
    115  CG2        5.5550   32.0850    8.2530 C.3   258  ILE258      0.0020
    116  CD1        5.5520   31.0680   11.1900 C.3   258  ILE258      0.0001
    117  N          6.0670   35.3560    7.7610 N.am  259  TYR259     -0.1976
    118  CA         6.8230   35.8090    6.5930 C.3   259  TYR259      0.1639
    119  C          7.7840   36.9440    6.9490 C.2   259  TYR259      0.2290
    120  O          8.8760   36.9760    6.3780 O.2   259  TYR259     -0.2864
    121  CB         5.9150   36.0650    5.4000 C.3   259  TYR259      0.0560
    122  CG         5.4000   34.7360    4.8900 C.ar  259  TYR259     -0.0198
    123  CD1        6.2390   33.8540    4.2090 C.ar  259  TYR259     -0.0009
    124  CD2        4.0920   34.3310    5.1380 C.ar  259  TYR259     -0.0009
    125  CE1        5.7880   32.6020    3.7900 C.ar  259  TYR259      0.0417
    126  CE2        3.6270   33.0850    4.7150 C.ar  259  TYR259      0.0417
    127  CZ         4.4830   32.2160    4.0550 C.ar  259  TYR259      0.1957
    128  OH         4.0470   30.9700    3.6410 O.3   259  TYR259     -0.2866
    129  N         10.6330   34.7170    8.1980 N.3   262  PHE262     -0.1241
    130  CA        11.2480   33.9520    7.1280 C.3   262  PHE262      0.1605
    131  C         12.0220   34.8650    6.1590 C.2   262  PHE262      0.2264
    132  O         13.1300   34.5050    5.7670 O.2   262  PHE262     -0.2867
    133  CB        10.1490   33.2130    6.3470 C.3   262  PHE262      0.0534
    134  CG         9.5510   31.9540    6.9500 C.ar  262  PHE262     -0.0203
    135  CD1        9.8530   31.5670    8.2550 C.ar  262  PHE262     -0.0042
    136  CD2        8.6410   31.1840    6.2260 C.ar  262  PHE262     -0.0042
    137  CE1        9.2840   30.4070    8.8080 C.ar  262  PHE262     -0.0003
    138  CE2        8.0720   30.0260    6.7840 C.ar  262  PHE262     -0.0003
    139  CZ         8.3880   29.6600    8.0720 C.ar  262  PHE262     -0.0000
    140  N         10.2730   30.1900   -0.1750 N.3   279  MET279     -0.1245
    141  CA         9.3840   30.7170    0.8640 C.3   279  MET279      0.1570
    142  C         10.0560   31.7400    1.7840 C.2   279  MET279      0.2261
    143  O          9.3720   32.4080    2.5680 O.2   279  MET279     -0.2867
    144  CB         8.7240   29.5750    1.6760 C.3   279  MET279      0.0387
    145  CG         9.6690   28.8650    2.6180 C.3   279  MET279      0.0595
    146  SD         8.8880   27.6390    3.7160 S.3   279  MET279     -0.1393
    147  CE         8.3060   26.4290    2.4990 C.3   279  MET279      0.0692
    148  N          0.9330   29.8440    1.5700 N.3   291  GLN291     -0.1245
    149  CA         0.0400   29.6110    2.7160 C.3   291  GLN291      0.1566
    150  C         -0.9430   28.4840    2.4010 C.2   291  GLN291      0.2260
    151  O         -1.1390   27.6100    3.2360 O.2   291  GLN291     -0.2867
    152  CB        -0.6930   30.8890    3.0940 C.3   291  GLN291      0.0367
    153  CG        -1.6470   30.7310    4.2630 C.3   291  GLN291      0.0905
    154  CD        -0.9890   30.8550    5.6160 C.2   291  GLN291      0.2608
    155  OE1        0.1900   31.2250    5.7310 O.2   291  GLN291     -0.2717
    156  NE2       -1.7530   30.5530    6.6740 N.am  291  GLN291     -0.0878
    157  N          0.9930   25.1760    2.6010 N.3   294  PHE294     -0.1241
    158  CA         1.2620   24.8440    4.0100 C.3   294  PHE294      0.1605
    159  C         -0.0030   24.2870    4.6280 C.2   294  PHE294      0.2264
    160  O          0.0390   23.2830    5.3450 O.2   294  PHE294     -0.2867
    161  CB         1.6930   26.1110    4.7750 C.3   294  PHE294      0.0534
    162  CG         1.5560   26.0110    6.2810 C.ar  294  PHE294     -0.0203
    163  CD1        2.4550   25.2530    7.0300 C.ar  294  PHE294     -0.0042
    164  CD2        0.5220   26.6710    6.9470 C.ar  294  PHE294     -0.0042
    165  CE1        2.3110   25.1470    8.4210 C.ar  294  PHE294     -0.0003
    166  CE2        0.3840   26.5640    8.3350 C.ar  294  PHE294     -0.0003
    167  CZ         1.2710   25.7960    9.0550 C.ar  294  PHE294     -0.0000
    168  N          0.4100   20.4280    5.2270 N.3   298  ILE298     -0.1245
    169  CA         0.9890   20.2540    6.5510 C.3   298  ILE298      0.1561
    170  C         -0.0860   20.3860    7.6420 C.2   298  ILE298      0.2260
    171  O         -0.3010   19.4460    8.4000 O.2   298  ILE298     -0.2867
    172  CB         2.1720   21.2390    6.7930 C.3   298  ILE298      0.0252
    173  CG1        3.3380   20.9610    5.8210 C.3   298  ILE298      0.0019
    174  CG2        2.6440   21.1780    8.2480 C.3   298  ILE298      0.0019
    175  CD1        4.4140   22.0760    5.7560 C.3   298  ILE298      0.0001
    176  N         -2.8500   17.2690    9.7880 N.3   302  ILE302     -0.1245
    177  CA        -2.7300   17.0750   11.2370 C.3   302  ILE302      0.1561
    178  C         -4.1160   17.1600   11.8880 C.2   302  ILE302      0.2260
    179  O         -4.4590   16.3230   12.7160 O.2   302  ILE302     -0.2867
    180  CB        -1.7250   18.1120   11.8020 C.3   302  ILE302      0.0252
    181  CG1       -0.2850   17.6380   11.5520 C.3   302  ILE302      0.0019
    182  CG2       -1.9710   18.4320   13.2870 C.3   302  ILE302      0.0019
    183  CD1        0.7720   18.7890   11.6540 C.3   302  ILE302      0.0001
@<TRIPOS>BOND
     1   140   141    1
     2   141   144    1
     3   141   142    1
     4   148   149    1
     5   144   145    1
     6   142   143    2
     7   150   149    1
     8   150   151    2
     9   147   146    1
    10   157   158    1
    11   145   146    1
    12   149   152    1
    13   152   153    1
    14   128   127    1
    15   125   127   ar
    16   125   123   ar
    17   158   159    1
    18   158   161    1
    19   127   126   ar
    20   123   122   ar
    21   153   154    1
    22   159   160    2
    23   126   124   ar
    24   161   162    1
    25   122   124   ar
    26   122   121    1
    27   168   169    1
    28   121   118    1
    29   154   155    2
    30   154   156   am
    31   175   173    1
    32   132   131    2
    33   173   172    1
    34   131   130    1
    35   136   138   ar
    36   136   134   ar
    37   162   164   ar
    38   162   163   ar
    39   133   134    1
    40   133   130    1
    41   120   119    2
    42   169   172    1
    43   169   170    1
    44   118   119    1
    45   118   117    1
    46   138   139   ar
    47   172   174    1
    48   164   166   ar
    49   108   105    1
    50   134   135   ar
    51   163   165   ar
    52   130   129    1
    53    45    43    1
    54   107   106    2
    55   170   171    2
    56   117   111   am
    57   139   137   ar
    58   106   105    1
    59   105   104    1
    60   115   113    1
    61   135   137   ar
    62   166   167   ar
    63    43    44    1
    64    43    42    1
    65   165   167   ar
    66   112   111    2
    67   111   110    1
    68   113   110    1
    69   113   114    1
    70   104    98   am
    71    94    93    2
    72    41    40    2
    73    42    39    1
    74   176   177    1
    75   110   109    1
    76    40    39    1
    77    53    55   ar
    78    53    51   ar
    79    55    54   ar
    80    93    95   am
    81    93    92    1
    82    49    48    2
    83    48    47    1
    84    98    99    2
    85    98    97    1
    86   114   116    1
    87    39    38    1
    88    92    91    1
    89    51    50    1
    90    51    52   ar
    91    91    88    1
    92   177   180    1
    93   177   178    1
    94    54    52   ar
    95    77    76    1
    96   181   183    1
    97   181   180    1
    98    90    89    2
    99    50    47    1
   100    36    35   ar
   101    47    46    1
   102    38    32   am
   103    96    97    1
   104   180   182    1
   105    97   100    1
   106   178   179    2
   107    88    89    1
   108    88    87    1
   109   102   100    1
   110    78    76    1
   111   100   101    1
   112    37    35   ar
   113    35    34    1
   114    32    33    2
   115    32    31    1
   116    76    75    1
   117    75    72    1
   118    87    81   am
   119    31    34    1
   120    31    30    1
   121    74    73    2
   122    82    81    2
   123    21    19   ar
   124    21    22   ar
   125    81    80    1
   126   101   103    1
   127     5     6    1
   128     5     2    1
   129     6     7   ar
   130     6     8   ar
   131    72    73    1
   132    72    71    1
   133     7     9   ar
   134    19    18   ar
   135    26    25    2
   136     8    10   ar
   137     9    11   ar
   138    83    80    1
   139    83    84    1
   140    61    60    1
   141    11    10   ar
   142    11    12    1
   143    60    62    1
   144    60    57    1
   145    22    20   ar
   146    30    25   am
   147     1     2    1
   148    80    79    1
   149    25    24    1
   150     2     3    1
   151    71    65   am
   152    59    58    2
   153    86    84   ar
   154    18    20   ar
   155    18    17    1
   156    66    65    2
   157    84    85   ar
   158    58    57    1
   159    57    56    1
   160    65    64    1
   161    13     3   am
   162    13    14    1
   163     3     4    2
   164    24    23    1
   165    24    27    1
   166    70    68   ar
   167    67    68    1
   168    67    64    1
   169    17    14    1
   170    68    69   ar
   171    64    63    1
   172    14    15    1
   173    27    28    1
   174    27    29    1
   175    15    16    2
