@<TRIPOS>MOLECULE
tmp/6cymA00.pdb
 116 116 0 0 0
SMALL
GASTEIGER

@<TRIPOS>ATOM
      1  N         -3.1870   21.7940   -3.6560 N.3    43  HIS43      -0.1241
      2  CA        -4.0190   22.3600   -4.7340 C.3    43  HIS43       0.1621
      3  C         -3.1730   23.0680   -5.8110 C.2    43  HIS43       0.2264
      4  O         -3.6180   23.1810   -6.9570 O.2    43  HIS43      -0.2867
      5  CB        -5.1660   23.2540   -4.2040 C.3    43  HIS43       0.0745
      6  CG        -4.7270   24.6350   -3.8250 C.ar   43  HIS43       0.0817
      7  ND1       -4.1890   24.9080   -2.5800 N.ar   43  HIS43      -0.2268
      8  CD2       -4.7020   25.7660   -4.5650 C.ar   43  HIS43       0.1154
      9  CE1       -3.8790   26.1930   -2.5950 C.ar   43  HIS43       0.1986
     10  NE2       -4.1600   26.7480   -3.7720 N.ar   43  HIS43      -0.2212
     11  N         -4.9090   40.1090    3.6740 N.3   192  ASP192     -0.1225
     12  CA        -5.1800   38.7070    3.3320 C.3   192  ASP192      0.1805
     13  C         -4.2310   38.3110    2.2390 C.2   192  ASP192      0.2598
     14  O         -3.5520   39.1710    1.6840 O.2   192  ASP192     -0.2718
     15  CB        -6.6460   38.4880    2.8430 C.3   192  ASP192      0.1424
     16  CG        -7.1210   37.0300    2.7800 C.2   192  ASP192      0.3668
     17  OD1       -6.7360   36.2300    3.6860 O.co2 192  ASP192     -0.2456
     18  OD2       -7.8890   36.6910    1.8350 O.co2 192  ASP192     -0.2456
     19  N         -4.1570   37.0200    1.9310 N.am  193  ALA193     -0.1966
     20  CA        -3.3440   36.5910    0.8160 C.3   193  ALA193      0.1728
     21  C         -4.2760   36.6470   -0.4040 C.2   193  ALA193      0.2616
     22  O         -5.4790   36.9160   -0.2650 O.2   193  ALA193     -0.2715
     23  CB        -2.8100   35.1890    1.0540 C.3   193  ALA193      0.0334
     24  N         -3.7290   36.4910   -1.5920 N.am  194  CYS194     -0.1954
     25  CA        -4.5550   36.5300   -2.7910 C.3   194  CYS194      0.1843
     26  C         -4.0640   35.5160   -3.7980 C.2   194  CYS194      0.2625
     27  O         -3.1660   34.7250   -3.4710 O.2   194  CYS194     -0.2714
     28  CB        -4.6250   37.9400   -3.3790 C.3   194  CYS194      0.0997
     29  SG        -6.1760   38.3030   -4.2590 S.3   194  CYS194     -0.0797
     30  N         -4.6900   35.4830   -4.9960 N.am  195  GLU195     -0.1963
     31  CA        -4.2700   34.5860   -6.0660 C.3   195  GLU195      0.1733
     32  C         -2.7510   34.7420   -6.2080 C.2   195  GLU195      0.2616
     33  O         -2.2410   35.8630   -6.3350 O.2   195  GLU195     -0.2715
     34  CB        -5.0740   34.8550   -7.3750 C.3   195  GLU195      0.0429
     35  CG        -4.3900   34.5870   -8.7140 C.3   195  GLU195      0.1163
     36  CD        -3.8470   33.2040   -9.0580 C.2   195  GLU195      0.3649
     37  OE1       -2.7360   33.1190   -9.6460 O.co2 195  GLU195     -0.2457
     38  OE2       -4.5660   32.2100   -8.7930 O.co2 195  GLU195     -0.2457
     39  N         -2.0570   33.6290   -6.0180 N.am  196  GLY196     -0.1955
     40  CA        -0.6090   33.5950   -6.1330 C.3   196  GLY196      0.1869
     41  C          0.1240   33.3170   -4.8490 C.2   196  GLY196      0.2309
     42  O          1.2150   32.7610   -4.9050 O.2   196  GLY196     -0.2863
     43  N         -0.9670   31.2850   -2.4960 N.3   198  SER198     -0.1217
     44  CA        -1.3760   29.9120   -2.1650 C.3   198  SER198      0.1889
     45  C         -0.1260   29.0930   -2.0560 C.2   198  SER198      0.2288
     46  O          0.8610   29.4080   -2.6910 O.2   198  SER198     -0.2866
     47  CB        -2.2910   29.3530   -3.2520 C.3   198  SER198      0.2089
     48  OG        -3.4060   30.2060   -3.4540 O.3   198  SER198     -0.2183
     49  N         -0.8230   28.7270    3.3200 N.3   218  VAL218     -0.1231
     50  CA        -1.8970   29.5050    2.6860 C.3   218  VAL218      0.1692
     51  C         -2.7110   28.5590    1.7600 C.2   218  VAL218      0.2593
     52  O         -2.2280   28.1640    0.7040 O.2   218  VAL218     -0.2718
     53  CB        -1.2670   30.7490    2.0010 C.3   218  VAL218      0.0266
     54  CG1       -2.2610   31.5360    1.2000 C.3   218  VAL218      0.0020
     55  CG2       -0.6090   31.6490    3.0240 C.3   218  VAL218      0.0020
     56  N         -3.8890   28.1170    2.2190 N.am  219  SER219     -0.1938
     57  CA        -4.6840   27.1060    1.5210 C.3   219  SER219      0.2055
     58  C         -5.7730   27.6800    0.6100 C.2   219  SER219      0.2643
     59  O         -5.6240   27.7130   -0.6270 O.2   219  SER219     -0.2714
     60  CB        -5.2620   26.1030    2.5240 C.3   219  SER219      0.2130
     61  OG        -5.9610   25.0110    1.9460 O.3   219  SER219     -0.2179
     62  N         -6.8840   28.1120    1.2080 N.am  220  TRP220     -0.1959
     63  CA        -8.0120   28.6360    0.4440 C.3   220  TRP220      0.1771
     64  C         -8.7060   29.8030    1.1220 C.2   220  TRP220      0.2620
     65  O         -8.3540   30.1840    2.2370 O.2   220  TRP220     -0.2715
     66  CB        -8.9980   27.5080    0.1020 C.3   220  TRP220      0.0590
     67  CG        -9.6050   26.8680    1.2950 C.ar  220  TRP220      0.0006
     68  CD1       -9.0400   25.9140    2.0900 C.ar  220  TRP220      0.0946
     69  CD2      -10.8570   27.2020    1.8900 C.ar  220  TRP220      0.0152
     70  NE1       -9.8560   25.6500    3.1640 N.ar  220  TRP220     -0.2442
     71  CE2      -10.9940   26.4070    3.0500 C.ar  220  TRP220      0.0810
     72  CE3      -11.8800   28.1040    1.5610 C.ar  220  TRP220      0.0012
     73  CZ2      -12.1190   26.4690    3.8630 C.ar  220  TRP220      0.0191
     74  CZ3      -12.9890   28.1810    2.3830 C.ar  220  TRP220      0.0001
     75  CH2      -13.1160   27.3500    3.5010 C.ar  220  TRP220      0.0015
     76  N         -9.6310   30.3800    0.3930 N.am  221  GLY221     -0.1954
     77  CA       -10.4320   31.5080    0.8080 C.3   221  GLY221      0.1869
     78  C        -11.4240   31.9040   -0.2800 C.2   221  GLY221      0.2309
     79  O        -11.2110   31.5940   -1.4720 O.2   221  GLY221     -0.2863
     80  N        -12.6030   34.8860   -2.1040 N.3   223  GLY223     -0.1210
     81  CA       -12.1240   36.2140   -2.4430 C.3   223  GLY223      0.1956
     82  C        -10.8010   36.5580   -1.7760 C.2   223  GLY223      0.2612
     83  O         -9.9870   35.6790   -1.4520 O.2   223  GLY223     -0.2717
     84  N        -10.5490   37.8560   -1.6160 N.am  224  CYS224     -0.1970
     85  CA        -9.3300   38.3960   -1.0180 C.3   224  CYS224      0.1712
     86  C         -9.7640   39.6010   -0.2210 C.2   224  CYS224      0.2296
     87  O        -10.3490   40.5330   -0.7880 O.2   224  CYS224     -0.2864
     88  CB        -8.3260   38.8110   -2.0950 C.3   224  CYS224      0.0983
     89  SG        -7.7150   37.4740   -3.1600 S.3   224  CYS224     -0.0798
     90  N         -8.9570   34.1150    5.8270 N.3   231  GLY231     -0.1210
     91  CA        -8.1010   33.2070    5.0870 C.3   231  GLY231      0.1956
     92  C         -8.0150   31.8590    5.7720 C.2   231  GLY231      0.2612
     93  O         -7.8780   31.8140    7.0030 O.2   231  GLY231     -0.2717
     94  N         -8.0780   30.7500    4.9970 N.am  232  PHE232     -0.1962
     95  CA        -7.9450   29.4160    5.5910 C.3   232  PHE232      0.1771
     96  C         -6.5530   28.8270    5.3560 C.2   232  PHE232      0.2619
     97  O         -6.0360   28.9420    4.2540 O.2   232  PHE232     -0.2715
     98  CB        -9.0770   28.4920    5.1450 C.3   232  PHE232      0.0574
     99  CG       -10.3610   28.7580    5.8840 C.ar  232  PHE232     -0.0200
    100  CD1      -11.2670   29.7040    5.4190 C.ar  232  PHE232     -0.0042
    101  CD2      -10.6650   28.0660    7.0440 C.ar  232  PHE232     -0.0042
    102  CE1      -12.4790   29.9310    6.0850 C.ar  232  PHE232     -0.0003
    103  CE2      -11.8670   28.3010    7.7180 C.ar  232  PHE232     -0.0003
    104  CZ       -12.7750   29.2190    7.2220 C.ar  232  PHE232     -0.0000
    105  N         -5.9220   28.2740    6.4060 N.am  233  TYR233     -0.1974
    106  CA        -4.5470   27.7480    6.3530 C.3   233  TYR233      0.1639
    107  C         -4.4530   26.3080    6.8380 C.2   233  TYR233      0.2290
    108  O         -5.1410   25.9270    7.7940 O.2   233  TYR233     -0.2864
    109  CB        -3.5400   28.6320    7.1510 C.3   233  TYR233      0.0560
    110  CG        -3.6380   30.1040    6.8220 C.ar  233  TYR233     -0.0198
    111  CD1       -4.6290   30.8960    7.3830 C.ar  233  TYR233     -0.0009
    112  CD2       -2.7420   30.7060    5.9440 C.ar  233  TYR233     -0.0009
    113  CE1       -4.7710   32.2340    7.0330 C.ar  233  TYR233      0.0417
    114  CE2       -2.8330   32.0650    5.6380 C.ar  233  TYR233      0.0417
    115  CZ        -3.8650   32.8220    6.1720 C.ar  233  TYR233      0.1957
    116  OH        -4.0490   34.1540    5.8690 O.3   233  TYR233     -0.2866
@<TRIPOS>BOND
     1    37    36   ar
     2    36    38   ar
     3    36    35    1
     4    35    34    1
     5    34    31    1
     6     4     3    2
     7    33    32    2
     8    32    31    1
     9    32    39   am
    10    40    39    1
    11    40    41    1
    12    31    30    1
    13     3     2    1
    14    30    26   am
    15    42    41    2
    16     2     5    1
    17     2     1    1
    18     8     6   ar
    19     8    10   ar
    20    29    28    1
    21    29    89    1
    22     5     6    1
    23     6     7   ar
    24    26    27    2
    25    26    25    1
    26    10     9   ar
    27    48    47    1
    28    28    25    1
    29    47    44    1
    30    89    88    1
    31    25    24    1
    32    46    45    2
    33     9     7   ar
    34    43    44    1
    35    81    80    1
    36    81    82    1
    37    44    45    1
    38    88    85    1
    39    82    84   am
    40    82    83    2
    41    84    85    1
    42    24    21   am
    43    79    78    2
    44    85    86    1
    45    87    86    2
    46    59    58    2
    47    21    22    2
    48    21    20    1
    49    78    77    1
    50    66    63    1
    51    66    67    1
    52    76    77    1
    53    76    64   am
    54    63    64    1
    55    63    62    1
    56    58    62   am
    57    58    57    1
    58    52    51    2
    59    20    23    1
    60    20    19    1
    61    64    65    2
    62    54    53    1
    63    67    69   ar
    64    67    68   ar
    65    57    56    1
    66    57    60    1
    67    72    69   ar
    68    72    74   ar
    69    14    13    2
    70    51    56   am
    71    51    50    1
    72    18    16   ar
    73    69    71   ar
    74    19    13   am
    75    61    60    1
    76    53    50    1
    77    53    55    1
    78    68    70   ar
    79    13    12    1
    80    74    75   ar
    81    50    49    1
    82    16    15    1
    83    16    17   ar
    84    15    12    1
    85    71    70   ar
    86    71    73   ar
    87    12    11    1
    88    75    73   ar
    89    97    96    2
    90    94    95    1
    91    94    92   am
    92    91    92    1
    93    91    90    1
    94    98    95    1
    95    98    99    1
    96    96    95    1
    97    96   105   am
    98   100    99   ar
    99   100   102   ar
   100   114   112   ar
   101   114   115   ar
   102    92    93    2
   103   116   115    1
   104    99   101   ar
   105   112   110   ar
   106   102   104   ar
   107   115   113   ar
   108   106   105    1
   109   106   107    1
   110   106   109    1
   111   110   109    1
   112   110   111   ar
   113   107   108    2
   114   113   111   ar
   115   101   103   ar
   116   104   103   ar
