@<TRIPOS>MOLECULE
tmp/6cyqE00.pdb
 140 134 0 0 0
SMALL
GASTEIGER

@<TRIPOS>ATOM
      1  N         66.6940   61.3040  -21.1280 N.3    42  CYS42      -0.1221
      2  CA        65.3680   61.8760  -21.3370 C.3    42  CYS42       0.1808
      3  C         64.3310   60.7780  -21.1460 C.2    42  CYS42       0.2601
      4  O         64.4730   59.9550  -20.2350 O.2    42  CYS42      -0.2717
      5  CB        65.2820   62.5500  -22.7110 C.3    42  CYS42       0.0970
      6  SG        66.4810   63.9400  -22.8570 S.3    42  CYS42      -0.0800
      7  N         63.3120   60.7290  -22.0070 N.am   43  GLY43      -0.1957
      8  CA        62.2020   59.8040  -21.8060 C.3    43  GLY43       0.1869
      9  C         62.5560   58.3310  -21.8730 C.2    43  GLY43       0.2309
     10  O         61.7100   57.5010  -21.5150 O.2    43  GLY43      -0.2863
     11  N         61.8380   56.3650  -18.7830 N.3    46  LYS46      -0.1245
     12  CA        60.5050   55.9400  -18.3780 C.3    46  LYS46       0.1561
     13  C         60.3590   54.4220  -18.3870 C.2    46  LYS46       0.2260
     14  O         59.5080   53.8920  -17.6570 O.2    46  LYS46      -0.2867
     15  CB        59.4670   56.6140  -19.2840 C.3    46  LYS46       0.0271
     16  CG        59.4250   58.1180  -19.0510 C.3    46  LYS46       0.0035
     17  CD        58.6140   58.8570  -20.1040 C.3    46  LYS46       0.0206
     18  CE        58.3890   60.2860  -19.6580 C.3    46  LYS46       0.1093
     19  NZ        57.8900   61.1920  -20.7340 N.3    46  LYS46      -0.1314
     20  N         53.4630   68.3760  -22.1860 N.3    78  TYR78      -0.1241
     21  CA        53.5890   67.0750  -22.8580 C.3    78  TYR78       0.1605
     22  C         53.0020   65.9470  -22.0100 C.2    78  TYR78       0.2264
     23  O         53.6450   64.9220  -21.7630 O.2    78  TYR78      -0.2867
     24  CB        55.0380   66.7590  -23.2210 C.3    78  TYR78       0.0534
     25  CG        55.6010   67.5890  -24.3330 C.ar   78  TYR78      -0.0201
     26  CD1       55.2070   67.3860  -25.6470 C.ar   78  TYR78      -0.0009
     27  CD2       56.5440   68.5720  -24.0700 C.ar   78  TYR78      -0.0009
     28  CE1       55.7300   68.1490  -26.6720 C.ar   78  TYR78       0.0417
     29  CE2       57.0770   69.3390  -25.0870 C.ar   78  TYR78       0.0417
     30  CZ        56.6670   69.1180  -26.3860 C.ar   78  TYR78       0.1957
     31  OH        57.1940   69.8830  -27.4010 O.3    78  TYR78      -0.2866
     32  N         53.0010   57.2090  -25.0170 N.3   102  TYR102     -0.1227
     33  CA        52.8180   58.5890  -25.4450 C.3   102  TYR102      0.1736
     34  C         53.8850   59.5030  -24.8650 C.2   102  TYR102      0.2596
     35  O         53.8690   60.7090  -25.1340 O.2   102  TYR102     -0.2718
     36  CB        51.4170   59.0750  -25.0390 C.3   102  TYR102      0.0548
     37  CG        50.3250   58.4310  -25.8670 C.ar  102  TYR102     -0.0200
     38  CD1       49.7750   57.2030  -25.5030 C.ar  102  TYR102     -0.0009
     39  CD2       49.8730   59.0300  -27.0330 C.ar  102  TYR102     -0.0009
     40  CE1       48.7850   56.6070  -26.2780 C.ar  102  TYR102      0.0417
     41  CE2       48.9000   58.4430  -27.8020 C.ar  102  TYR102      0.0417
     42  CZ        48.3580   57.2400  -27.4260 C.ar  102  TYR102      0.1957
     43  OH        47.3810   56.6650  -28.2090 O.3   102  TYR102     -0.2866
     44  N         54.8140   58.9490  -24.0860 N.am  103  SER103     -0.1952
     45  CA        55.8240   59.7090  -23.3390 C.3   103  SER103      0.1924
     46  C         55.1960   60.7920  -22.4610 C.2   103  SER103      0.2314
     47  O         55.7290   61.8920  -22.3270 O.2   103  SER103     -0.2863
     48  CB        56.8840   60.3150  -24.2710 C.3   103  SER103      0.2116
     49  OG        58.1340   60.3700  -23.5760 O.3   103  SER103     -0.2180
     50  N         54.5090   63.0510  -19.5980 N.3   105  ASN105     -0.1240
     51  CA        55.4160   63.4850  -18.5360 C.3   105  ASN105      0.1653
     52  C         54.7490   63.4480  -17.1590 C.2   105  ASN105      0.2266
     53  O         55.3740   63.0450  -16.1720 O.2   105  ASN105     -0.2867
     54  CB        55.9380   64.8900  -18.8510 C.3   105  ASN105      0.1155
     55  CG        57.0720   64.8840  -19.8590 C.2   105  ASN105      0.2627
     56  OD1       57.7140   63.8620  -20.0770 O.2   105  ASN105     -0.2716
     57  ND2       57.3360   66.0460  -20.4630 N.am  105  ASN105     -0.0877
     58  N         59.9790   65.0330  -14.0070 N.3   139  GLU139     -0.1231
     59  CA        59.6210   65.7350  -15.2340 C.3   139  GLU139      0.1684
     60  C         59.1520   67.1530  -14.9100 C.2   139  GLU139      0.2434
     61  O         58.4340   67.3630  -13.9270 O.2   139  GLU139     -0.2733
     62  CB        58.5050   64.9930  -15.9840 C.3   139  GLU139      0.0402
     63  CG        58.8570   63.5580  -16.3730 C.3   139  GLU139      0.1161
     64  CD        59.7900   63.4740  -17.5750 C.2   139  GLU139      0.3649
     65  OE1       60.1040   62.3400  -17.9850 O.co2 139  GLU139     -0.2457
     66  OE2       60.2080   64.5280  -18.1070 O.co2 139  GLU139     -0.2457
     67  N         59.5080   68.1410  -15.7370 N.am  140  PRO140     -0.2718
     68  CA        60.2560   67.9880  -16.9890 C.3   140  PRO140      0.1535
     69  C         61.7640   68.2180  -16.8950 C.2   140  PRO140      0.2599
     70  O         62.4510   68.0850  -17.9150 O.2   140  PRO140     -0.2715
     71  CB        59.6410   69.0800  -17.8700 C.3   140  PRO140      0.0310
     72  CG        59.3460   70.1790  -16.8990 C.3   140  PRO140      0.0237
     73  CD        58.9930   69.5200  -15.5790 C.3   140  PRO140      0.0939
     74  N         62.2800   68.5850  -15.7240 N.am  141  THR141     -0.1951
     75  CA        63.6610   69.0600  -15.7150 C.3   141  THR141      0.1897
     76  C         64.6700   67.9540  -15.9680 C.2   141  THR141      0.2313
     77  O         65.8280   68.2650  -16.2540 O.2   141  THR141     -0.2863
     78  CB        64.0040   69.7730  -14.3980 C.3   141  THR141      0.1794
     79  OG1       63.8380   68.8840  -13.2800 O.3   141  THR141     -0.2208
     80  CG2       63.1020   70.9950  -14.2180 C.3   141  THR141      0.0378
     81  N         65.1130   66.4220  -18.4850 N.3   143  ASN143     -0.1225
     82  CA        65.4590   66.4500  -19.9060 C.3   143  ASN143      0.1785
     83  C         66.3200   67.6540  -20.3070 C.2   143  ASN143      0.2597
     84  O         66.4090   67.9610  -21.5030 O.2   143  ASN143     -0.2718
     85  CB        64.1930   66.4320  -20.7670 C.3   143  ASN143      0.1169
     86  CG        63.2180   65.3580  -20.3480 C.2   143  ASN143      0.2627
     87  OD1       63.5070   64.1660  -20.4490 O.2   143  ASN143     -0.2716
     88  ND2       62.0480   65.7730  -19.8740 N.am  143  ASN143     -0.0877
     89  N         66.9460   68.3470  -19.3490 N.am  144  THR144     -0.1953
     90  CA        67.7600   69.5080  -19.7140 C.3   144  THR144      0.1897
     91  C         68.9750   69.1260  -20.5590 C.2   144  THR144      0.2313
     92  O         69.4410   69.9440  -21.3570 O.2   144  THR144     -0.2863
     93  CB        68.2080   70.2920  -18.4710 C.3   144  THR144      0.1794
     94  OG1       68.8380   69.4240  -17.5140 O.3   144  THR144     -0.2208
     95  CG2       67.0190   71.0010  -17.8330 C.3   144  THR144      0.0378
     96  N         55.1490   56.8180  -30.4300 N.3   189  THR189     -0.1218
     97  CA        56.0350   57.9490  -30.6970 C.3   189  THR189      0.1862
     98  C         57.2710   57.5970  -31.5080 C.2   189  THR189      0.2287
     99  O         58.1200   58.4730  -31.7010 O.2   189  THR189     -0.2866
    100  CB        56.5180   58.5700  -29.3840 C.3   189  THR189      0.1770
    101  OG1       57.3760   57.6320  -28.7190 O.3   189  THR189     -0.2211
    102  CG2       55.3490   58.9310  -28.4890 C.3   189  THR189      0.0375
    103  N         61.0250   52.7480  -26.8330 N.3   207  LYS207     -0.1231
    104  CA        60.7180   53.9420  -26.0560 C.3   207  LYS207      0.1693
    105  C         61.6400   55.0640  -26.5080 C.2   207  LYS207      0.2593
    106  O         62.8670   54.9130  -26.4630 O.2   207  LYS207     -0.2718
    107  CB        60.8920   53.6960  -24.5590 C.3   207  LYS207      0.0285
    108  CG        60.6720   54.9510  -23.7270 C.3   207  LYS207      0.0035
    109  CD        59.1700   55.2750  -23.7170 C.3   207  LYS207      0.0206
    110  CE        58.8860   56.6930  -23.2360 C.3   207  LYS207      0.1093
    111  NZ        59.0520   57.6780  -24.3480 N.3   207  LYS207     -0.1314
    112  N         61.0540   56.1880  -26.9170 N.am  208  THR208     -0.1939
    113  CA        61.8300   57.3370  -27.3750 C.3   208  THR208      0.2028
    114  C         62.1680   58.2720  -26.2110 C.2   208  THR208      0.2643
    115  O         61.6750   58.1300  -25.0910 O.2   208  THR208     -0.2714
    116  CB        61.0530   58.1310  -28.4350 C.3   208  THR208      0.1808
    117  OG1       59.7300   58.4130  -27.9420 O.3   208  THR208     -0.2208
    118  CG2       60.9440   57.3420  -29.7480 C.3   208  THR208      0.0379
    119  N         63.0120   59.2510  -26.4960 N.am  209  GLY209     -0.1939
    120  CA        63.1850   60.3760  -25.5860 C.3   209  GLY209      0.2014
    121  C         63.6810   61.5800  -26.3490 C.2   209  GLY209      0.2640
    122  O         64.3140   61.4540  -27.3970 O.2   209  GLY209     -0.2714
    123  N         63.3770   62.7650  -25.8260 N.am  210  SER210     -0.1935
    124  CA        63.8820   63.9770  -26.4480 C.3   210  SER210      0.2055
    125  C         64.0640   65.0500  -25.3830 C.2   210  SER210      0.2644
    126  O         63.4470   65.0110  -24.3100 O.2   210  SER210     -0.2714
    127  CB        62.9620   64.4640  -27.5800 C.3   210  SER210      0.2130
    128  OG        61.6310   64.5920  -27.1450 O.3   210  SER210     -0.2179
    129  N         64.9380   65.9970  -25.6820 N.am  211  GLY211     -0.1939
    130  CA        65.2340   67.0210  -24.7000 C.3   211  GLY211      0.2014
    131  C         65.9900   68.1690  -25.3250 C.2   211  GLY211      0.2638
    132  O         66.0800   68.2910  -26.5500 O.2   211  GLY211     -0.2714
    133  N         66.5320   69.0210  -24.4550 N.am  212  ASP212     -0.1971
    134  CA        67.3390   70.1370  -24.9140 C.3   212  ASP212      0.1709
    135  C         68.6320   69.6230  -25.5370 C.2   212  ASP212      0.2293
    136  O         68.9550   68.4310  -25.4770 O.2   212  ASP212     -0.2864
    137  CB        67.6590   71.0810  -23.7550 C.3   212  ASP212      0.1436
    138  CG        66.4630   71.8970  -23.3060 C.2   212  ASP212      0.3671
    139  OD1       65.4420   71.9610  -24.0300 O.co2 212  ASP212     -0.2456
    140  OD2       66.5420   72.4820  -22.2040 O.co2 212  ASP212     -0.2456
@<TRIPOS>BOND
     1    99    98    2
     2    98    97    1
     3    97    96    1
     4    97   100    1
     5   118   116    1
     6   100   101    1
     7   100   102    1
     8   116   117    1
     9   116   113    1
    10    43    42    1
    11    41    42   ar
    12    41    39   ar
    13   127   128    1
    14   127   124    1
    15    42    40   ar
    16    31    30    1
    17   122   121    2
    18   113   112    1
    19   113   114    1
    20    39    37   ar
    21   112   105   am
    22   103   104    1
    23    28    30   ar
    24    28    26   ar
    25   132   131    2
    26   105   106    2
    27   105   104    1
    28   119   114   am
    29   119   120    1
    30   124   123    1
    31   124   125    1
    32    30    29   ar
    33   121   123   am
    34   121   120    1
    35    40    38   ar
    36   114   115    2
    37   104   107    1
    38    37    38   ar
    39    37    36    1
    40   129   125   am
    41   129   130    1
    42    26    25   ar
    43   135   136    2
    44   135   134    1
    45    33    36    1
    46    33    32    1
    47    33    34    1
    48   125   126    2
    49   131   130    1
    50   131   133   am
    51    35    34    2
    52    29    27   ar
    53   134   133    1
    54   134   137    1
    55    34    44   am
    56   107   108    1
    57   111   110    1
    58    25    27   ar
    59    25    24    1
    60    48    49    1
    61    48    45    1
    62    44    45    1
    63   139   138   ar
    64   137   138    1
    65   108   109    1
    66   109   110    1
    67    45    46    1
    68   138   140   ar
    69    24    21    1
    70    21    20    1
    71    21    22    1
    72     6     5    1
    73     5     2    1
    74    46    47    2
    75    22    23    2
    76     7     8    1
    77     7     3   am
    78     9     8    1
    79     9    10    2
    80    84    83    2
    81    92    91    2
    82     2     3    1
    83     2     1    1
    84     3     4    2
    85    85    86    1
    86    85    82    1
    87    19    18    1
    88    91    90    1
    89    57    55   am
    90    87    86    2
    91    86    88   am
    92    83    82    1
    93    83    89   am
    94    17    18    1
    95    17    16    1
    96    56    55    2
    97    82    81    1
    98    55    54    1
    99    90    89    1
   100    90    93    1
   101    50    51    1
   102    15    16    1
   103    15    12    1
   104    54    51    1
   105    11    12    1
   106    51    52    1
   107    93    95    1
   108    93    94    1
   109    13    12    1
   110    13    14    2
   111    66    64   ar
   112    65    64   ar
   113    70    69    2
   114    71    68    1
   115    71    72    1
   116    64    63    1
   117    52    53    2
   118    68    69    1
   119    68    67    1
   120    72    73    1
   121    69    74   am
   122    63    62    1
   123    77    76    2
   124    62    59    1
   125    76    75    1
   126    67    73    1
   127    67    60   am
   128    74    75    1
   129    75    78    1
   130    59    60    1
   131    59    58    1
   132    60    61    2
   133    78    80    1
   134    78    79    1
