@<TRIPOS>MOLECULE
tmp/6cyzA00.pdb
 161 156 0 0 0
SMALL
GASTEIGER

@<TRIPOS>ATOM
      1  N         23.6840   12.9100    8.4390 N.3    36  ASP36      -0.1239
      2  CA        23.4330   12.7980    7.0100 C.3    36  ASP36       0.1674
      3  C         22.7100   14.0620    6.5650 C.2    36  ASP36       0.2266
      4  O         21.8370   14.5680    7.2770 O.2    36  ASP36      -0.2867
      5  CB        22.5810   11.5760    6.6760 C.3    36  ASP36       0.1410
      6  CG        23.3240   10.2740    6.8780 C.2    36  ASP36       0.3668
      7  OD1       24.5550   10.3070    7.0820 O.co2  36  ASP36      -0.2456
      8  OD2       22.6710    9.2100    6.8130 O.co2  36  ASP36      -0.2456
      9  N         25.9050    0.8070   -1.7200 N.3    58  GLU58      -0.1231
     10  CA        25.2330   -0.2130   -0.9390 C.3    58  GLU58       0.1699
     11  C         23.7430    0.0330   -0.7890 C.2    58  GLU58       0.2592
     12  O         23.0260   -0.8680   -0.3350 O.2    58  GLU58      -0.2718
     13  CB        25.8400   -0.2880    0.4690 C.3    58  GLU58       0.0402
     14  CG        27.2650   -0.7680    0.5090 C.3    58  GLU58       0.1161
     15  CD        27.8880   -0.6160    1.8820 C.2    58  GLU58       0.3649
     16  OE1       27.3400    0.1330    2.7200 O.co2  58  GLU58      -0.2457
     17  OE2       28.9360   -1.2440    2.1190 O.co2  58  GLU58      -0.2457
     18  N         23.2550    1.2150   -1.1450 N.am   59  VAL59      -0.1966
     19  CA        21.8440    1.5550   -0.9960 C.3    59  VAL59       0.1712
     20  C         21.2170    1.5880   -2.3830 C.2    59  VAL59       0.2458
     21  O         21.9060    1.8850   -3.3700 O.2    59  VAL59      -0.2730
     22  CB        21.6480    2.8920   -0.2640 C.3    59  VAL59       0.0289
     23  CG1       22.1230    2.7850    1.1810 C.3    59  VAL59       0.0023
     24  CG2       22.3690    4.0200   -0.9960 C.3    59  VAL59       0.0023
     25  N         19.9320    1.2790   -2.5110 N.am   60  PRO60      -0.2727
     26  CA        19.2930    1.3650   -3.8270 C.3    60  PRO60       0.1402
     27  C         19.2200    2.8040   -4.3100 C.2    60  PRO60       0.2269
     28  O         19.1330    3.7510   -3.5240 O.2    60  PRO60      -0.2865
     29  CB        17.9030    0.7620   -3.5940 C.3    60  PRO60       0.0296
     30  CG        17.6660    0.8500   -2.1350 C.3    60  PRO60       0.0237
     31  CD        19.0060    0.8220   -1.4570 C.3    60  PRO60       0.0939
     32  N         14.8470    3.2500   -2.2270 N.3    65  HIS65      -0.1226
     33  CA        15.7050    3.9740   -1.3000 C.3    65  HIS65       0.1752
     34  C         14.8580    4.4740   -0.1400 C.2    65  HIS65       0.2596
     35  O         13.7650    5.0130   -0.3360 O.2    65  HIS65      -0.2718
     36  CB        16.3890    5.1430   -2.0150 C.3    65  HIS65       0.0759
     37  CG        17.4760    5.7980   -1.2150 C.ar   65  HIS65       0.0818
     38  ND1       17.2280    6.8180   -0.3220 N.ar   65  HIS65      -0.2268
     39  CD2       18.8170    5.6090   -1.2080 C.ar   65  HIS65       0.1154
     40  CE1       18.3660    7.2130    0.2190 C.ar   65  HIS65       0.1986
     41  NE2       19.3460    6.4980   -0.3050 N.ar   65  HIS65      -0.2212
     42  N         15.3610    4.2720    1.0740 N.am   66  LEU66      -0.1966
     43  CA        14.5400    4.4850    2.2590 C.3    66  LEU66       0.1728
     44  C         14.1100    5.9410    2.3790 C.2    66  LEU66       0.2616
     45  O         12.9760    6.2290    2.7790 O.2    66  LEU66      -0.2715
     46  CB        15.3210    4.0270    3.4860 C.3    66  LEU66       0.0311
     47  CG        14.5920    3.8340    4.8110 C.3    66  LEU66       0.0022
     48  CD1       13.2640    3.1330    4.6290 C.3    66  LEU66       0.0001
     49  CD2       15.5080    3.0330    5.7300 C.3    66  LEU66       0.0001
     50  N         14.9900    6.8770    2.0110 N.am   67  VAL67      -0.1977
     51  CA        14.6340    8.2890    2.0850 C.3    67  VAL67       0.1596
     52  C         13.4730    8.5990    1.1470 C.2    67  VAL67       0.2287
     53  O         12.5360    9.3150    1.5150 O.2    67  VAL67      -0.2864
     54  CB        15.8530    9.1760    1.7700 C.3    67  VAL67       0.0276
     55  CG1       15.4140   10.6300    1.6650 C.3    67  VAL67       0.0022
     56  CG2       16.9290    9.0190    2.8320 C.3    67  VAL67       0.0022
     57  N         26.1860   11.4470    3.2350 N.3    91  ASN91      -0.1240
     58  CA        26.0520   10.6270    4.4290 C.3    91  ASN91       0.1653
     59  C         27.3600   10.5270    5.1980 C.2    91  ASN91       0.2266
     60  O         28.4040   10.2120    4.6180 O.2    91  ASN91      -0.2867
     61  CB        25.5870    9.2140    4.0570 C.3    91  ASN91       0.1155
     62  CG        24.2560    9.2030    3.3400 C.2    91  ASN91       0.2627
     63  OD1       23.4830   10.1630    3.4090 O.2    91  ASN91      -0.2716
     64  ND2       23.9800    8.1110    2.6340 N.am   91  ASN91      -0.0877
     65  N         27.6940    5.8690    9.6680 N.3    94  PRO94      -0.2102
     66  CA        28.0450    4.5250    9.1900 C.3    94  PRO94       0.1504
     67  C         26.8330    3.6060    9.1920 C.2    94  PRO94       0.2576
     68  O         25.9380    3.7270   10.0300 O.2    94  PRO94      -0.2718
     69  CB        29.1000    4.0450   10.1960 C.3    94  PRO94       0.0282
     70  CG        29.5630    5.2700   10.9080 C.3    94  PRO94       0.0208
     71  CD        28.3900    6.2010   10.9230 C.3    94  PRO94       0.0893
     72  N         26.8190    2.6730    8.2410 N.am   95  HIS95      -0.1962
     73  CA        25.7490    1.6930    8.1260 C.3    95  HIS95       0.1787
     74  C         26.1090    0.4020    8.8580 C.2    95  HIS95       0.2621
     75  O         27.2790    0.0230    8.9570 O.2    95  HIS95      -0.2715
     76  CB        25.4470    1.3750    6.6560 C.3    95  HIS95       0.0785
     77  CG        24.8300    2.5110    5.8990 C.ar   95  HIS95       0.0821
     78  ND1       24.0290    2.3160    4.7940 N.ar   95  HIS95      -0.2267
     79  CD2       24.8960    3.8500    6.0850 C.ar   95  HIS95       0.1154
     80  CE1       23.6230    3.4870    4.3350 C.ar   95  HIS95       0.1986
     81  NE2       24.1370    4.4340    5.0990 N.ar   95  HIS95      -0.2212
     82  N         25.0790   -0.2770    9.3620 N.am   96  SER96      -0.1936
     83  CA        25.2330   -1.5920    9.9880 C.3    96  SER96       0.2055
     84  C         26.2690   -1.5720   11.1070 C.2    96  SER96       0.2643
     85  O         27.0670   -2.5000   11.2640 O.2    96  SER96      -0.2714
     86  CB        25.5830   -2.6450    8.9370 C.3    96  SER96       0.2130
     87  OG        24.5060   -2.8130    8.0340 O.3    96  SER96      -0.2179
     88  N         26.2350   -0.5120   11.9190 N.am   97  ARG97      -0.1963
     89  CA        27.1820   -0.3550   13.0110 C.3    97  ARG97       0.1729
     90  C         26.5420   -0.1010   14.3690 C.2    97  ARG97       0.2617
     91  O         27.2700    0.0110   15.3610 O.2    97  ARG97      -0.2715
     92  CB        28.1530    0.7990   12.7020 C.3    97  ARG97       0.0348
     93  CG        29.6150    0.4010   12.7570 C.3    97  ARG97       0.0492
     94  CD        29.9470   -0.6240   11.6920 C.3    97  ARG97       0.2205
     95  NE        29.7160   -0.0720   10.3640 N.pl3  97  ARG97      -0.0865
     96  CZ        30.5920    0.6870    9.7150 C.cat  97  ARG97       0.5346
     97  NH1       30.2950    1.1550    8.5110 N.pl3  97  ARG97       0.1354
     98  NH2       31.7610    0.9800   10.2710 N.pl3  97  ARG97       0.1354
     99  N         25.2160   -0.0280   14.4520 N.am   98  GLY98      -0.1940
    100  CA        24.5420    0.3330   15.6810 C.3    98  GLY98       0.2014
    101  C         24.2910    1.8150   15.8650 C.2    98  GLY98       0.2639
    102  O         23.9280    2.2320   16.9730 O.2    98  GLY98      -0.2714
    103  N         24.4560    2.6250   14.8160 N.am   99  LEU99      -0.1963
    104  CA        24.2970    4.0710   14.9170 C.3    99  LEU99       0.1728
    105  C         23.0560    4.5790   14.1920 C.2    99  LEU99       0.2617
    106  O         22.9360    5.7860   13.9520 O.2    99  LEU99      -0.2715
    107  CB        25.5520    4.7790   14.3910 C.3    99  LEU99       0.0311
    108  CG        26.8030    4.5150   15.2320 C.3    99  LEU99       0.0022
    109  CD1       28.0570    5.0980   14.6000 C.3    99  LEU99       0.0001
    110  CD2       26.6290    5.0730   16.6430 C.3    99  LEU99       0.0001
    111  N         22.1360    3.6880   13.8390 N.am  100  GLY100     -0.1940
    112  CA        20.8060    4.0870   13.4140 C.3   100  GLY100      0.2014
    113  C         20.7020    4.7410   12.0550 C.2   100  GLY100      0.2640
    114  O         19.9730    5.7320   11.9130 O.2   100  GLY100     -0.2714
    115  N         21.3830    4.2060   11.0390 N.am  101  SER101     -0.1935
    116  CA        21.3290    4.8530    9.7300 C.3   101  SER101      0.2055
    117  C         19.9720    4.6500    9.0640 C.2   101  SER101      0.2643
    118  O         19.4920    5.5440    8.3580 O.2   101  SER101     -0.2714
    119  CB        22.4450    4.3400    8.8120 C.3   101  SER101      0.2130
    120  OG        22.2660    2.9770    8.4790 O.3   101  SER101     -0.2179
    121  N         19.3290    3.4980    9.2850 N.am  102  SER102     -0.1949
    122  CA        18.0070    3.2720    8.7130 C.3   102  SER102      0.1924
    123  C         16.9910    4.2450    9.2890 C.2   102  SER102      0.2314
    124  O         16.1820    4.8290    8.5590 O.2   102  SER102     -0.2863
    125  CB        17.5500    1.8390    8.9690 C.3   102  SER102      0.2116
    126  OG        18.3620    0.9160    8.2750 O.3   102  SER102     -0.2180
    127  N         17.5150    7.7370    7.9250 N.3   105  ALA105     -0.1245
    128  CA        17.0520    7.8940    6.5480 C.3   105  ALA105      0.1562
    129  C         15.5450    8.1090    6.4980 C.2   105  ALA105      0.2260
    130  O         15.0560    8.9660    5.7540 O.2   105  ALA105     -0.2867
    131  CB        17.4390    6.6760    5.7090 C.3   105  ALA105      0.0290
    132  N         10.8010    1.4240   11.0340 N.3   138  GLU138     -0.1245
    133  CA        11.7820    0.6560   11.7890 C.3   138  GLU138      0.1567
    134  C         11.1690   -0.5670   12.4640 C.2   138  GLU138      0.2260
    135  O         11.8540   -1.5790   12.6420 O.2   138  GLU138     -0.2867
    136  CB        12.4410    1.5390   12.8570 C.3   138  GLU138      0.0388
    137  CG        13.4570    2.5420   12.3360 C.3   138  GLU138      0.1160
    138  CD        14.7060    1.8730   11.7930 C.2   138  GLU138      0.3649
    139  OE1       15.5160    1.3710   12.6040 O.co2 138  GLU138     -0.2457
    140  OE2       14.8690    1.8310   10.5550 O.co2 138  GLU138     -0.2457
    141  N         15.4560    4.4370   17.9830 N.3   143  ASN143     -0.1240
    142  CA        16.3240    5.2370   17.1180 C.3   143  ASN143      0.1653
    143  C         15.5370    6.3660   16.4550 C.2   143  ASN143      0.2266
    144  O         16.0150    7.5050   16.3660 O.2   143  ASN143     -0.2867
    145  CB        16.9750    4.3700   16.0290 C.3   143  ASN143      0.1155
    146  CG        17.9610    3.3530   16.5820 C.2   143  ASN143      0.2627
    147  OD1       17.7060    2.1530   16.5100 O.2   143  ASN143     -0.2716
    148  ND2       19.0990    3.8160   17.0890 N.am  143  ASN143     -0.0877
    149  N         22.9410    0.1840   20.4130 N.3   255  GLY255     -0.1210
    150  CA        21.9040   -0.6660   19.8750 C.3   255  GLY255      0.1956
    151  C         22.2310   -2.1320   20.0740 C.2   255  GLY255      0.2612
    152  O         22.4280   -2.5850   21.2050 O.2   255  GLY255     -0.2717
    153  N         22.2780   -2.8830   18.9780 N.am  256  ALA256     -0.1965
    154  CA        22.7320   -4.2620   18.9990 C.3   256  ALA256      0.1728
    155  C         24.2160   -4.3890   18.6860 C.2   256  ALA256      0.2616
    156  O         24.6950   -5.5050   18.4600 O.2   256  ALA256     -0.2715
    157  CB        21.9310   -5.1000   18.0000 C.3   256  ALA256      0.0334
    158  N         24.9490   -3.2810   18.6530 N.am  257  GLY257     -0.1955
    159  CA        26.3350   -3.3000   18.2520 C.3   257  GLY257      0.1869
    160  C         26.4670   -3.3210   16.7420 C.2   257  GLY257      0.2309
    161  O         25.4760   -3.2130   16.0140 O.2   257  GLY257     -0.2863
@<TRIPOS>BOND
     1    27    26    1
     2    27    28    2
     3    26    29    1
     4    26    25    1
     5    29    30    1
     6    21    20    2
     7    25    20   am
     8    25    31    1
     9    20    19    1
    10    32    33    1
    11    30    31    1
    12    36    33    1
    13    36    37    1
    14     9    10    1
    15    33    34    1
    16    37    39   ar
    17    37    38   ar
    18    39    41   ar
    19    18    19    1
    20    18    11   am
    21    19    22    1
    22    24    22    1
    23    10    11    1
    24    10    13    1
    25    11    12    2
    26    35    34    2
    27    38    40   ar
    28    41    40   ar
    29    22    23    1
    30    34    42   am
    31    13    14    1
    32    14    15    1
    33    42    43    1
    34    52    53    2
    35    52    51    1
    36    55    54    1
    37    54    51    1
    38    54    56    1
    39    15    17   ar
    40    15    16   ar
    41    50    51    1
    42    50    44   am
    43    43    44    1
    44    43    46    1
    45    44    45    2
    46    64    62   am
    47    57    58    1
    48    62    63    2
    49    62    61    1
    50    46    47    1
    51    61    58    1
    52    80    78   ar
    53    80    81   ar
    54    58    59    1
    55    60    59    2
    56    48    47    1
    57    78    77   ar
    58    47    49    1
    59    81    79   ar
    60   131   128    1
    61   130   129    2
    62    77    79   ar
    63    77    76    1
    64   129   128    1
    65   128   127    1
    66     3     2    1
    67     3     4    2
    68    76    73    1
    69     5     6    1
    70     5     2    1
    71     8     6   ar
    72     6     7   ar
    73     2     1    1
    74    87    86    1
    75    73    72    1
    76    73    74    1
    77    72    67   am
    78   126   125    1
    79   118   117    2
    80   120   119    1
    81    97    96    1
    82   124   123    2
    83   122   125    1
    84   122   121    1
    85   122   123    1
    86   119   116    1
    87    74    75    2
    88    74    82   am
    89    86    83    1
    90   117   121   am
    91   117   116    1
    92    66    67    1
    93    66    65    1
    94    66    69    1
    95    67    68    2
    96    82    83    1
    97    65    71    1
    98    96    98    1
    99    96    95    2
   100   116   115    1
   101    83    84    1
   102    69    70    1
   103    95    94    1
   104   140   138   ar
   105    70    71    1
   106   132   133    1
   107   115   113   am
   108    84    85    2
   109    84    88   am
   110    94    93    1
   111   133   134    1
   112   133   136    1
   113   138   137    1
   114   138   139   ar
   115   114   113    2
   116    88    89    1
   117   113   112    1
   118   137   136    1
   119   134   135    2
   120    92    93    1
   121    92    89    1
   122    89    90    1
   123   112   111    1
   124   111   105   am
   125   106   105    2
   126   105   104    1
   127    90    99   am
   128    90    91    2
   129   107   104    1
   130   107   108    1
   131    99   100    1
   132   109   108    1
   133   103   104    1
   134   103   101   am
   135   108   110    1
   136   100   101    1
   137   101   102    2
   138   161   160    2
   139   145   146    1
   140   145   142    1
   141   144   143    2
   142   143   142    1
   143   147   146    2
   144   146   148   am
   145   160   159    1
   146   142   141    1
   147   157   154    1
   148   159   158    1
   149   156   155    2
   150   158   155   am
   151   155   154    1
   152   153   154    1
   153   153   151   am
   154   150   151    1
   155   150   149    1
   156   151   152    2
