@<TRIPOS>MOLECULE
tmp/6cz5A00.pdb
 188 183 0 0 0
SMALL
GASTEIGER

@<TRIPOS>ATOM
      1  N         14.6910   -0.3300   11.0930 N.3    22  LYS22      -0.1231
      2  CA        15.1780   -1.4120   10.2450 C.3    22  LYS22       0.1693
      3  C         15.1980   -2.7420   10.9970 C.2    22  LYS22       0.2592
      4  O         15.7110   -2.8230   12.1110 O.2    22  LYS22      -0.2718
      5  CB        16.5740   -1.0860    9.7160 C.3    22  LYS22       0.0285
      6  CG        16.6190    0.1300    8.8030 C.3    22  LYS22       0.0035
      7  CD        18.0340    0.4100    8.3330 C.3    22  LYS22       0.0206
      8  CE        18.0750    1.5860    7.3710 C.3    22  LYS22       0.1093
      9  NZ        19.4650    1.8820    6.9280 N.3    22  LYS22      -0.1314
     10  N         14.6360   -3.7820   10.3800 N.am   23  TYR23      -0.1976
     11  CA        14.5640   -5.1050   10.9930 C.3    23  TYR23       0.1639
     12  C         15.5870   -6.0490   10.3710 C.2    23  TYR23       0.2290
     13  O         16.6920   -5.6260   10.0140 O.2    23  TYR23      -0.2864
     14  CB        13.1450   -5.6680   10.8590 C.3    23  TYR23       0.0560
     15  CG        12.1050   -4.9070   11.6590 C.ar   23  TYR23      -0.0198
     16  CD1       11.8920   -5.1900   13.0050 C.ar   23  TYR23      -0.0009
     17  CD2       11.3460   -3.9010   11.0730 C.ar   23  TYR23      -0.0009
     18  CE1       10.9430   -4.5000   13.7390 C.ar   23  TYR23       0.0417
     19  CE2       10.3990   -3.2070   11.8020 C.ar   23  TYR23       0.0417
     20  CZ        10.2010   -3.5100   13.1350 C.ar   23  TYR23       0.1957
     21  OH         9.2570   -2.8180   13.8620 O.3    23  TYR23      -0.2866
     22  N         21.8650   -7.1430   -5.0600 N.3    42  PHE42      -0.1241
     23  CA        21.4940   -6.3140   -6.2020 C.3    42  PHE42       0.1605
     24  C         22.3590   -6.6140   -7.4190 C.2    42  PHE42       0.2264
     25  O         21.9200   -6.4040   -8.5550 O.2    42  PHE42      -0.2867
     26  CB        21.6000   -4.8330   -5.8400 C.3    42  PHE42       0.0534
     27  CG        20.7200   -4.4210   -4.6960 C.ar   42  PHE42      -0.0203
     28  CD1       19.3670   -4.2030   -4.8910 C.ar   42  PHE42      -0.0042
     29  CD2       21.2480   -4.2430   -3.4280 C.ar   42  PHE42      -0.0042
     30  CE1       18.5540   -3.8210   -3.8400 C.ar   42  PHE42      -0.0003
     31  CE2       20.4410   -3.8600   -2.3730 C.ar   42  PHE42      -0.0003
     32  CZ        19.0920   -3.6480   -2.5800 C.ar   42  PHE42      -0.0000
     33  N         22.5240    6.1710   -1.9390 N.3    58  THR58      -0.1203
     34  CA        21.6560    6.1620   -0.7700 C.3    58  THR58       0.1994
     35  C         22.1470    5.1890    0.2980 C.2    58  THR58       0.2618
     36  O         21.4630    4.9900    1.3090 O.2    58  THR58      -0.2717
     37  CB        20.2200    5.8250   -1.1850 C.3    58  THR58       0.1784
     38  OG1       19.9180    6.4850   -2.4180 O.3    58  THR58      -0.2211
     39  CG2       19.2250    6.3290   -0.1420 C.3    58  THR58       0.0376
     40  N         23.3260    4.5970    0.0990 N.am   59  ARG59      -0.1965
     41  CA        23.8900    3.5960    1.0030 C.3    59  ARG59       0.1729
     42  C         22.9210    2.4260    1.1870 C.2    59  ARG59       0.2616
     43  O         22.4810    2.1070    2.2930 O.2    59  ARG59      -0.2715
     44  CB        24.2780    4.2180    2.3490 C.3    59  ARG59       0.0348
     45  CG        25.2120    5.4160    2.2400 C.3    59  ARG59       0.0492
     46  CD        25.8900    5.7110    3.5720 C.3    59  ARG59       0.2205
     47  NE        24.9320    5.8200    4.6690 N.pl3  59  ARG59      -0.0865
     48  CZ        24.4140    6.9640    5.1040 C.cat  59  ARG59       0.5346
     49  NH1       24.7580    8.1120    4.5360 N.pl3  59  ARG59       0.1354
     50  NH2       23.5490    6.9610    6.1100 N.pl3  59  ARG59       0.1354
     51  N         22.5830    1.7960    0.0640 N.am   60  TYR60      -0.1960
     52  CA        21.7750    0.5850    0.0630 C.3    60  TYR60       0.1771
     53  C         22.6910   -0.6280    0.0950 C.2    60  TYR60       0.2620
     54  O         23.6140   -0.7400   -0.7190 O.2    60  TYR60      -0.2715
     55  CB        20.8700    0.5310   -1.1670 C.3    60  TYR60       0.0574
     56  CG        19.5370    1.2160   -0.9830 C.ar   60  TYR60      -0.0198
     57  CD1       18.3650    0.6200   -1.4260 C.ar   60  TYR60      -0.0009
     58  CD2       19.4480    2.4510   -0.3610 C.ar   60  TYR60      -0.0009
     59  CE1       17.1430    1.2410   -1.2610 C.ar   60  TYR60       0.0417
     60  CE2       18.2310    3.0760   -0.1900 C.ar   60  TYR60       0.0417
     61  CZ        17.0840    2.4690   -0.6420 C.ar   60  TYR60       0.1957
     62  OH        15.8730    3.0950   -0.4740 O.3    60  TYR60      -0.2866
     63  N         22.4290   -1.5360    1.0320 N.am   61  THR61      -0.1937
     64  CA        23.3020   -2.6840    1.2370 C.3    61  THR61       0.2028
     65  C         22.6480   -3.9680    0.7450 C.2    61  THR61       0.2642
     66  O         22.9650   -4.4570   -0.3440 O.2    61  THR61      -0.2714
     67  CB        23.6740   -2.7990    2.7150 C.3    61  THR61       0.1808
     68  OG1       22.4840   -2.7540    3.5130 O.3    61  THR61      -0.2208
     69  CG2       24.5710   -1.6460    3.1100 C.3    61  THR61       0.0379
     70  N         21.7370   -4.5210    1.5400 N.am   62  ARG62      -0.1963
     71  CA        21.0630   -5.7540    1.1770 C.3    62  ARG62       0.1714
     72  C         19.5920   -5.4970    0.8790 C.2    62  ARG62       0.2458
     73  O         18.9650   -4.6560    1.5340 O.2    62  ARG62      -0.2730
     74  CB        21.1790   -6.7950    2.2970 C.3    62  ARG62       0.0347
     75  CG        22.5430   -7.4570    2.3890 C.3    62  ARG62       0.0492
     76  CD        22.8230   -7.9390    3.8030 C.3    62  ARG62       0.2205
     77  NE        22.7480   -6.8450    4.7680 N.pl3  62  ARG62      -0.0865
     78  CZ        23.7100   -5.9470    4.9590 C.cat  62  ARG62       0.5346
     79  NH1       24.8320   -6.0090    4.2520 N.pl3  62  ARG62       0.1354
     80  NH2       23.5520   -4.9850    5.8570 N.pl3  62  ARG62       0.1354
     81  N         19.0190   -6.1900   -0.1030 N.am   63  PRO63      -0.2716
     82  CA        17.5890   -6.0180   -0.3830 C.3    63  PRO63       0.1536
     83  C         16.7340   -6.5770    0.7440 C.2    63  PRO63       0.2599
     84  O         17.0090   -7.6490    1.2870 O.2    63  PRO63      -0.2715
     85  CB        17.3860   -6.8000   -1.6850 C.3    63  PRO63       0.0310
     86  CG        18.4970   -7.8000   -1.7010 C.3    63  PRO63       0.0237
     87  CD        19.6630   -7.1210   -1.0450 C.3    63  PRO63       0.0939
     88  N         15.6830   -5.8330    1.0890 N.am   64  THR64      -0.1951
     89  CA        14.7810   -6.2190    2.1620 C.3    64  THR64       0.1897
     90  C         14.0180   -7.4850    1.7680 C.2    64  THR64       0.2313
     91  O         14.0500   -7.8990    0.6080 O.2    64  THR64      -0.2863
     92  CB        13.8260   -5.0660    2.4790 C.3    64  THR64       0.1794
     93  OG1       12.6930   -5.1210    1.6040 O.3    64  THR64      -0.2208
     94  CG2       14.5290   -3.7260    2.3120 C.3    64  THR64       0.0378
     95  N         11.8090   -6.9800   -1.0920 N.3    67  GLN67      -0.1245
     96  CA        12.6360   -6.6110   -2.2340 C.3    67  GLN67       0.1566
     97  C         13.3810   -7.8120   -2.7980 C.2    67  GLN67       0.2260
     98  O         13.6940   -7.8390   -3.9920 O.2    67  GLN67      -0.2867
     99  CB        13.6190   -5.5110   -1.8370 C.3    67  GLN67       0.0367
    100  CG        12.9530   -4.2170   -1.4050 C.3    67  GLN67       0.0905
    101  CD        13.9540   -3.1320   -1.0660 C.2    67  GLN67       0.2608
    102  OE1       15.1640   -3.3460   -1.1300 O.2    67  GLN67      -0.2717
    103  NE2       13.4520   -1.9580   -0.7000 N.am   67  GLN67      -0.0878
    104  N          2.2570   -6.7150    5.3080 N.3    85  GLN85      -0.1231
    105  CA         2.1160   -5.5690    6.1970 C.3    85  GLN85       0.1698
    106  C          3.4130   -5.2650    6.9400 C.2    85  GLN85       0.2593
    107  O          3.8400   -4.1080    7.0000 O.2    85  GLN85      -0.2718
    108  CB         0.9700   -5.7990    7.1890 C.3    85  GLN85       0.0381
    109  CG         0.9000   -7.1930    7.7860 C.3    85  GLN85       0.0905
    110  CD        -0.2570   -7.3430    8.7590 C.2    85  GLN85       0.2608
    111  OE1       -0.8680   -6.3560    9.1710 O.2    85  GLN85      -0.2717
    112  NE2       -0.5610   -8.5800    9.1310 N.am   85  GLN85      -0.0878
    113  N          4.0530   -6.2880    7.4980 N.am   86  THR86      -0.1939
    114  CA         5.3080   -6.1090    8.2260 C.3    86  THR86       0.2028
    115  C          6.5080   -6.2700    7.2950 C.2    86  THR86       0.2643
    116  O          7.4720   -6.9670    7.5950 O.2    86  THR86      -0.2714
    117  CB         5.3770   -7.0890    9.3930 C.3    86  THR86       0.1808
    118  OG1        4.0910   -7.1790   10.0180 O.3    86  THR86      -0.2208
    119  CG2        6.3860   -6.6180   10.4370 C.3    86  THR86       0.0379
    120  N          6.4500   -5.6190    6.1380 N.am   87  GLY87      -0.1939
    121  CA         7.5270   -5.7260    5.1740 C.3    87  GLY87       0.2014
    122  C          8.1900   -4.4000    4.8680 C.2    87  GLY87       0.2639
    123  O          7.5370   -3.4710    4.3860 O.2    87  GLY87      -0.2714
    124  N          9.4860   -4.2960    5.1420 N.am   88  CYS88      -0.1953
    125  CA        10.2060   -3.0610    4.8750 C.3    88  CYS88       0.1843
    126  C         10.6050   -2.9760    3.4070 C.2    88  CYS88       0.2626
    127  O         10.7970   -3.9910    2.7330 O.2    88  CYS88      -0.2714
    128  CB        11.4470   -2.9520    5.7600 C.3    88  CYS88       0.0997
    129  SG        11.1250   -3.0260    7.5390 S.3    88  CYS88      -0.0797
    130  N         10.7280   -1.7460    2.9180 N.am   89  GLY89      -0.1940
    131  CA        11.0740   -1.5360    1.5260 C.3    89  GLY89       0.2014
    132  C          9.9760   -1.8950    0.5510 C.2    89  GLY89       0.2639
    133  O         10.2680   -2.3380   -0.5630 O.2    89  GLY89      -0.2714
    134  N          8.7110   -1.7170    0.9450 N.am   90  LYS90      -0.1963
    135  CA         7.6010   -2.0350    0.0530 C.3    90  LYS90       0.1728
    136  C          7.5710   -1.1190   -1.1640 C.2    90  LYS90       0.2617
    137  O          7.1440   -1.5420   -2.2440 O.2    90  LYS90      -0.2715
    138  CB         6.2750   -1.9460    0.8110 C.3    90  LYS90       0.0311
    139  CG         5.9110   -3.1960    1.5980 C.3    90  LYS90       0.0038
    140  CD         4.6430   -2.9990    2.4240 C.3    90  LYS90       0.0206
    141  CE         4.8580   -2.0220    3.5750 C.3    90  LYS90       0.1093
    142  NZ         3.7730   -2.1070    4.5970 N.3    90  LYS90      -0.1314
    143  N          8.0220    0.1280   -1.0160 N.am   91  THR91      -0.1937
    144  CA         7.9290    1.0900   -2.1090 C.3    91  THR91       0.2028
    145  C          9.0720    0.9210   -3.1050 C.2    91  THR91       0.2642
    146  O          8.8380    0.8080   -4.3130 O.2    91  THR91      -0.2714
    147  CB         7.9020    2.5140   -1.5550 C.3    91  THR91       0.1808
    148  OG1        6.6120    2.7770   -0.9870 O.3    91  THR91      -0.2208
    149  CG2        8.1830    3.5240   -2.6570 C.3    91  THR91       0.0379
    150  N         10.3140    0.8990   -2.6210 N.am   92  ALA92      -0.1977
    151  CA        11.4440    0.6560   -3.5090 C.3    92  ALA92       0.1597
    152  C         11.4100   -0.7350   -4.1250 C.2    92  ALA92       0.2287
    153  O         12.1520   -0.9880   -5.0800 O.2    92  ALA92      -0.2864
    154  CB        12.7600    0.8580   -2.7580 C.3    92  ALA92       0.0319
    155  N          6.1830   10.1900   -0.2100 N.3   133  GLN133     -0.1245
    156  CA         7.2480    9.2520    0.1330 C.3   133  GLN133      0.1566
    157  C          7.6940    8.4590   -1.0880 C.2   133  GLN133      0.2260
    158  O          8.8950    8.2550   -1.3030 O.2   133  GLN133     -0.2867
    159  CB         6.7860    8.3090    1.2450 C.3   133  GLN133      0.0367
    160  CG         6.5710    8.9890    2.5880 C.3   133  GLN133      0.0905
    161  CD         6.2850    8.0030    3.7050 C.2   133  GLN133      0.2608
    162  OE1        6.3420    6.7890    3.5070 O.2   133  GLN133     -0.2717
    163  NE2        5.9750    8.5220    4.8880 N.am  133  GLN133     -0.0878
    164  N         11.3560    9.1420   -3.1880 N.3   137  GLU137     -0.1245
    165  CA        12.2510    8.0360   -3.5040 C.3   137  GLU137      0.1567
    166  C         12.3670    7.8260   -5.0070 C.2   137  GLU137      0.2260
    167  O         13.3780    7.2910   -5.4780 O.2   137  GLU137     -0.2867
    168  CB        11.7780    6.7510   -2.8220 C.3   137  GLU137      0.0388
    169  CG        12.8440    5.6630   -2.7650 C.3   137  GLU137      0.1160
    170  CD        12.4920    4.5380   -1.8090 C.2   137  GLU137      0.3649
    171  OE1       11.3130    4.4380   -1.4090 O.co2 137  GLU137     -0.2457
    172  OE2       13.3970    3.7520   -1.4550 O.co2 137  GLU137     -0.2457
    173  N         15.0000   10.1010   -6.0600 N.3   140  LYS140     -0.1245
    174  CA        16.2940    9.5870   -5.6320 C.3   140  LYS140      0.1561
    175  C         16.8750    8.6090   -6.6460 C.2   140  LYS140      0.2260
    176  O         18.1000    8.5170   -6.7860 O.2   140  LYS140     -0.2867
    177  CB        16.1550    8.9230   -4.2620 C.3   140  LYS140      0.0271
    178  CG        17.2810    9.2330   -3.2910 C.3   140  LYS140      0.0035
    179  CD        17.0110    8.6210   -1.9230 C.3   140  LYS140      0.0206
    180  CE        15.7810    9.2370   -1.2700 C.3   140  LYS140      0.1093
    181  NZ        15.4770    8.6130    0.0490 N.3   140  LYS140     -0.1314
    182  N          1.0010    0.6950   10.2890 N.3   387  VAL387     -0.1245
    183  CA         1.9160   -0.4400   10.2280 C.3   387  VAL387      0.1561
    184  C          2.6310   -0.5890   11.5660 C.2   387  VAL387      0.2260
    185  O          3.3950   -1.5390   11.7740 O.2   387  VAL387     -0.2867
    186  CB         2.9240   -0.2820    9.0730 C.3   387  VAL387      0.0252
    187  CG1        2.2510   -0.5800    7.7360 C.3   387  VAL387      0.0019
    188  CG2        3.4950    1.1340    9.0580 C.3   387  VAL387      0.0019
@<TRIPOS>BOND
     1    25    24    2
     2    24    23    1
     3   176   175    2
     4   175   174    1
     5    23    26    1
     6    23    22    1
     7   173   174    1
     8    26    27    1
     9   174   177    1
    10   167   166    2
    11   153   152    2
    12   166   165    1
    13    28    27   ar
    14    28    30   ar
    15    27    29   ar
    16   146   145    2
    17   177   178    1
    18   152   151    1
    19    98    97    2
    20    30    32   ar
    21   151   154    1
    22   151   150    1
    23   165   164    1
    24   165   168    1
    25    29    31   ar
    26   178   179    1
    27   145   150   am
    28   145   144    1
    29   168   169    1
    30    97    96    1
    31   169   170    1
    32   149   147    1
    33    32    31   ar
    34    38    37    1
    35   137   136    2
    36    96    99    1
    37    96    95    1
    38   144   147    1
    39   144   143    1
    40    33    34    1
    41   179   180    1
    42    99   100    1
    43   170   172   ar
    44   170   171   ar
    45    86    85    1
    46    86    87    1
    47    85    82    1
    48   147   148    1
    49    57    59   ar
    50    57    56   ar
    51   100   101    1
    52   158   157    2
    53   180   181    1
    54    59    61   ar
    55    37    34    1
    56    37    39    1
    57    55    56    1
    58    55    52    1
    59   136   143   am
    60   136   135    1
    61   102   101    2
    62   157   156    1
    63   101   103   am
    64    87    81    1
    65    56    58   ar
    66    34    35    1
    67    54    53    2
    68    61    62    1
    69    61    60   ar
    70   133   132    2
    71    82    81    1
    72    82    83    1
    73    58    60   ar
    74    66    65    2
    75   155   156    1
    76    81    72   am
    77   135   138    1
    78   135   134    1
    79    52    51    1
    80    52    53    1
    81    51    42   am
    82    53    63   am
    83    40    35   am
    84    40    41    1
    85   156   159    1
    86    35    36    2
    87   132   134   am
    88   132   131    1
    89    91    90    2
    90    83    88   am
    91    83    84    2
    92    65    64    1
    93    65    70   am
    94   138   139    1
    95    72    71    1
    96    72    73    2
    97    41    42    1
    98    41    44    1
    99    63    64    1
   100    88    89    1
   101    71    70    1
   102    71    74    1
   103    42    43    2
   104    64    67    1
   105   159   160    1
   106   131   130    1
   107   139   140    1
   108    93    92    1
   109    90    89    1
   110    89    92    1
   111    45    44    1
   112    45    46    1
   113    74    75    1
   114    94    92    1
   115    75    76    1
   116   140   141    1
   117   160   161    1
   118    67    69    1
   119    67    68    1
   120   127   126    2
   121   130   126   am
   122   126   125    1
   123   162   161    2
   124    46    47    1
   125   141   142    1
   126   161   163   am
   127    76    77    1
   128    79    78    1
   129   123   122    2
   130    49    48    1
   131    47    48    2
   132    77    78    2
   133   122   124   am
   134   122   121    1
   135   125   124    1
   136   125   128    1
   137    78    80    1
   138    48    50    1
   139   121   120    1
   140   104   105    1
   141   128   129    1
   142   120   115   am
   143   105   106    1
   144   105   108    1
   145     9     8    1
   146   106   107    2
   147   106   113   am
   148   108   109    1
   149   115   116    2
   150   115   114    1
   151     8     7    1
   152   113   114    1
   153   187   186    1
   154   109   110    1
   155   114   117    1
   156     7     6    1
   157   110   112   am
   158   110   111    2
   159     6     5    1
   160   188   186    1
   161   186   183    1
   162   117   118    1
   163   117   119    1
   164     5     2    1
   165    13    12    2
   166   183   182    1
   167   183   184    1
   168     2     3    1
   169     2     1    1
   170    12    11    1
   171    10    11    1
   172    10     3   am
   173    14    11    1
   174    14    15    1
   175     3     4    2
   176    17    15   ar
   177    17    19   ar
   178   184   185    2
   179    15    16   ar
   180    19    20   ar
   181    16    18   ar
   182    20    18   ar
   183    20    21    1
