@<TRIPOS>MOLECULE
tmp/6czcD00.pdb
 120 111 0 0 0
SMALL
GASTEIGER

@<TRIPOS>ATOM
      1  N        -21.8850   11.3360    1.2400 N.3    12  THR12      -0.1203
      2  CA       -21.9270   12.4140    0.2630 C.3    12  THR12       0.1994
      3  C        -20.8960   13.4840    0.5990 C.2    12  THR12       0.2618
      4  O        -20.6230   13.7680    1.7670 O.2    12  THR12      -0.2717
      5  CB       -23.3320   13.0230    0.1780 C.3    12  THR12       0.1784
      6  OG1      -23.4720   13.7190   -1.0720 O.3    12  THR12      -0.2211
      7  CG2      -23.5930   13.9960    1.3260 C.3    12  THR12       0.0376
      8  N        -20.2860   14.0470   -0.4350 N.am   13  GLY13      -0.1942
      9  CA       -19.4410   15.1990   -0.2050 C.3    13  GLY13       0.2014
     10  C        -18.0900   14.9350    0.4260 C.2    13  GLY13       0.2639
     11  O        -17.5970   15.7720    1.1850 O.2    13  GLY13      -0.2714
     12  N        -17.4460   13.8200    0.0990 N.am   14  VAL14      -0.1963
     13  CA       -16.1990   13.4400    0.7490 C.3    14  VAL14       0.1727
     14  C        -14.9860   13.6480   -0.1460 C.2    14  VAL14       0.2617
     15  O        -13.8440   13.5210    0.3380 O.2    14  VAL14      -0.2715
     16  CB       -16.2620   11.9790    1.2560 C.3    14  VAL14       0.0290
     17  CG1      -17.3580   11.8360    2.2890 C.3    14  VAL14       0.0023
     18  CG2      -16.5440   11.0040    0.1100 C.3    14  VAL14       0.0023
     19  N        -15.1850   13.9810   -1.4180 N.am   15  GLY15      -0.1940
     20  CA       -14.0740   14.2000   -2.3260 C.3    15  GLY15       0.2014
     21  C        -14.0020   13.2390   -3.5010 C.2    15  GLY15       0.2639
     22  O        -13.0070   13.2210   -4.2280 O.2    15  GLY15      -0.2714
     23  N        -15.0490   12.4430   -3.7110 N.am   16  LYS16      -0.1963
     24  CA       -15.0190   11.4380   -4.7720 C.3    16  LYS16       0.1728
     25  C        -14.6600   12.0640   -6.1100 C.2    16  LYS16       0.2617
     26  O        -13.7070   11.6350   -6.7770 O.2    16  LYS16      -0.2715
     27  CB       -16.3720   10.7190   -4.8560 C.3    16  LYS16       0.0311
     28  CG       -16.6420    9.8480   -3.6320 C.3    16  LYS16       0.0038
     29  CD       -17.8350    8.9590   -3.8290 C.3    16  LYS16       0.0206
     30  CE       -19.0970    9.7780   -3.8480 C.3    16  LYS16       0.1093
     31  NZ       -19.6340    9.6900   -5.1980 N.3    16  LYS16      -0.1314
     32  N        -15.4000   13.1000   -6.5050 N.am   17  THR17      -0.1937
     33  CA       -15.1510   13.7310   -7.7930 C.3    17  THR17       0.2028
     34  C        -13.7040   14.1910   -7.8940 C.2    17  THR17       0.2642
     35  O        -12.9740   13.7550   -8.7890 O.2    17  THR17      -0.2714
     36  CB       -16.1380   14.8770   -8.0050 C.3    17  THR17       0.1808
     37  OG1      -17.4600   14.3380   -7.9940 O.3    17  THR17      -0.2208
     38  CG2      -15.9260   15.5520   -9.3480 C.3    17  THR17       0.0379
     39  N        -13.2430   15.0120   -6.9430 N.am   18  VAL18      -0.1977
     40  CA       -11.8670   15.5020   -7.0160 C.3    18  VAL18       0.1596
     41  C        -10.8490   14.3540   -6.9570 C.2    18  VAL18       0.2287
     42  O         -9.7430   14.4690   -7.5010 O.2    18  VAL18      -0.2864
     43  CB       -11.6200   16.5670   -5.9230 C.3    18  VAL18       0.0276
     44  CG1      -11.6000   15.9540   -4.5170 C.3    18  VAL18       0.0022
     45  CG2      -10.3250   17.3340   -6.2040 C.3    18  VAL18       0.0022
     46  N        -20.2100    8.8240  -14.8640 N.3    38  LYS38      -0.1245
     47  CA       -21.0670    9.2590  -13.7580 C.3    38  LYS38       0.1561
     48  C        -22.4900    9.0290  -14.2390 C.2    38  LYS38       0.2260
     49  O        -23.1260    9.9390  -14.7890 O.2    38  LYS38      -0.2867
     50  CB       -20.8030   10.7180  -13.3810 C.3    38  LYS38       0.0271
     51  CG       -21.8250   11.3560  -12.4190 C.3    38  LYS38       0.0035
     52  CD       -21.3830   11.2560  -10.9690 C.3    38  LYS38       0.0206
     53  CE       -22.3690   11.9730  -10.0610 C.3    38  LYS38       0.1093
     54  NZ       -21.8150   12.1260   -8.6970 N.3    38  LYS38      -0.1314
     55  N        -26.5190   12.0490  -12.2210 N.3    41  GLN41      -0.1231
     56  CA       -26.1290   13.3360  -11.6590 C.3    41  GLN41       0.1698
     57  C        -27.3900   14.0280  -11.1680 C.2    41  GLN41       0.2592
     58  O        -28.3020   14.3040  -11.9570 O.2    41  GLN41      -0.2718
     59  CB       -25.4120   14.2090  -12.7010 C.3    41  GLN41       0.0381
     60  CG       -25.1200   15.6460  -12.2530 C.3    41  GLN41       0.0905
     61  CD       -23.9600   15.7300  -11.2740 C.2    41  GLN41       0.2608
     62  OE1      -22.8120   15.4950  -11.6400 O.2    41  GLN41      -0.2717
     63  NE2      -24.2570   16.0640  -10.0240 N.am   41  GLN41      -0.0878
     64  N        -27.4510   14.3060   -9.8800 N.am   42  THR42      -0.1953
     65  CA       -28.5350   15.1130   -9.3590 C.3    42  THR42       0.1897
     66  C        -28.0240   16.5300   -9.1430 C.2    42  THR42       0.2313
     67  O        -26.8440   16.8310   -9.3450 O.2    42  THR42      -0.2863
     68  CB       -29.0780   14.5170   -8.0650 C.3    42  THR42       0.1794
     69  OG1      -28.0790   14.6490   -7.0550 O.3    42  THR42      -0.2208
     70  CG2      -29.4110   13.0500   -8.2490 C.3    42  THR42       0.0378
     71  N        -29.1220   23.6670   -9.6330 N.3    46  ARG46      -0.1245
     72  CA       -28.0690   24.4460   -8.9900 C.3    46  ARG46       0.1563
     73  C        -26.7020   24.2760   -9.6640 C.2    46  ARG46       0.2260
     74  O        -25.7110   24.8320   -9.1690 O.2    46  ARG46      -0.2867
     75  CB       -27.9990   24.1050   -7.4870 C.3    46  ARG46       0.0307
     76  CG       -27.0880   22.9390   -7.0660 C.3    46  ARG46       0.0489
     77  CD       -27.2760   22.5640   -5.5750 C.3    46  ARG46       0.2205
     78  NE       -26.5820   21.3230   -5.1960 N.pl3  46  ARG46      -0.0865
     79  CZ       -26.6700   20.7360   -4.0020 C.cat  46  ARG46       0.5346
     80  NH1      -26.0050   19.6080   -3.7550 N.pl3  46  ARG46       0.1354
     81  NH2      -27.4260   21.2750   -3.0500 N.pl3  46  ARG46       0.1354
     82  N        -24.7230   21.4260  -10.4650 N.3    48  ASP48      -0.1239
     83  CA       -23.7730   20.3490  -10.1900 C.3    48  ASP48       0.1674
     84  C        -23.5090   19.5370  -11.4530 C.2    48  ASP48       0.2266
     85  O        -24.4480   19.1130  -12.1360 O.2    48  ASP48      -0.2867
     86  CB       -24.2990   19.4200   -9.0970 C.3    48  ASP48       0.1410
     87  CG       -24.6940   20.1650   -7.8320 C.2    48  ASP48       0.3668
     88  OD1      -24.3540   21.3590   -7.7100 O.co2  48  ASP48      -0.2456
     89  OD2      -25.3600   19.5560   -6.9650 O.co2  48  ASP48      -0.2456
     90  N        -20.3900   16.7540  -12.1040 N.3    50  ASP50      -0.1239
     91  CA       -19.1230   16.1970  -11.6450 C.3    50  ASP50       0.1674
     92  C        -18.2050   15.8950  -12.8140 C.2    50  ASP50       0.2266
     93  O        -16.9820   16.0550  -12.7070 O.2    50  ASP50      -0.2867
     94  CB       -19.3620   14.9450  -10.8070 C.3    50  ASP50       0.1410
     95  CG       -19.9010   15.2710   -9.4460 C.2    50  ASP50       0.3668
     96  OD1      -19.9250   16.4820   -9.1090 O.co2  50  ASP50      -0.2456
     97  OD2      -20.2990   14.3320   -8.7230 O.co2  50  ASP50      -0.2456
     98  N        -18.0390    6.9520  -10.8920 N.3   109  GLU109     -0.1245
     99  CA       -18.5740    7.6080   -9.7020 C.3   109  GLU109      0.1567
    100  C        -20.0830    7.4420   -9.6800 C.2   109  GLU109      0.2260
    101  O        -20.7640    7.8360  -10.6330 O.2   109  GLU109     -0.2867
    102  CB       -18.2240    9.0960   -9.6420 C.3   109  GLU109      0.0388
    103  CG       -18.9270    9.8230   -8.4700 C.3   109  GLU109      0.1160
    104  CD       -18.4590   11.2840   -8.2470 C.2   109  GLU109      0.3649
    105  OE1      -18.9770   11.9530   -7.3230 O.co2 109  GLU109     -0.2457
    106  OE2      -17.5700   11.7620   -8.9690 O.co2 109  GLU109     -0.2457
    107  N        -23.2230    8.0610   -6.6070 N.3   111  ALA111     -0.1231
    108  CA       -23.6820    9.2340   -5.8760 C.3   111  ALA111      0.1694
    109  C        -23.6660    8.9050   -4.3920 C.2   111  ALA111      0.2592
    110  O        -24.1580    7.8470   -3.9950 O.2   111  ALA111     -0.2718
    111  CB       -25.0850    9.6420   -6.3200 C.3   111  ALA111      0.0304
    112  N        -23.0880    9.7900   -3.5810 N.am  112  GLY112     -0.1957
    113  CA       -23.0810    9.5540   -2.1430 C.3   112  GLY112      0.1869
    114  C        -22.2720    8.3250   -1.7630 C.2   112  GLY112      0.2309
    115  O        -21.2330    8.0190   -2.3610 O.2   112  GLY112     -0.2863
    116  N         -9.6110   21.1580   -5.5750 N.3   202  ALA202     -0.1245
    117  CA       -10.5850   21.4220   -6.6290 C.3   202  ALA202      0.1562
    118  C        -10.5630   22.8660   -7.1210 C.2   202  ALA202      0.2260
    119  O        -11.2270   23.1750   -8.1170 O.2   202  ALA202     -0.2867
    120  CB       -11.9930   21.0700   -6.1440 C.3   202  ALA202      0.0290
@<TRIPOS>BOND
     1    46    47    1
     2    49    48    2
     3    48    47    1
     4    47    50    1
     5    50    51    1
     6    92    93    2
     7    92    91    1
     8    59    60    1
     9    59    56    1
    10    51    52    1
    11    60    61    1
    12    55    56    1
    13    85    84    2
    14    90    91    1
    15    58    57    2
    16    56    57    1
    17    91    94    1
    18    62    61    2
    19    84    83    1
    20    61    63   am
    21    57    64   am
    22    52    53    1
    23    98    99    1
    24    94    95    1
    25   101   100    2
    26    82    83    1
    27    83    86    1
    28    53    54    1
    29    64    65    1
    30    99   100    1
    31    99   102    1
    32    73    74    2
    33    73    72    1
    34   102   103    1
    35    71    72    1
    36    95    96   ar
    37    95    97   ar
    38    65    66    1
    39    65    68    1
    40    38    36    1
    41    67    66    2
    42    86    87    1
    43    72    75    1
    44   106   104   ar
    45    35    34    2
    46   103   104    1
    47    70    68    1
    48   104   105   ar
    49   119   118    2
    50    68    69    1
    51    36    37    1
    52    36    33    1
    53    34    33    1
    54    34    39   am
    55    87    88   ar
    56    87    89   ar
    57    33    32    1
    58    42    41    2
    59    75    76    1
    60   118   117    1
    61    76    77    1
    62    40    41    1
    63    40    39    1
    64    40    43    1
    65    26    25    2
    66   117   120    1
    67   117   116    1
    68   107   108    1
    69    32    25   am
    70   111   108    1
    71    45    43    1
    72    25    24    1
    73    43    44    1
    74   108   109    1
    75    77    78    1
    76    31    30    1
    77    78    79    2
    78    27    24    1
    79    27    28    1
    80    24    23    1
    81   109   110    2
    82   109   112   am
    83    22    21    2
    84    79    80    1
    85    79    81    1
    86    30    29    1
    87    29    28    1
    88    23    21   am
    89   112   113    1
    90    21    20    1
    91   115   114    2
    92    20    19    1
    93   113   114    1
    94    19    14   am
    95     6     5    1
    96     8     9    1
    97     8     3   am
    98     9    10    1
    99    14    15    2
   100    14    13    1
   101    12    10   am
   102    12    13    1
   103    18    16    1
   104     5     2    1
   105     5     7    1
   106     2     3    1
   107     2     1    1
   108    10    11    2
   109     3     4    2
   110    13    16    1
   111    16    17    1
