@<TRIPOS>MOLECULE
tmp/6czdD00.pdb
 142 134 0 0 0
SMALL
GASTEIGER

@<TRIPOS>ATOM
      1  N        -22.0410   11.3670    1.2450 N.3    13  THR13      -0.1203
      2  CA       -22.0590   12.5010    0.3320 C.3    13  THR13       0.1994
      3  C        -20.9430   13.4940    0.6540 C.2    13  THR13       0.2618
      4  O        -20.5390   13.6700    1.8090 O.2    13  THR13      -0.2717
      5  CB       -23.4000   13.2250    0.4040 C.3    13  THR13       0.1784
      6  OG1      -23.8200   13.5920   -0.9110 O.3    13  THR13      -0.2211
      7  CG2      -23.2680   14.5000    1.2350 C.3    13  THR13       0.0376
      8  N        -20.4530   14.1550   -0.3910 N.am   14  GLY14      -0.1942
      9  CA       -19.5930   15.3140   -0.2000 C.3    14  GLY14       0.2014
     10  C        -18.3060   15.0200    0.5310 C.2    14  GLY14       0.2639
     11  O        -17.8280   15.8520    1.3090 O.2    14  GLY14      -0.2714
     12  N        -17.7350   13.8390    0.3120 N.am   15  VAL15      -0.1963
     13  CA       -16.4630   13.4850    0.9040 C.3    15  VAL15       0.1727
     14  C        -15.3070   13.7460   -0.0450 C.2    15  VAL15       0.2617
     15  O        -14.1390   13.5640    0.3340 O.2    15  VAL15      -0.2715
     16  CB       -16.5120   12.0150    1.3740 C.3    15  VAL15       0.0290
     17  CG1      -17.6700   11.8360    2.3420 C.3    15  VAL15       0.0023
     18  CG2      -16.6960   11.0770    0.1970 C.3    15  VAL15       0.0023
     19  N        -15.6020   14.1930   -1.2610 N.am   16  GLY16      -0.1940
     20  CA       -14.6000   14.4900   -2.2560 C.3    16  GLY16       0.2014
     21  C        -14.4530   13.4620   -3.3580 C.2    16  GLY16       0.2639
     22  O        -13.3910   13.4130   -3.9830 O.2    16  GLY16      -0.2714
     23  N        -15.4760   12.6400   -3.6140 N.am   17  LYS17      -0.1963
     24  CA       -15.3400   11.5780   -4.6060 C.3    17  LYS17       0.1728
     25  C        -14.9530   12.1530   -5.9540 C.2    17  LYS17       0.2616
     26  O        -13.9670   11.7190   -6.5730 O.2    17  LYS17      -0.2715
     27  CB       -16.6430   10.7850   -4.7230 C.3    17  LYS17       0.0311
     28  CG       -16.9870    9.9450   -3.4760 C.3    17  LYS17       0.0038
     29  CD       -18.1950    9.0560   -3.7510 C.3    17  LYS17       0.0206
     30  CE       -19.4500    9.8760   -4.0880 C.3    17  LYS17       0.1093
     31  NZ       -19.8810   10.7780   -2.9740 N.3    17  LYS17      -0.1314
     32  N        -15.6980   13.1720   -6.3970 N.am   18  THR18      -0.1951
     33  CA       -15.4510   13.7660   -7.7020 C.3    18  THR18       0.1897
     34  C        -14.0320   14.2950   -7.7960 C.2    18  THR18       0.2313
     35  O        -13.3110   13.9730   -8.7440 O.2    18  THR18      -0.2863
     36  CB       -16.4790   14.8560   -7.9760 C.3    18  THR18       0.1794
     37  OG1      -17.7760   14.2480   -7.9980 O.3    18  THR18      -0.2208
     38  CG2      -16.2220   15.5200   -9.3250 C.3    18  THR18       0.0378
     39  N        -20.3110    8.9040  -14.7900 N.3    39  LYS39      -0.1245
     40  CA       -21.2140    9.3030  -13.7080 C.3    39  LYS39       0.1561
     41  C        -22.6310    9.0710  -14.2110 C.2    39  LYS39       0.2260
     42  O        -23.2520    9.9760  -14.7910 O.2    39  LYS39      -0.2867
     43  CB       -20.9950   10.7540  -13.3000 C.3    39  LYS39       0.0271
     44  CG       -22.0750   11.3670  -12.3950 C.3    39  LYS39       0.0035
     45  CD       -21.6830   11.3140  -10.9500 C.3    39  LYS39       0.0206
     46  CE       -22.4680   12.3100  -10.1230 C.3    39  LYS39       0.1093
     47  NZ       -22.0580   12.1870   -8.7180 N.3    39  LYS39      -0.1314
     48  N        -26.6690   12.1800  -12.2560 N.3    42  GLN42      -0.1231
     49  CA       -26.2700   13.4710  -11.6990 C.3    42  GLN42       0.1698
     50  C        -27.5130   14.2150  -11.2130 C.2    42  GLN42       0.2592
     51  O        -28.4290   14.4870  -11.9980 O.2    42  GLN42      -0.2718
     52  CB       -25.5090   14.2850  -12.7550 C.3    42  GLN42       0.0381
     53  CG       -25.2340   15.7240  -12.3970 C.3    42  GLN42       0.0905
     54  CD       -24.1800   15.8600  -11.3200 C.2    42  GLN42       0.2608
     55  OE1      -23.0060   15.5890  -11.5460 O.2    42  GLN42      -0.2717
     56  NE2      -24.5980   16.2810  -10.1420 N.am   42  GLN42      -0.0878
     57  N        -27.5530   14.5450   -9.9270 N.am   43  THR43      -0.1953
     58  CA       -28.6660   15.3100   -9.3840 C.3    43  THR43       0.1897
     59  C        -28.2440   16.7770   -9.2330 C.2    43  THR43       0.2313
     60  O        -27.1090   17.1550   -9.5240 O.2    43  THR43      -0.2863
     61  CB       -29.1470   14.7020   -8.0560 C.3    43  THR43       0.1794
     62  OG1      -28.1030   14.7570   -7.0880 O.3    43  THR43      -0.2208
     63  CG2      -29.5230   13.2560   -8.2360 C.3    43  THR43       0.0378
     64  N        -29.2730   23.7630   -9.7800 N.3    47  ARG47      -0.1245
     65  CA       -28.2820   24.6140   -9.1380 C.3    47  ARG47       0.1563
     66  C        -26.8890   24.4430   -9.7550 C.2    47  ARG47       0.2260
     67  O        -25.8960   24.9100   -9.1790 O.2    47  ARG47      -0.2867
     68  CB       -28.2590   24.3600   -7.6220 C.3    47  ARG47       0.0307
     69  CG       -27.5190   23.1090   -7.1790 C.3    47  ARG47       0.0489
     70  CD       -27.5930   22.9020   -5.6730 C.3    47  ARG47       0.2205
     71  NE       -26.7430   21.7840   -5.2630 N.pl3  47  ARG47      -0.0865
     72  CZ       -26.7410   21.2340   -4.0500 C.cat  47  ARG47       0.5346
     73  NH1      -25.9250   20.2140   -3.7830 N.pl3  47  ARG47       0.1354
     74  NH2      -27.5610   21.6930   -3.1090 N.pl3  47  ARG47       0.1354
     75  N        -24.9910   21.6180  -10.5730 N.3    49  ASP49      -0.1239
     76  CA       -24.0780   20.5270  -10.2380 C.3    49  ASP49       0.1674
     77  C        -23.7540   19.7000  -11.4740 C.2    49  ASP49       0.2266
     78  O        -24.6550   19.2330  -12.1840 O.2    49  ASP49      -0.2867
     79  CB       -24.6750   19.6100   -9.1740 C.3    49  ASP49       0.1410
     80  CG       -24.8320   20.2840   -7.8470 C.2    49  ASP49       0.3668
     81  OD1      -24.2340   21.3620   -7.6480 O.co2  49  ASP49      -0.2456
     82  OD2      -25.5670   19.7290   -7.0040 O.co2  49  ASP49      -0.2456
     83  N        -20.7120   16.8850  -12.0450 N.3    51  ASP51      -0.1239
     84  CA       -19.4970   16.2290  -11.5820 C.3    51  ASP51       0.1674
     85  C        -18.5600   15.8850  -12.7280 C.2    51  ASP51       0.2266
     86  O        -17.3400   15.9620  -12.5560 O.2    51  ASP51      -0.2867
     87  CB       -19.8390   14.9820  -10.7620 C.3    51  ASP51       0.1410
     88  CG       -20.2030   15.3180   -9.3390 C.2    51  ASP51       0.3668
     89  OD1      -20.1530   16.5220   -8.9910 O.co2  51  ASP51      -0.2456
     90  OD2      -20.5300   14.3970   -8.5660 O.co2  51  ASP51      -0.2456
     91  N        -31.5990   18.7780   -5.8320 N.3    73  PRO73      -0.2102
     92  CA       -30.3840   18.3620   -5.1060 C.3    73  PRO73       0.1504
     93  C        -30.6830   17.3330   -4.0100 C.2    73  PRO73       0.2576
     94  O        -30.4530   17.5620   -2.8150 O.2    73  PRO73      -0.2718
     95  CB       -29.8680   19.6980   -4.5560 C.3    73  PRO73       0.0282
     96  CG       -31.1130   20.5240   -4.3210 C.3    73  PRO73       0.0208
     97  CD       -32.1230   20.0750   -5.3600 C.3    73  PRO73       0.0893
     98  N        -31.2010   16.1760   -4.4190 N.am   74  MET74      -0.1966
     99  CA       -31.6250   15.1110   -3.5230 C.3    74  MET74       0.1736
    100  C        -30.8890   13.8280   -3.8690 C.2    74  MET74       0.2616
    101  O        -30.1070   13.7680   -4.8180 O.2    74  MET74      -0.2715
    102  CB       -33.1390   14.8870   -3.6040 C.3    74  MET74       0.0427
    103  CG       -33.9540   16.1500   -3.4800 C.3    74  MET74       0.0599
    104  SD       -35.6990   15.8810   -3.1050 S.3    74  MET74      -0.1393
    105  CE       -36.2720   15.1300   -4.5790 C.3    74  MET74       0.0692
    106  N        -31.1390   12.7970   -3.0730 N.am   75  ALA75      -0.1964
    107  CA       -30.6820   11.4760   -3.4490 C.3    75  ALA75       0.1713
    108  C        -31.2480   11.1400   -4.8230 C.2    75  ALA75       0.2458
    109  O        -32.3710   11.5580   -5.1410 O.2    75  ALA75      -0.2730
    110  CB       -31.1270   10.4400   -2.4170 C.3    75  ALA75       0.0333
    111  N        -30.4910   10.4370   -5.6810 N.am   76  PRO76      -0.2727
    112  CA       -31.0100   10.1250   -7.0230 C.3    76  PRO76       0.1402
    113  C        -32.4370    9.6030   -7.0160 C.2    76  PRO76       0.2269
    114  O        -33.2840   10.0830   -7.7850 O.2    76  PRO76      -0.2865
    115  CB       -30.0160    9.0750   -7.5350 C.3    76  PRO76       0.0296
    116  CG       -28.7180    9.4250   -6.8580 C.3    76  PRO76       0.0237
    117  CD       -29.0950    9.9820   -5.5010 C.3    76  PRO76       0.0939
    118  N        -18.2910    6.9950  -10.8160 N.3   110  GLU110     -0.1245
    119  CA       -18.7910    7.6860   -9.6340 C.3   110  GLU110      0.1567
    120  C        -20.2900    7.4690   -9.5530 C.2   110  GLU110      0.2260
    121  O        -21.0120    7.7790  -10.5050 O.2   110  GLU110     -0.2867
    122  CB       -18.4750    9.1850   -9.6530 C.3   110  GLU110      0.0388
    123  CG       -19.1610    9.9510   -8.5150 C.3   110  GLU110      0.1160
    124  CD       -18.6450   11.3820   -8.2940 C.2   110  GLU110      0.3649
    125  OE1      -19.1130   12.0370   -7.3460 O.co2 110  GLU110     -0.2457
    126  OE2      -17.7680   11.8600   -9.0290 O.co2 110  GLU110     -0.2457
    127  N        -23.3960    8.2150   -6.5030 N.3   112  ALA112     -0.1231
    128  CA       -23.7840    9.4140   -5.7760 C.3   112  ALA112      0.1694
    129  C        -23.7730    9.0830   -4.2920 C.2   112  ALA112      0.2592
    130  O        -24.3470    8.0740   -3.8800 O.2   112  ALA112     -0.2718
    131  CB       -25.1690    9.9170   -6.2170 C.3   112  ALA112      0.0304
    132  N        -23.0960    9.9080   -3.5010 N.am  113  GLY113     -0.1957
    133  CA       -23.0460    9.6660   -2.0710 C.3   113  GLY113      0.1869
    134  C        -22.3050    8.3910   -1.6960 C.2   113  GLY113      0.2309
    135  O        -21.2650    8.0350   -2.2730 O.2   113  GLY113     -0.2863
    136  N        -26.2360    4.0120   -1.8050 N.3   117  VAL117     -0.1245
    137  CA       -27.2550    4.8300   -2.4580 C.3   117  VAL117      0.1561
    138  C        -27.8110    4.0970   -3.6740 C.2   117  VAL117      0.2260
    139  O        -27.0790    3.4270   -4.4150 O.2   117  VAL117     -0.2867
    140  CB       -26.6710    6.1980   -2.8530 C.3   117  VAL117      0.0252
    141  CG1      -27.7260    7.0540   -3.5760 C.3   117  VAL117      0.0019
    142  CG2      -26.1350    6.9290   -1.6150 C.3   117  VAL117      0.0019
@<TRIPOS>BOND
     1    42    41    2
     2    39    40    1
     3    41    40    1
     4    40    43    1
     5    43    44    1
     6    52    53    1
     7    52    49    1
     8    85    86    2
     9    85    84    1
    10    53    54    1
    11    44    45    1
    12    48    49    1
    13    78    77    2
    14    83    84    1
    15    51    50    2
    16    49    50    1
    17    84    87    1
    18    55    54    2
    19    77    76    1
    20    54    56   am
    21    50    57   am
    22    45    46    1
    23   118   119    1
    24    87    88    1
    25    75    76    1
    26   121   120    2
    27    76    79    1
    28    46    47    1
    29    57    58    1
    30    64    65    1
    31    66    67    2
    32    66    65    1
    33   122   119    1
    34   122   123    1
    35   119   120    1
    36    60    59    2
    37    58    59    1
    38    58    61    1
    39    88    89   ar
    40    88    90   ar
    41    38    36    1
    42    79    80    1
    43    65    68    1
    44   126   124   ar
    45    35    34    2
    46   123   124    1
    47   124   125   ar
    48    63    61    1
    49    61    62    1
    50    37    36    1
    51    36    33    1
    52    80    81   ar
    53    80    82   ar
    54    34    33    1
    55   114   113    2
    56    33    32    1
    57    68    69    1
    58   115   112    1
    59   115   116    1
    60    69    70    1
    61   112   113    1
    62   112   111    1
    63   116   117    1
    64    26    25    2
    65   127   128    1
    66    32    25   am
    67   131   128    1
    68    25    24    1
    69    91    97    1
    70    91    92    1
    71   128   129    1
    72   111   117    1
    73   111   108   am
    74    70    71    1
    75    97    96    1
    76    71    72    2
    77   109   108    2
    78    92    95    1
    79    92    93    1
    80   108   107    1
    81   101   100    2
    82    27    24    1
    83    27    28    1
    84    24    23    1
    85   105   104    1
    86    95    96    1
    87    98    93   am
    88    98    99    1
    89   139   138    2
    90   129   130    2
    91   129   132   am
    92    30    29    1
    93    30    31    1
    94    72    73    1
    95    72    74    1
    96    93    94    2
    97    22    21    2
    98   100    99    1
    99   100   106   am
   100    29    28    1
   101   138   137    1
   102    23    21   am
   103   102    99    1
   104   102   103    1
   105   141   140    1
   106   132   133    1
   107   103   104    1
   108   107   106    1
   109   107   110    1
   110    21    20    1
   111   140   137    1
   112   140   142    1
   113   137   136    1
   114   135   134    2
   115    20    19    1
   116   133   134    1
   117    19    14   am
   118     6     5    1
   119     8     9    1
   120     8     3   am
   121     9    10    1
   122    14    15    2
   123    14    13    1
   124    18    16    1
   125    12    10   am
   126    12    13    1
   127     2     5    1
   128     2     3    1
   129     2     1    1
   130     5     7    1
   131    10    11    2
   132     3     4    2
   133    13    16    1
   134    16    17    1
