@<TRIPOS>MOLECULE
tmp/6czeC00.pdb
 145 132 0 0 0
SMALL
GASTEIGER

@<TRIPOS>ATOM
      1  N        -21.2810    9.8720   15.3440 N.3    12  THR12      -0.1203
      2  CA       -21.1430   10.7670   16.4820 C.3    12  THR12       0.1994
      3  C        -22.2220   11.8440   16.4540 C.2    12  THR12       0.2618
      4  O        -22.6760   12.2710   15.3880 O.2    12  THR12      -0.2717
      5  CB       -19.7620   11.4380   16.4400 C.3    12  THR12       0.1784
      6  OG1      -18.7430   10.4430   16.2580 O.3    12  THR12      -0.2211
      7  CG2      -19.4910   12.2610   17.7000 C.3    12  THR12       0.0376
      8  N        -22.6090   12.3000   17.6410 N.am   13  GLY13      -0.1942
      9  CA       -23.5220   13.4290   17.7800 C.3    13  GLY13       0.2014
     10  C        -24.8320   13.3230   17.0260 C.2    13  GLY13       0.2639
     11  O        -25.2890   14.3200   16.4610 O.2    13  GLY13      -0.2714
     12  N        -25.4540   12.1400   17.0060 N.am   14  VAL14      -0.1963
     13  CA       -26.7350   11.9500   16.3190 C.3    14  VAL14       0.1727
     14  C        -27.9210   11.9650   17.2740 C.2    14  VAL14       0.2617
     15  O        -29.0670   11.8290   16.8260 O.2    14  VAL14      -0.2715
     16  CB       -26.7630   10.6370   15.5010 C.3    14  VAL14       0.0290
     17  CG1      -25.8460   10.7060   14.2870 C.3    14  VAL14       0.0023
     18  CG2      -26.4050    9.4450   16.3850 C.3    14  VAL14       0.0023
     19  N        -27.6890   12.0940   18.5750 N.am   15  GLY15      -0.1940
     20  CA       -28.7750   12.0650   19.5350 C.3    15  GLY15       0.2014
     21  C        -28.9790   10.7820   20.3100 C.2    15  GLY15       0.2639
     22  O        -30.0670   10.5910   20.8640 O.2    15  GLY15      -0.2714
     23  N        -27.9780    9.9020   20.3630 N.am   16  LYS16      -0.1963
     24  CA       -28.1300    8.6490   21.0980 C.3    16  LYS16       0.1728
     25  C        -28.5370    8.9010   22.5460 C.2    16  LYS16       0.2617
     26  O        -29.4950    8.2980   23.0480 O.2    16  LYS16      -0.2715
     27  CB       -26.8320    7.8450   21.0330 C.3    16  LYS16       0.0311
     28  CG       -26.4850    7.3360   19.6450 C.3    16  LYS16       0.0038
     29  CD       -25.1720    6.5820   19.7030 C.3    16  LYS16       0.0206
     30  CE       -24.0740    7.4440   20.2910 C.3    16  LYS16       0.1093
     31  NZ       -23.5790    8.4480   19.2940 N.3    16  LYS16      -0.1314
     32  N        -27.8340    9.8190   23.2230 N.am   17  THR17      -0.1937
     33  CA       -28.1100   10.0850   24.6410 C.3    17  THR17       0.2028
     34  C        -29.5260   10.6100   24.8700 C.2    17  THR17       0.2642
     35  O        -30.1710   10.2570   25.8670 O.2    17  THR17      -0.2714
     36  CB       -27.0980   11.0820   25.2030 C.3    17  THR17       0.1808
     37  OG1      -25.7910   10.5030   25.1570 O.3    17  THR17      -0.2208
     38  CG2      -27.4500   11.4460   26.6430 C.3    17  THR17       0.0379
     39  N        -30.0200   11.4810   23.9850 N.am   18  VAL18      -0.1977
     40  CA       -31.3590   12.0160   24.2120 C.3    18  VAL18       0.1596
     41  C        -32.4210   10.9880   23.8220 C.2    18  VAL18       0.2287
     42  O        -33.4990   10.9370   24.4350 O.2    18  VAL18      -0.2864
     43  CB       -31.5330   13.3670   23.4870 C.3    18  VAL18       0.0276
     44  CG1      -33.0070   13.7350   23.3680 C.3    18  VAL18       0.0022
     45  CG2      -30.7800   14.4500   24.2410 C.3    18  VAL18       0.0022
     46  N        -23.3280    3.4880   30.2190 N.3    38  LYS38      -0.1245
     47  CA       -22.4470    4.1220   29.2390 C.3    38  LYS38       0.1561
     48  C        -21.0300    3.6830   29.5790 C.2    38  LYS38       0.2260
     49  O        -20.3150    4.3580   30.3320 O.2    38  LYS38      -0.2867
     50  CB       -22.5850    5.6480   29.2680 C.3    38  LYS38       0.0271
     51  CG       -21.5440    6.4340   28.4660 C.3    38  LYS38       0.0035
     52  CD       -21.9480    6.6810   27.0080 C.3    38  LYS38       0.0206
     53  CE       -21.1010    7.8230   26.4450 C.3    38  LYS38       0.1093
     54  NZ       -20.9690    7.8600   24.9530 N.3    38  LYS38      -0.1314
     55  N        -16.9960    6.6540   27.9660 N.3    41  GLN41      -0.1231
     56  CA       -17.3230    8.0640   27.8080 C.3    41  GLN41       0.1698
     57  C        -16.0780    8.8240   27.3770 C.2    41  GLN41       0.2592
     58  O        -15.0210    8.6970   28.0080 O.2    41  GLN41      -0.2718
     59  CB       -17.8620    8.6440   29.1190 C.3    41  GLN41       0.0381
     60  CG       -17.9950   10.1480   29.1180 C.3    41  GLN41       0.0905
     61  CD       -19.2920   10.5850   28.4960 C.2    41  GLN41       0.2608
     62  OE1      -20.3640   10.2150   28.9670 O.2    41  GLN41      -0.2717
     63  NE2      -19.2070   11.3500   27.4150 N.am   41  GLN41      -0.0878
     64  N        -16.2020    9.6050   26.3050 N.am   42  THR42      -0.1953
     65  CA       -15.1740   10.5360   25.8530 C.3    42  THR42       0.1897
     66  C        -15.6780   11.9620   26.0340 C.2    42  THR42       0.2313
     67  O        -16.8460   12.1930   26.3670 O.2    42  THR42      -0.2863
     68  CB       -14.8080   10.2990   24.3780 C.3    42  THR42       0.1794
     69  OG1      -15.9800   10.4320   23.5680 O.3    42  THR42      -0.2208
     70  CG2      -14.2150    8.9120   24.1700 C.3    42  THR42       0.0378
     71  N        -14.6740   18.6570   27.3390 N.3    46  ARG46      -0.1245
     72  CA       -15.7190   19.4980   26.7760 C.3    46  ARG46       0.1563
     73  C        -16.8970   19.6690   27.7320 C.2    46  ARG46       0.2260
     74  O        -17.7690   20.5090   27.4880 O.2    46  ARG46      -0.2867
     75  CB       -16.1600   18.8550   25.4470 C.3    46  ARG46       0.0307
     76  CG       -17.2760   19.5000   24.6810 C.3    46  ARG46       0.0489
     77  CD       -17.3500   18.9240   23.2620 C.3    46  ARG46       0.2205
     78  NE       -17.8580   17.5600   23.2070 N.pl3  46  ARG46      -0.0865
     79  CZ       -18.1390   16.9020   22.0830 C.cat  46  ARG46       0.5346
     80  NH1      -17.9540   17.4800   20.9030 N.pl3  46  ARG46       0.1354
     81  NH2      -18.5970   15.6560   22.1430 N.pl3  46  ARG46       0.1354
     82  N        -18.7320   16.8080   28.5230 N.3    48  ASP48      -0.1239
     83  CA       -19.6230   15.6940   28.2180 C.3    48  ASP48       0.1674
     84  C        -19.7980   14.7910   29.4350 C.2    48  ASP48       0.2266
     85  O        -18.8440   14.4950   30.1560 O.2    48  ASP48      -0.2867
     86  CB       -19.0780   14.8640   27.0520 C.3    48  ASP48       0.1410
     87  CG       -19.2630   15.5350   25.7000 C.2    48  ASP48       0.3668
     88  OD1      -19.6730   16.7160   25.6250 O.co2  48  ASP48      -0.2456
     89  OD2      -18.9800   14.8600   24.6950 O.co2  48  ASP48      -0.2456
     90  N        -22.8140   11.7360   29.3790 N.3    50  ASP50      -0.1239
     91  CA       -24.1140   11.3060   28.8580 C.3    50  ASP50       0.1674
     92  C        -24.9890   10.6770   29.9340 C.2    50  ASP50       0.2266
     93  O        -26.2240   10.7390   29.8430 O.2    50  ASP50      -0.2867
     94  CB       -23.9250   10.3150   27.7140 C.3    50  ASP50       0.1410
     95  CG       -23.1460   10.8990   26.5580 C.2    50  ASP50       0.3668
     96  OD1      -22.6020   12.0200   26.6840 O.co2  50  ASP50      -0.2456
     97  OD2      -23.0880   10.2320   25.5110 O.co2  50  ASP50      -0.2456
     98  N        -26.6090   13.6000   31.7390 N.3    53  GLU53      -0.1245
     99  CA       -27.6650   14.2010   30.9240 C.3    53  GLU53       0.1567
    100  C        -28.9560   13.3740   30.9650 C.2    53  GLU53       0.2260
    101  O        -30.0570   13.9370   30.9820 O.2    53  GLU53      -0.2867
    102  CB       -27.1570   14.3730   29.4910 C.3    53  GLU53       0.0388
    103  CG       -28.0450   15.1950   28.5650 C.3    53  GLU53       0.1160
    104  CD       -27.3840   15.4580   27.1910 C.2    53  GLU53       0.3649
    105  OE1      -26.1830   15.1100   26.9980 O.co2  53  GLU53      -0.2457
    106  OE2      -28.0750   16.0160   26.3030 O.co2  53  GLU53      -0.2457
    107  N        -25.4020    2.6080   25.8940 N.3   109  GLU109     -0.1245
    108  CA       -24.9600    3.5340   24.8620 C.3   109  GLU109      0.1567
    109  C        -23.4930    3.2750   24.5380 C.2   109  GLU109      0.2260
    110  O        -22.6510    3.2190   25.4400 O.2   109  GLU109     -0.2867
    111  CB       -25.1650    4.9900   25.2870 C.3   109  GLU109      0.0388
    112  CG       -24.4570    5.9730   24.3500 C.3   109  GLU109      0.1160
    113  CD       -24.8230    7.4420   24.5580 C.2   109  GLU109      0.3649
    114  OE1      -25.6930    7.7460   25.3970 O.co2 109  GLU109     -0.2457
    115  OE2      -24.2380    8.2950   23.8530 O.co2 109  GLU109     -0.2457
    116  N        -20.1620    6.8200   19.6240 N.3   112  GLY112     -0.1225
    117  CA       -20.1620    7.0380   18.1820 C.3   112  GLY112      0.1811
    118  C        -20.9140    5.9350   17.4620 C.2   112  GLY112      0.2280
    119  O        -21.9430    5.4330   17.9390 O.2   112  GLY112     -0.2866
    120  N        -30.1930   10.3440   11.6390 N.3   141  THR141     -0.1218
    121  CA       -30.6580   11.6910   11.3060 C.3   141  THR141      0.1862
    122  C        -31.6060   11.6550   10.1100 C.2   141  THR141      0.2287
    123  O        -31.7130   10.6560    9.3950 O.2   141  THR141     -0.2866
    124  CB       -29.5100   12.6560   10.9690 C.3   141  THR141      0.1770
    125  OG1      -28.9910   12.3600    9.6570 O.3   141  THR141     -0.2211
    126  CG2      -28.4100   12.6190   12.0060 C.3   141  THR141      0.0375
    127  N        -33.0710   11.1530   15.6370 N.3   170  GLY170     -0.1210
    128  CA       -32.6270   11.8160   16.8510 C.3   170  GLY170      0.1956
    129  C        -33.0400   13.2630   16.9540 C.2   170  GLY170      0.2612
    130  O        -33.0200   13.8260   18.0520 O.2   170  GLY170     -0.2717
    131  N        -33.3810   13.8850   15.8300 N.am  171  SER171     -0.1952
    132  CA       -33.8450   15.2670   15.8030 C.3   171  SER171      0.1924
    133  C        -34.7510   15.4270   14.5930 C.2   171  SER171      0.2314
    134  O        -34.3120   15.2170   13.4580 O.2   171  SER171     -0.2863
    135  CB       -32.6760   16.2460   15.7360 C.3   171  SER171      0.2116
    136  OG       -33.1630   17.5650   15.5960 O.3   171  SER171     -0.2180
    137  N        -34.3840   20.3340   19.5190 N.3   200  GLY200     -0.1225
    138  CA       -34.3400   20.9760   20.8210 C.3   200  GLY200      0.1811
    139  C        -34.8800   20.1520   21.9790 C.2   200  GLY200      0.2280
    140  O        -35.1290   20.7060   23.0610 O.2   200  GLY200     -0.2866
    141  N        -33.3120   18.0830   23.8300 N.3   202  ALA202     -0.1245
    142  CA       -32.3160   18.0880   24.9000 C.3   202  ALA202      0.1562
    143  C        -32.3020   19.3840   25.7070 C.2   202  ALA202      0.2260
    144  O        -31.6070   19.4500   26.7290 O.2   202  ALA202     -0.2867
    145  CB       -30.9260   17.8430   24.3110 C.3   202  ALA202      0.0290
@<TRIPOS>BOND
     1   123   122    2
     2   125   124    1
     3   122   121    1
     4   124   121    1
     5   124   126    1
     6   121   120    1
     7   134   133    2
     8    17    16    1
     9   133   132    1
    10     1     2    1
    11     4     3    2
    12    16    13    1
    13    16    18    1
    14   136   135    1
    15   127   128    1
    16   135   132    1
    17   132   131    1
    18   131   129   am
    19     6     5    1
    20    13    12    1
    21    13    14    1
    22     5     2    1
    23     5     7    1
    24     3     2    1
    25     3     8   am
    26    11    10    2
    27    15    14    2
    28   128   129    1
    29   129   130    2
    30    12    10   am
    31    10     9    1
    32    14    19   am
    33   118   119    2
    34   118   117    1
    35     8     9    1
    36   117   116    1
    37    19    20    1
    38    31    30    1
    39   137   138    1
    40    20    21    1
    41    28    29    1
    42    28    27    1
    43    29    30    1
    44    21    23   am
    45    21    22    2
    46    23    24    1
    47   138   139    1
    48    80    79    1
    49    27    24    1
    50    24    25    1
    51   139   140    2
    52    79    81    1
    53    79    78    2
    54    25    26    2
    55    25    32   am
    56    78    77    1
    57    32    33    1
    58    77    76    1
    59    44    43    1
    60    43    40    1
    61    43    45    1
    62    69    68    1
    63    41    40    1
    64    41    42    2
    65   141   142    1
    66   115   113   ar
    67    39    40    1
    68    39    34   am
    69    70    68    1
    70   145   142    1
    71   112   113    1
    72   112   111    1
    73    68    65    1
    74   109   108    1
    75   109   110    2
    76   113   114   ar
    77    33    34    1
    78    33    36    1
    79    76    75    1
    80    89    87   ar
    81   108   111    1
    82   108   107    1
    83    34    35    2
    84   142   143    1
    85    54    53    1
    86    37    36    1
    87    36    38    1
    88    75    72    1
    89    97    95   ar
    90    88    87   ar
    91    87    86    1
    92   143   144    2
    93    65    66    1
    94    65    64    1
    95    66    67    2
    96   106   104   ar
    97    64    57   am
    98    53    52    1
    99    95    96   ar
   100    95    94    1
   101    72    71    1
   102    72    73    1
   103   105   104   ar
   104    52    51    1
   105    86    83    1
   106   104   103    1
   107    57    56    1
   108    57    58    2
   109    63    61   am
   110    74    73    2
   111    94    91    1
   112    56    55    1
   113    56    59    1
   114    83    82    1
   115    83    84    1
   116    51    50    1
   117    61    62    2
   118    61    60    1
   119   103   102    1
   120    91    90    1
   121    91    92    1
   122    60    59    1
   123    47    50    1
   124    47    48    1
   125    47    46    1
   126    84    85    2
   127   102    99    1
   128    48    49    2
   129    93    92    2
   130    99   100    1
   131    99    98    1
   132   100   101    2
