@<TRIPOS>MOLECULE
tmp/6czfA00.pdb
 108 104 0 0 0
SMALL
GASTEIGER

@<TRIPOS>ATOM
      1  N        -18.4600   31.0450  -20.5110 N.3    44  LEU44      -0.1231
      2  CA       -18.7890   29.6780  -20.8690 C.3    44  LEU44       0.1693
      3  C        -19.2870   29.5890  -22.3020 C.2    44  LEU44       0.2592
      4  O        -19.9600   30.4930  -22.8090 O.2    44  LEU44      -0.2718
      5  CB       -19.8430   29.1310  -19.9050 C.3    44  LEU44       0.0284
      6  CG       -20.6180   27.8830  -20.3090 C.3    44  LEU44       0.0019
      7  CD1      -19.7250   26.6650  -20.2020 C.3    44  LEU44       0.0001
      8  CD2      -21.8490   27.7360  -19.4320 C.3    44  LEU44       0.0001
      9  N        -18.9430   28.4660  -22.9280 N.am   45  ARG45      -0.1966
     10  CA       -19.4230   28.0890  -24.2520 C.3    45  ARG45       0.1729
     11  C        -19.4350   26.5750  -24.2490 C.2    45  ARG45       0.2616
     12  O        -18.3680   25.9540  -24.1470 O.2    45  ARG45      -0.2715
     13  CB       -18.5300   28.6400  -25.3550 C.3    45  ARG45       0.0348
     14  CG       -18.8270   28.0270  -26.7150 C.3    45  ARG45       0.0492
     15  CD       -20.3150   28.1670  -27.0730 C.3    45  ARG45       0.2205
     16  NE       -20.6300   27.6430  -28.4050 N.pl3  45  ARG45      -0.0865
     17  CZ       -21.8580   27.4020  -28.8640 C.cat  45  ARG45       0.5346
     18  NH1      -22.9290   27.6260  -28.1120 N.pl3  45  ARG45       0.1354
     19  NH2      -22.0180   26.9250  -30.0940 N.pl3  45  ARG45       0.1354
     20  N        -20.6240   25.9780  -24.3280 N.am   46  LYS46      -0.1963
     21  CA       -20.7860   24.5310  -24.4260 C.3    46  LYS46       0.1728
     22  C        -21.9500   24.2080  -25.3580 C.2    46  LYS46       0.2616
     23  O        -22.9560   24.9200  -25.3750 O.2    46  LYS46      -0.2715
     24  CB       -21.0260   23.8850  -23.0590 C.3    46  LYS46       0.0311
     25  CG       -22.2440   24.3910  -22.2860 C.3    46  LYS46       0.0038
     26  CD       -22.5020   23.4750  -21.0850 C.3    46  LYS46       0.0206
     27  CE       -23.4340   24.1120  -20.0710 C.3    46  LYS46       0.1093
     28  NZ       -23.7480   23.1930  -18.9450 N.3    46  LYS46      -0.1314
     29  N        -21.8060   23.1230  -26.1240 N.am   47  ALA47      -0.1963
     30  CA       -22.8360   22.7250  -27.0810 C.3    47  ALA47       0.1728
     31  C        -22.5200   21.3240  -27.5830 C.2    47  ALA47       0.2616
     32  O        -21.4340   20.7840  -27.3490 O.2    47  ALA47      -0.2715
     33  CB       -22.9340   23.7110  -28.2510 C.3    47  ALA47       0.0334
     34  N        -23.4910   20.7430  -28.2910 N.am   48  ASN48      -0.1972
     35  CA       -23.2990   19.4130  -28.8550 C.3    48  ASN48       0.1688
     36  C        -22.3740   19.4580  -30.0540 C.2    48  ASN48       0.2292
     37  O        -22.3060   20.4500  -30.7900 O.2    48  ASN48      -0.2864
     38  CB       -24.6170   18.7910  -29.3020 C.3    48  ASN48       0.1181
     39  CG       -25.5300   18.5260  -28.1730 C.2    48  ASN48       0.2629
     40  OD1      -26.5310   19.2130  -28.0510 O.2    48  ASN48      -0.2716
     41  ND2      -25.2010   17.5510  -27.3170 N.am   48  ASN48      -0.0877
     42  N        -16.7940   33.7060  -32.4440 N.3    58  ARG58      -0.1231
     43  CA       -17.5630   34.5180  -31.5020 C.3    58  ARG58       0.1694
     44  C        -17.5100   33.9430  -30.0920 C.2    58  ARG58       0.2592
     45  O        -17.5160   34.6870  -29.1070 O.2    58  ARG58      -0.2718
     46  CB       -19.0160   34.6410  -31.9690 C.3    58  ARG58       0.0321
     47  CG       -19.8770   33.3630  -31.8930 C.3    58  ARG58       0.0489
     48  CD       -21.2620   33.6210  -32.5000 C.3    58  ARG58       0.2205
     49  NE       -22.1180   32.4370  -32.5640 N.pl3  58  ARG58      -0.0865
     50  CZ       -22.0360   31.5050  -33.5060 C.cat  58  ARG58       0.5346
     51  NH1      -21.1250   31.5990  -34.4650 N.pl3  58  ARG58       0.1354
     52  NH2      -22.8600   30.4680  -33.4900 N.pl3  58  ARG58       0.1354
     53  N        -17.4900   32.6240  -29.9670 N.am   59  HIS59      -0.1976
     54  CA       -17.4530   32.0300  -28.6440 C.3    59  HIS59       0.1656
     55  C        -16.0860   32.1830  -27.9850 C.2    59  HIS59       0.2291
     56  O        -16.0000   32.1430  -26.7520 O.2    59  HIS59      -0.2864
     57  CB       -17.8310   30.5640  -28.7490 C.3    59  HIS59       0.0771
     58  CG       -19.1480   30.3200  -29.4180 C.ar   59  HIS59       0.0820
     59  ND1      -19.2660   29.6000  -30.5870 N.ar   59  HIS59      -0.2267
     60  CD2      -20.4070   30.6880  -29.0760 C.ar   59  HIS59       0.1154
     61  CE1      -20.5390   29.5330  -30.9370 C.ar   59  HIS59       0.1986
     62  NE2      -21.2540   30.1760  -30.0310 N.ar   59  HIS59      -0.2212
     63  N        -15.3430   35.4690  -26.3190 N.3    62  ARG62      -0.1245
     64  CA       -16.0590   35.4460  -25.0570 C.3    62  ARG62       0.1563
     65  C        -15.2520   34.7790  -23.9540 C.2    62  ARG62       0.2260
     66  O        -15.3860   35.1500  -22.7840 O.2    62  ARG62      -0.2867
     67  CB       -17.3860   34.7250  -25.2590 C.3    62  ARG62       0.0307
     68  CG       -18.0950   34.3390  -23.9950 C.3    62  ARG62       0.0489
     69  CD       -19.2120   33.3740  -24.3430 C.3    62  ARG62       0.2205
     70  NE       -20.0790   33.9090  -25.3940 N.pl3  62  ARG62      -0.0865
     71  CZ       -21.0420   33.2150  -25.9960 C.cat  62  ARG62       0.5346
     72  NH1      -21.2540   31.9540  -25.6540 N.pl3  62  ARG62       0.1354
     73  NH2      -21.7910   33.7770  -26.9350 N.pl3  62  ARG62       0.1354
     74  N        -26.8310   12.8560  -25.6320 N.3    81  SER81      -0.1202
     75  CA       -26.5800   13.8940  -26.6250 C.3    81  SER81       0.2020
     76  C        -27.6030   15.0030  -26.5170 C.2    81  SER81       0.2619
     77  O        -27.2790   16.1900  -26.6990 O.2    81  SER81      -0.2717
     78  CB       -26.6050   13.2740  -28.0200 C.3    81  SER81       0.2103
     79  OG       -26.3200   14.2380  -29.0150 O.3    81  SER81      -0.2182
     80  N        -28.8550   14.6250  -26.2300 N.am   82  ALA82      -0.1965
     81  CA       -29.9380   15.5660  -26.0630 C.3    82  ALA82       0.1728
     82  C        -29.9440   16.2300  -24.7140 C.2    82  ALA82       0.2617
     83  O        -30.7560   17.1410  -24.5600 O.2    82  ALA82      -0.2715
     84  CB       -31.3110   14.9280  -26.2160 C.3    82  ALA82       0.0334
     85  N        -28.9790   15.9600  -23.8410 N.am   83  SER83      -0.1936
     86  CA       -28.8820   16.6590  -22.5690 C.3    83  SER83       0.2055
     87  C        -27.8680   17.8040  -22.6150 C.2    83  SER83       0.2642
     88  O        -26.9850   17.8630  -23.4740 O.2    83  SER83      -0.2714
     89  CB       -28.4950   15.6860  -21.4570 C.3    83  SER83       0.2130
     90  OG       -27.8220   16.3570  -20.4090 O.3    83  SER83      -0.2179
     91  N        -28.0340   18.7250  -21.6660 N.am   84  GLU84      -0.1976
     92  CA       -27.0430   19.7440  -21.3570 C.3    84  GLU84       0.1602
     93  C        -25.6750   19.1180  -21.0950 C.2    84  GLU84       0.2287
     94  O        -25.5580   18.1260  -20.3680 O.2    84  GLU84      -0.2864
     95  CB       -27.5320   20.5090  -20.1230 C.3    84  GLU84       0.0415
     96  CG       -26.6430   21.6110  -19.6040 C.3    84  GLU84       0.1163
     97  CD       -27.2340   22.3060  -18.3830 C.2    84  GLU84       0.3649
     98  OE1      -28.3670   21.9680  -17.9700 O.co2  84  GLU84      -0.2457
     99  OE2      -26.5550   23.1930  -17.8310 O.co2  84  GLU84      -0.2457
    100  N        -36.2680   15.1980  -30.1400 N.3   492  GLN492     -0.1245
    101  CA       -35.4990   16.1070  -30.9830 C.3   492  GLN492      0.1566
    102  C        -35.6480   15.7530  -32.4640 C.2   492  GLN492      0.2260
    103  O        -35.8660   16.6460  -33.2830 O.2   492  GLN492     -0.2867
    104  CB       -34.0190   16.0820  -30.6080 C.3   492  GLN492      0.0367
    105  CG       -33.6090   16.8950  -29.4370 C.3   492  GLN492      0.0905
    106  CD       -32.1030   17.0630  -29.3050 C.2   492  GLN492      0.2608
    107  OE1      -31.3220   16.5400  -30.0990 O.2   492  GLN492     -0.2717
    108  NE2      -31.6940   17.8100  -28.2870 N.am  492  GLN492     -0.0878
@<TRIPOS>BOND
     1    51    50    1
     2    50    52    1
     3    50    49    2
     4   103   102    2
     5    49    48    1
     6    48    47    1
     7   102   101    1
     8    42    43    1
     9    46    47    1
    10    46    43    1
    11    43    44    1
    12   101   104    1
    13   101   100    1
    14    61    59   ar
    15    61    62   ar
    16    37    36    2
    17   104   105    1
    18    59    58   ar
    19   107   106    2
    20    19    17    1
    21    44    53   am
    22    44    45    2
    23    36    35    1
    24    62    60   ar
    25    53    54    1
    26   105   106    1
    27    58    60   ar
    28    58    57    1
    29   106   108   am
    30    38    35    1
    31    38    39    1
    32    79    78    1
    33    17    16    2
    34    17    18    1
    35    35    34    1
    36    57    54    1
    37    54    55    1
    38    16    15    1
    39    34    31   am
    40    33    30    1
    41    39    40    2
    42    39    41   am
    43    78    75    1
    44    55    56    2
    45    31    32    2
    46    31    30    1
    47    30    29    1
    48    15    14    1
    49    73    71    1
    50    14    13    1
    51    77    76    2
    52    75    76    1
    53    75    74    1
    54    76    80   am
    55    63    64    1
    56    80    81    1
    57    84    81    1
    58    29    22   am
    59    81    82    1
    60    71    72    1
    61    71    70    2
    62    70    69    1
    63    23    22    2
    64    22    21    1
    65    13    10    1
    66    67    64    1
    67    67    68    1
    68    64    65    1
    69    82    83    2
    70    82    85   am
    71    21    20    1
    72    21    24    1
    73    69    68    1
    74    20    11   am
    75    10    11    1
    76    10     9    1
    77    11    12    2
    78    65    66    2
    79    85    86    1
    80    88    87    2
    81    24    25    1
    82     9     3   am
    83     4     3    2
    84    87    86    1
    85    87    91   am
    86    86    89    1
    87     3     2    1
    88    25    26    1
    89    91    92    1
    90    89    90    1
    91    92    93    1
    92    92    95    1
    93    93    94    2
    94    26    27    1
    95     2     1    1
    96     2     5    1
    97     6     7    1
    98     6     5    1
    99     6     8    1
   100    95    96    1
   101    27    28    1
   102    96    97    1
   103    97    98   ar
   104    97    99   ar
