@<TRIPOS>MOLECULE
tmp/6czhB00.pdb
 164 152 0 0 0
SMALL
GASTEIGER

@<TRIPOS>ATOM
      1  N         71.6300   31.0110    3.2880 N.3    14  VAL14      -0.1245
      2  CA        72.3870   31.6130    4.3770 C.3    14  VAL14       0.1561
      3  C         73.7280   30.9090    4.5050 C.2    14  VAL14       0.2260
      4  O         73.7980   29.6740    4.4810 O.2    14  VAL14      -0.2867
      5  CB        71.6080   31.5530    5.7050 C.3    14  VAL14       0.0252
      6  CG1       72.4430   32.1230    6.8380 C.3    14  VAL14       0.0019
      7  CG2       70.2940   32.3140    5.5730 C.3    14  VAL14       0.0019
      8  N         77.0710   31.3710    7.2440 N.3    16  MET16      -0.1230
      9  CA        77.4600   32.0210    8.4850 C.3    16  MET16       0.1702
     10  C         78.8800   31.6210    8.8590 C.2    16  MET16       0.2593
     11  O         79.3990   30.5940    8.4130 O.2    16  MET16      -0.2718
     12  CB        76.5200   31.6590    9.6410 C.3    16  MET16       0.0401
     13  CG        75.0860   32.1180    9.4680 C.3    16  MET16       0.0596
     14  SD        74.6800   33.4610   10.6090 S.3    16  MET16      -0.1393
     15  CE        72.8980   33.5030   10.4420 C.3    16  MET16       0.0692
     16  N         79.5000   32.4610    9.6820 N.am   17  THR17      -0.1939
     17  CA        80.7960   32.1930   10.2880 C.3    17  THR17       0.2028
     18  C         80.7000   32.5960   11.7520 C.2    17  THR17       0.2642
     19  O         80.0520   33.5940   12.0800 O.2    17  THR17      -0.2714
     20  CB        81.9330   32.9640    9.5980 C.3    17  THR17       0.1808
     21  OG1       81.6690   34.3720    9.6630 O.3    17  THR17      -0.2208
     22  CG2       82.0590   32.5440    8.1400 C.3    17  THR17       0.0379
     23  N         81.3160   31.8180   12.6330 N.am   18  ASN18      -0.1971
     24  CA        81.2400   32.1000   14.0610 C.3    18  ASN18       0.1688
     25  C         82.6380   32.3290   14.6270 C.2    18  ASN18       0.2292
     26  O         83.6490   32.1960   13.9340 O.2    18  ASN18      -0.2864
     27  CB        80.5020   30.9840   14.8120 C.3    18  ASN18       0.1181
     28  CG        81.2570   29.6660   14.8270 C.2    18  ASN18       0.2629
     29  OD1       82.4560   29.6090   14.5540 O.2    18  ASN18      -0.2716
     30  ND2       80.5510   28.5930   15.1670 N.am   18  ASN18      -0.0877
     31  N         81.9990   27.3700    9.9820 N.3    23  THR23      -0.1203
     32  CA        81.0660   27.9510    9.0300 C.3    23  THR23       0.1994
     33  C         79.7860   27.1340    9.0520 C.2    23  THR23       0.2619
     34  O         79.7630   25.9890    9.5110 O.2    23  THR23      -0.2717
     35  CB        81.6290   28.0010    7.5940 C.3    23  THR23       0.1784
     36  OG1       81.8890   26.6720    7.1270 O.3    23  THR23      -0.2211
     37  CG2       82.9130   28.8090    7.5510 C.3    23  THR23       0.0376
     38  N         78.7110   27.7400    8.5610 N.am   24  SER24      -0.1937
     39  CA        77.4310   27.0580    8.4740 C.3    24  SER24       0.2055
     40  C         76.7710   27.4150    7.1530 C.2    24  SER24       0.2643
     41  O         77.0510   28.4600    6.5610 O.2    24  SER24      -0.2714
     42  CB        76.5110   27.4230    9.6440 C.3    24  SER24       0.2130
     43  OG        76.1380   28.7890    9.5870 O.3    24  SER24      -0.2179
     44  N         75.9050   26.5250    6.6850 N.am   25  GLN25      -0.1963
     45  CA        75.1540   26.7630    5.4660 C.3    25  GLN25       0.1733
     46  C         73.7340   26.2650    5.6700 C.2    25  GLN25       0.2617
     47  O         73.5040   25.2800    6.3750 O.2    25  GLN25      -0.2715
     48  CB        75.8060   26.0690    4.2620 C.3    25  GLN25       0.0408
     49  CG        75.8760   24.5590    4.4010 C.3    25  GLN25       0.0908
     50  CD        76.9030   23.8950    3.4360 C.2    25  GLN25       0.2608
     51  OE1       78.1560   24.1610    3.4980 O.2    25  GLN25      -0.2717
     52  NE2       76.3940   22.9290    2.6420 N.am   25  GLN25      -0.0878
     53  N         72.7830   26.9630    5.0620 N.am   26  GLY26      -0.1940
     54  CA        71.3900   26.5630    5.2000 C.3    26  GLY26       0.2014
     55  C         70.4490   27.5930    4.6160 C.2    26  GLY26       0.2639
     56  O         70.7770   28.2750    3.6380 O.2    26  GLY26      -0.2714
     57  N         69.2680   27.6880    5.2270 N.am   27  GLN27      -0.1963
     58  CA        68.2280   28.6000    4.7800 C.3    27  GLN27       0.1733
     59  C         67.5650   29.2620    5.9780 C.2    27  GLN27       0.2616
     60  O         67.5020   28.6970    7.0730 O.2    27  GLN27      -0.2715
     61  CB        67.1440   27.8800    3.9570 C.3    27  GLN27       0.0408
     62  CG        67.6410   27.2120    2.6870 C.3    27  GLN27       0.0908
     63  CD        68.3520   25.8960    2.9510 C.2    27  GLN27       0.2608
     64  OE1       67.9660   25.1320    3.8400 O.2    27  GLN27      -0.2717
     65  NE2       69.4040   25.6310    2.1860 N.am   27  GLN27      -0.0878
     66  N         67.0550   30.4630    5.7510 N.am   28  MET28      -0.1977
     67  CA        66.1190   31.0960    6.6650 C.3    28  MET28       0.1605
     68  C         64.8550   31.4280    5.8950 C.2    28  MET28       0.2287
     69  O         64.9120   31.7920    4.7160 O.2    28  MET28      -0.2864
     70  CB        66.7020   32.3550    7.2930 C.3    28  MET28       0.0413
     71  CG        67.8430   32.0720    8.2430 C.3    28  MET28       0.0598
     72  SD        68.4860   33.5810    8.9790 S.3    28  MET28      -0.1393
     73  CE        69.7280   32.9010   10.0770 C.3    28  MET28       0.0692
     74  N         64.7180   28.4520   10.7680 N.3    42  ALA42      -0.1231
     75  CA        66.0450   28.2840   10.1960 C.3    42  ALA42       0.1694
     76  C         66.4380   26.8150   10.2030 C.2    42  ALA42       0.2591
     77  O         66.1380   26.0860   11.1510 O.2    42  ALA42      -0.2718
     78  CB        67.0830   29.0970   10.9720 C.3    42  ALA42       0.0304
     79  N         67.1200   26.3980    9.1390 N.am   43  GLN43      -0.1979
     80  CA        67.6730   25.0590    9.0150 C.3    43  GLN43       0.1601
     81  C         69.0680   25.1480    8.4220 C.2    43  GLN43       0.2287
     82  O         69.3360   25.9930    7.5660 O.2    43  GLN43      -0.2864
     83  CB        66.8370   24.1640    8.1030 C.3    43  GLN43       0.0394
     84  CG        65.4530   23.8750    8.5690 C.3    43  GLN43       0.0908
     85  CD        64.8400   22.7710    7.7430 C.2    43  GLN43       0.2608
     86  OE1       64.7690   22.8670    6.5160 O.2    43  GLN43      -0.2717
     87  NE2       64.4190   21.7060    8.4020 N.am   43  GLN43      -0.0878
     88  N         76.2870   23.0880   10.7690 N.3    46  ILE46      -0.1245
     89  CA        77.5810   23.7000   11.0320 C.3    46  ILE46       0.1561
     90  C         78.6840   22.7890   10.5010 C.2    46  ILE46       0.2260
     91  O         78.5010   21.5810   10.3320 O.2    46  ILE46      -0.2867
     92  CB        77.7560   23.9900   12.5320 C.3    46  ILE46       0.0252
     93  CG1       76.5420   24.7550   13.0620 C.3    46  ILE46       0.0019
     94  CG2       79.0260   24.7880   12.7850 C.3    46  ILE46       0.0019
     95  CD1       76.6150   25.0840   14.5380 C.3    46  ILE46       0.0001
     96  N         77.2960   19.6580   13.4610 N.3    50  ARG50      -0.1245
     97  CA        76.1380   19.9180   14.3150 C.3    50  ARG50       0.1563
     98  C         74.9750   20.4420   13.4760 C.2    50  ARG50       0.2260
     99  O         75.1620   21.3600   12.6690 O.2    50  ARG50      -0.2867
    100  CB        76.4920   20.9040   15.4300 C.3    50  ARG50       0.0307
    101  CG        77.2190   20.2420   16.6060 C.3    50  ARG50       0.0489
    102  CD        77.5970   21.2220   17.7090 C.3    50  ARG50       0.2205
    103  NE        78.5450   22.2340   17.2470 N.pl3  50  ARG50      -0.0865
    104  CZ        78.4170   23.5410   17.4570 C.cat  50  ARG50       0.5346
    105  NH1       77.3870   24.0090   18.1460 N.pl3  50  ARG50       0.1354
    106  NH2       79.3300   24.3810   16.9850 N.pl3  50  ARG50       0.1354
    107  N         71.4450   22.4420   12.5670 N.3    52  ILE52      -0.1245
    108  CA        70.8320   23.7100   12.9490 C.3    52  ILE52       0.1561
    109  C         69.3310   23.6210   12.7130 C.2    52  ILE52       0.2260
    110  O         68.8840   23.3950   11.5810 O.2    52  ILE52      -0.2867
    111  CB        71.4240   24.8950   12.1720 C.3    52  ILE52       0.0252
    112  CG1       72.9300   24.9880   12.4040 C.3    52  ILE52       0.0019
    113  CG2       70.7300   26.2010   12.5800 C.3    52  ILE52       0.0019
    114  CD1       73.6210   25.9340   11.4460 C.3    52  ILE52       0.0001
    115  N         67.6230   28.0370   19.1610 N.3    72  TYR72      -0.1241
    116  CA        68.0540   26.8540   18.4170 C.3    72  TYR72       0.1605
    117  C         67.9050   25.6190   19.2950 C.2    72  TYR72       0.2264
    118  O         68.8200   25.2760   20.0610 O.2    72  TYR72      -0.2867
    119  CB        69.4910   27.0140   17.9230 C.3    72  TYR72       0.0534
    120  CG        69.6390   28.0990   16.8780 C.ar   72  TYR72      -0.0201
    121  CD1       69.9740   29.3930   17.2410 C.ar   72  TYR72      -0.0009
    122  CD2       69.4290   27.8280   15.5320 C.ar   72  TYR72      -0.0009
    123  CE1       70.1060   30.3920   16.2920 C.ar   72  TYR72       0.0417
    124  CE2       69.5560   28.8200   14.5720 C.ar   72  TYR72       0.0417
    125  CZ        69.8930   30.1020   14.9610 C.ar   72  TYR72       0.1957
    126  OH        70.0250   31.0980   14.0210 O.3    72  TYR72      -0.2866
    127  N         70.7480   23.1470   19.0920 N.3    75  LEU75      -0.1245
    128  CA        72.0180   23.5370   19.6950 C.3    75  LEU75       0.1561
    129  C         71.8750   23.7700   21.1970 C.2    75  LEU75       0.2260
    130  O         72.4980   24.6700   21.7600 O.2    75  LEU75      -0.2867
    131  CB        72.5720   24.7910   19.0220 C.3    75  LEU75       0.0270
    132  CG        72.8310   24.7240   17.5150 C.3    75  LEU75       0.0019
    133  CD1       73.2200   26.0920   16.9750 C.3    75  LEU75       0.0001
    134  CD2       73.9070   23.6980   17.2110 C.3    75  LEU75       0.0001
    135  N         70.4370   27.3980   22.7940 N.3    78  ILE78      -0.1245
    136  CA        71.1440   28.6670   22.8270 C.3    78  ILE78       0.1561
    137  C         70.2900   29.7040   22.1050 C.2    78  ILE78       0.2260
    138  O         69.4910   29.3790   21.2170 O.2    78  ILE78      -0.2867
    139  CB        72.5400   28.5710   22.1880 C.3    78  ILE78       0.0252
    140  CG1       72.4270   28.4120   20.6720 C.3    78  ILE78       0.0019
    141  CG2       73.3350   27.4210   22.7890 C.3    78  ILE78       0.0019
    142  CD1       73.7630   28.4080   19.9620 C.3    78  ILE78       0.0001
    143  N         70.2070   33.5440   20.0330 N.3    80  VAL80      -0.1245
    144  CA        70.9790   34.4920   19.2420 C.3    80  VAL80       0.1561
    145  C         70.1600   35.7650   19.0970 C.2    80  VAL80       0.2260
    146  O         68.9530   35.7080   18.8360 O.2    80  VAL80      -0.2867
    147  CB        71.3590   33.9260   17.8600 C.3    80  VAL80       0.0252
    148  CG1       71.9470   35.0240   16.9840 C.3    80  VAL80       0.0019
    149  CG2       72.3480   32.7800   18.0140 C.3    80  VAL80       0.0019
    150  N         75.7810   35.1010   20.3300 N.3    98  THR98      -0.1218
    151  CA        75.1020   33.9610   20.9320 C.3    98  THR98       0.1862
    152  C         75.1310   34.0570   22.4550 C.2    98  THR98       0.2287
    153  O         75.9600   34.7540   23.0460 O.2    98  THR98      -0.2866
    154  CB        75.7400   32.6400   20.4920 C.3    98  THR98       0.1770
    155  OG1       76.9550   32.4280   21.2230 O.3    98  THR98      -0.2211
    156  CG2       76.0530   32.6590   19.0040 C.3    98  THR98       0.0375
    157  N         78.4780   35.8570   15.8110 N.3   104  LEU104     -0.1245
    158  CA        77.9190   35.0770   14.7150 C.3   104  LEU104      0.1561
    159  C         77.5420   36.0280   13.5900 C.2   104  LEU104      0.2260
    160  O         76.6950   36.9080   13.7770 O.2   104  LEU104     -0.2867
    161  CB        76.7040   34.2740   15.1880 C.3   104  LEU104      0.0270
    162  CG        76.0710   33.2890   14.2090 C.3   104  LEU104      0.0019
    163  CD1       77.0210   32.1390   13.8960 C.3   104  LEU104      0.0001
    164  CD2       74.7510   32.7750   14.7700 C.3   104  LEU104      0.0001
@<TRIPOS>BOND
     1    65    63   am
     2    52    50   am
     3    62    63    1
     4    62    61    1
     5    63    64    2
     6     1     2    1
     7    50    51    2
     8    50    49    1
     9    56    55    2
    10    61    58    1
    11    48    49    1
    12    48    45    1
    13     2     3    1
    14     2     5    1
    15     4     3    2
    16    55    54    1
    17    55    57   am
    18    69    68    2
    19    58    57    1
    20    58    59    1
    21    53    54    1
    22    53    46   am
    23    45    46    1
    24    45    44    1
    25     7     5    1
    26    46    47    2
    27     5     6    1
    28    66    59   am
    29    66    67    1
    30    68    67    1
    31    59    60    2
    32    86    85    2
    33    41    40    2
    34    67    70    1
    35    44    40   am
    36    36    35    1
    37    40    39    1
    38     8     9    1
    39    70    71    1
    40    37    35    1
    41    82    81    2
    42    35    32    1
    43    85    87   am
    44    85    84    1
    45    83    84    1
    46    83    80    1
    47    22    20    1
    48    71    72    1
    49    11    10    2
    50    81    80    1
    51    39    38    1
    52    39    42    1
    53     9    10    1
    54     9    12    1
    55    38    33   am
    56    10    16   am
    57    72    73    1
    58    80    79    1
    59    32    33    1
    60    32    31    1
    61    33    34    2
    62    79    76   am
    63    13    12    1
    64    13    14    1
    65    43    42    1
    66    20    21    1
    67    20    17    1
    68    16    17    1
    69    75    76    1
    70    75    74    1
    71    75    78    1
    72    76    77    2
    73    17    18    1
    74    91    90    2
    75    15    14    1
    76    90    89    1
    77    88    89    1
    78    89    92    1
    79   114   112    1
    80   110   109    2
    81    18    19    2
    82    18    23   am
    83   111   112    1
    84   111   113    1
    85   111   108    1
    86    92    94    1
    87    92    93    1
    88   107   108    1
    89    23    24    1
    90    99    98    2
    91   109   108    1
    92    93    95    1
    93    96    97    1
    94    98    97    1
    95   159   160    2
    96   159   158    1
    97   163   162    1
    98    26    25    2
    99   126   125    1
   100    24    25    1
   101    24    27    1
   102   162   164    1
   103   162   161    1
   104    97   100    1
   105    29    28    2
   106   124   125   ar
   107   124   122   ar
   108   158   161    1
   109   158   157    1
   110    27    28    1
   111    28    30   am
   112   125   123   ar
   113   100   101    1
   114   122   120   ar
   115   123   121   ar
   116   101   102    1
   117   120   121   ar
   118   120   119    1
   119   133   132    1
   120   148   147    1
   121   106   104    1
   122   134   132    1
   123   103   104    2
   124   103   102    1
   125   104   105    1
   126   132   131    1
   127   147   149    1
   128   147   144    1
   129   119   116    1
   130   116   115    1
   131   116   117    1
   132   146   145    2
   133   156   154    1
   134   131   128    1
   135   127   128    1
   136   145   144    1
   137   144   143    1
   138   117   118    2
   139   128   129    1
   140   142   140    1
   141   150   151    1
   142   154   151    1
   143   154   155    1
   144   140   139    1
   145   151   152    1
   146   129   130    2
   147   138   137    2
   148   137   136    1
   149   139   141    1
   150   139   136    1
   151   152   153    2
   152   135   136    1
