@<TRIPOS>MOLECULE
tmp/6czmB00.pdb
 96 91 0 0 0
SMALL
GASTEIGER

@<TRIPOS>ATOM
      1  N         -3.0590   80.4060  -18.1570 N.3    12  MET12      -0.1245
      2  CA        -4.4630   80.1930  -18.4710 C.3    12  MET12       0.1570
      3  C         -5.3420   81.1160  -17.6340 C.2    12  MET12       0.2261
      4  O         -6.3230   81.6800  -18.1370 O.2    12  MET12      -0.2867
      5  CB        -4.8160   78.7210  -18.2370 C.3    12  MET12       0.0387
      6  CG        -6.1600   78.2930  -18.8010 C.3    12  MET12       0.0595
      7  SD        -6.1430   78.1030  -20.6080 S.3    12  MET12      -0.1393
      8  CE        -4.6940   77.0680  -20.8420 C.3    12  MET12       0.0692
      9  N         -7.1470   69.8330  -23.1600 N.3    67  ASP67      -0.1239
     10  CA        -6.3330   68.7600  -22.5880 C.3    67  ASP67       0.1674
     11  C         -6.8370   68.3520  -21.2040 C.2    67  ASP67       0.2266
     12  O         -7.0710   67.1640  -20.9370 O.2    67  ASP67      -0.2867
     13  CB        -4.8640   69.2030  -22.5270 C.3    67  ASP67       0.1410
     14  CG        -4.6670   70.5420  -21.8080 C.2    67  ASP67       0.3668
     15  OD1       -5.5610   71.4160  -21.8660 O.co2  67  ASP67      -0.2456
     16  OD2       -3.5970   70.7250  -21.1940 O.co2  67  ASP67      -0.2456
     17  N         -4.4670   79.5840  -24.9730 N.3    89  GLY89      -0.1210
     18  CA        -4.0590   78.2970  -24.4480 C.3    89  GLY89       0.1956
     19  C         -3.7150   77.3130  -25.5350 C.2    89  GLY89       0.2612
     20  O         -3.8740   76.1040  -25.3460 O.2    89  GLY89      -0.2717
     21  N         -3.2580   77.8130  -26.6790 N.am   90  ASP90      -0.1959
     22  CA        -2.9230   76.9730  -27.8200 C.3    90  ASP90       0.1840
     23  C         -1.7760   76.0270  -27.4990 C.2    90  ASP90       0.2622
     24  O         -0.6890   76.4550  -27.0950 O.2    90  ASP90      -0.2715
     25  CB        -2.5400   77.8660  -28.9920 C.3    90  ASP90       0.1450
     26  CG        -3.7320   78.4320  -29.6860 C.2    90  ASP90       0.3671
     27  OD1       -4.6460   77.6420  -29.9840 O.co2  90  ASP90      -0.2456
     28  OD2       -3.7780   79.6650  -29.8870 O.co2  90  ASP90      -0.2456
     29  N         -2.0100   74.7410  -27.7130 N.am   91  CYS91      -0.1968
     30  CA        -0.9570   73.7440  -27.5680 C.3    91  CYS91       0.1712
     31  C         -1.4480   72.4580  -28.2140 C.2    91  CYS91       0.2296
     32  O         -2.5820   72.3690  -28.6950 O.2    91  CYS91      -0.2864
     33  CB        -0.6110   73.5160  -26.0990 C.3    91  CYS91       0.0983
     34  SG        -2.0560   73.0410  -25.1160 S.3    91  CYS91      -0.0798
     35  N         11.1050   67.3650  -19.2270 N.3   136  GLU136     -0.1245
     36  CA        11.5950   67.4020  -20.6030 C.3   136  GLU136      0.1567
     37  C         12.9250   66.6770  -20.7690 C.2   136  GLU136      0.2260
     38  O         13.2150   66.1570  -21.8530 O.2   136  GLU136     -0.2867
     39  CB        11.7360   68.8530  -21.0550 C.3   136  GLU136      0.0388
     40  CG        10.7940   69.8070  -20.3460 C.3   136  GLU136      0.1160
     41  CD        11.4090   71.1750  -20.1460 C.2   136  GLU136      0.3649
     42  OE1       10.7460   72.1820  -20.4790 O.co2 136  GLU136     -0.2457
     43  OE2       12.5600   71.2420  -19.6610 O.co2 136  GLU136     -0.2457
     44  N          4.0410   65.1930  -23.6920 N.3   147  ASP147     -0.1225
     45  CA         3.8600   66.4820  -23.0440 C.3   147  ASP147      0.1805
     46  C          3.1770   67.4550  -24.0040 C.2   147  ASP147      0.2598
     47  O          2.8900   67.1370  -25.1680 O.2   147  ASP147     -0.2718
     48  CB         5.1960   67.0230  -22.5190 C.3   147  ASP147      0.1424
     49  CG         5.0150   68.0720  -21.4260 C.2   147  ASP147      0.3668
     50  OD1        3.8910   68.1800  -20.8860 O.co2 147  ASP147     -0.2456
     51  OD2        5.9940   68.7810  -21.1000 O.co2 147  ASP147     -0.2456
     52  N          2.8800   68.6420  -23.4760 N.am  148  LEU148     -0.1966
     53  CA         2.2520   69.7150  -24.2270 C.3   148  LEU148      0.1728
     54  C          3.3140   70.5260  -24.9550 C.2   148  LEU148      0.2616
     55  O          4.3240   70.9220  -24.3630 O.2   148  LEU148     -0.2715
     56  CB         1.4440   70.6060  -23.2840 C.3   148  LEU148      0.0311
     57  CG         0.3130   69.8610  -22.5710 C.3   148  LEU148      0.0022
     58  CD1       -0.2510   70.6820  -21.4250 C.3   148  LEU148      0.0001
     59  CD2       -0.7830   69.4920  -23.5670 C.3   148  LEU148      0.0001
     60  N          3.0840   70.7610  -26.2420 N.am  149  VAL149     -0.1963
     61  CA         3.9860   71.5280  -27.0900 C.3   149  VAL149      0.1727
     62  C          3.2180   72.7240  -27.6320 C.2   149  VAL149      0.2617
     63  O          2.1050   72.5720  -28.1520 O.2   149  VAL149     -0.2715
     64  CB         4.5480   70.6740  -28.2410 C.3   149  VAL149      0.0290
     65  CG1        5.5030   71.4960  -29.0800 C.3   149  VAL149      0.0023
     66  CG2        5.2270   69.4340  -27.7020 C.3   149  VAL149      0.0023
     67  N          3.8060   73.9090  -27.5050 N.am  150  SER150     -0.1936
     68  CA         3.1910   75.1140  -28.0430 C.3   150  SER150      0.2055
     69  C          4.0630   75.6660  -29.1610 C.2   150  SER150      0.2644
     70  O          3.7930   75.4250  -30.3410 O.2   150  SER150     -0.2714
     71  CB         2.9820   76.1570  -26.9420 C.3   150  SER150      0.2130
     72  OG         2.2180   77.2520  -27.4160 O.3   150  SER150     -0.2179
     73  N          5.1200   76.3940  -28.7970 N.am  151  SER151     -0.1935
     74  CA         6.0930   76.8900  -29.7650 C.3   151  SER151      0.2055
     75  C          7.1530   75.8550  -30.1220 C.2   151  SER151      0.2644
     76  O          7.8860   76.0560  -31.0970 O.2   151  SER151     -0.2714
     77  CB         6.7630   78.1700  -29.2470 C.3   151  SER151      0.2130
     78  OG         7.6400   77.9020  -28.1690 O.3   151  SER151     -0.2179
     79  N          7.2740   74.7760  -29.3500 N.am  152  GLY152     -0.1939
     80  CA         8.2410   73.7440  -29.6550 C.3   152  GLY152      0.2014
     81  C          9.6600   74.0440  -29.2390 C.2   152  GLY152      0.2640
     82  O         10.5570   73.2520  -29.5570 O.2   152  GLY152     -0.2714
     83  N          9.8970   75.1560  -28.5320 N.am  153  THR153     -0.1936
     84  CA        11.2610   75.5220  -28.1580 C.3   153  THR153      0.2028
     85  C         11.8380   74.5450  -27.1400 C.2   153  THR153      0.2642
     86  O         13.0200   74.1840  -27.2170 O.2   153  THR153     -0.2714
     87  CB        11.2820   76.9480  -27.5940 C.3   153  THR153      0.1808
     88  OG1       10.7360   77.8600  -28.5550 O.3   153  THR153     -0.2208
     89  CG2       12.6940   77.3750  -27.2630 C.3   153  THR153      0.0379
     90  N         11.0040   74.0640  -26.2130 N.am  154  THR154     -0.1950
     91  CA        11.4490   73.0650  -25.2450 C.3   154  THR154      0.1897
     92  C         11.9390   71.7940  -25.9310 C.2   154  THR154      0.2313
     93  O         12.8630   71.1420  -25.4360 O.2   154  THR154     -0.2863
     94  CB        10.3210   72.7500  -24.2600 C.3   154  THR154      0.1794
     95  OG1        9.0860   72.6220  -24.9780 O.3   154  THR154     -0.2208
     96  CG2       10.1880   73.8570  -23.2200 C.3   154  THR154      0.0378
@<TRIPOS>BOND
     1    76    75    2
     2    70    69    2
     3    75    74    1
     4    75    79   am
     5    27    26   ar
     6    28    26   ar
     7    74    77    1
     8    74    73    1
     9    26    25    1
    10    80    79    1
    11    80    81    1
    12    82    81    2
    13    77    78    1
    14    81    83   am
    15    69    73   am
    16    69    68    1
    17    65    64    1
    18    25    22    1
    19    32    31    2
    20    88    87    1
    21    83    84    1
    22    64    66    1
    23    64    61    1
    24    31    30    1
    25    84    87    1
    26    84    85    1
    27    63    62    2
    28    68    67    1
    29    68    71    1
    30    22    23    1
    31    22    21    1
    32    29    30    1
    33    29    23   am
    34    62    67   am
    35    62    61    1
    36    87    89    1
    37    30    33    1
    38    23    24    2
    39    72    71    1
    40    86    85    2
    41    85    90   am
    42    61    60    1
    43    21    19   am
    44    60    54   am
    45    90    91    1
    46    33    34    1
    47    92    93    2
    48    92    91    1
    49    19    20    2
    50    19    18    1
    51    91    94    1
    52    47    46    2
    53    95    94    1
    54    17    18    1
    55    54    55    2
    56    54    53    1
    57    94    96    1
    58    53    52    1
    59    53    56    1
    60    46    52   am
    61    46    45    1
    62    44    45    1
    63    59    57    1
    64    56    57    1
    65     9    10    1
    66    45    48    1
    67    10    13    1
    68    10    11    1
    69    57    58    1
    70    13    14    1
    71    48    49    1
    72    15    14   ar
    73    38    37    2
    74    14    16   ar
    75    49    51   ar
    76    49    50   ar
    77    11    12    2
    78    39    36    1
    79    39    40    1
    80     8     7    1
    81    37    36    1
    82     7     6    1
    83    36    35    1
    84    42    41   ar
    85    40    41    1
    86    41    43   ar
    87     6     5    1
    88     2     5    1
    89     2     1    1
    90     2     3    1
    91     4     3    2
