@<TRIPOS>MOLECULE
tmp/6czmE00.pdb
 104 99 0 0 0
SMALL
GASTEIGER

@<TRIPOS>ATOM
      1  N         15.7930   96.4120   14.9380 N.3    20  MET20      -0.1245
      2  CA        15.7210   96.0310   16.3370 C.3    20  MET20       0.1570
      3  C         15.1120   94.6430   16.4880 C.2    20  MET20       0.2261
      4  O         15.5340   93.8600   17.3470 O.2    20  MET20      -0.2867
      5  CB        14.9260   97.0760   17.1120 C.3    20  MET20       0.0387
      6  CG        15.0140   96.9420   18.6250 C.3    20  MET20       0.0595
      7  SD        16.4440   97.7960   19.3120 S.3    20  MET20      -0.1393
      8  CE        16.4450   99.3300   18.3820 C.3    20  MET20       0.0692
      9  N         15.4500  105.3560   23.2600 N.3    80  ASP80      -0.1239
     10  CA        14.7810  106.4750   22.5950 C.3    80  ASP80       0.1674
     11  C         13.2690  106.2760   22.5930 C.2    80  ASP80       0.2266
     12  O         12.5030  107.2030   22.8880 O.2    80  ASP80      -0.2867
     13  CB        15.2950  106.6300   21.1600 C.3    80  ASP80       0.1410
     14  CG        15.1660  105.3490   20.3520 C.2    80  ASP80       0.3668
     15  OD1       15.9610  104.4100   20.5670 O.co2  80  ASP80      -0.2456
     16  OD2       14.2440  105.2710   19.5180 O.co2  80  ASP80      -0.2456
     17  N         21.6970   98.1150   18.8580 N.3   102  GLY102     -0.1210
     18  CA        20.8500   99.2700   18.6620 C.3   102  GLY102      0.1956
     19  C         21.4990  100.5700   19.0620 C.2   102  GLY102      0.2612
     20  O         20.7970  101.5140   19.4300 O.2   102  GLY102     -0.2717
     21  N         22.8270  100.6360   19.0110 N.am  103  ASP103     -0.1959
     22  CA        23.5540  101.8410   19.3850 C.3   103  ASP103      0.1840
     23  C         23.1980  102.9990   18.4600 C.2   103  ASP103      0.2622
     24  O         23.2350  102.8590   17.2310 O.2   103  ASP103     -0.2715
     25  CB        25.0520  101.5650   19.3150 C.3   103  ASP103      0.1450
     26  CG        25.5750  100.8650   20.5360 C.2   103  ASP103      0.3671
     27  OD1       25.2870  101.3420   21.6520 O.co2 103  ASP103     -0.2456
     28  OD2       26.2360   99.8110   20.3800 O.co2 103  ASP103     -0.2456
     29  N         22.8190  104.1290   19.0510 N.am  104  CYS104     -0.1968
     30  CA        22.6180  105.3630   18.2930 C.3   104  CYS104      0.1712
     31  C         22.5340  106.5260   19.2750 C.2   104  CYS104      0.2296
     32  O         22.5450  106.3370   20.4940 O.2   104  CYS104     -0.2864
     33  CB        21.3620  105.3050   17.4290 C.3   104  CYS104      0.0983
     34  SG        19.8900  104.9630   18.3710 S.3   104  CYS104     -0.0798
     35  N         16.0610  113.2120    6.2690 N.3   169  GLU169     -0.1245
     36  CA        17.3520  113.8810    6.1180 C.3   169  GLU169      0.1567
     37  C         17.3570  114.8880    4.9700 C.2   169  GLU169      0.2260
     38  O         18.1270  115.8550    5.0020 O.2   169  GLU169     -0.2867
     39  CB        18.4550  112.8400    5.9220 C.3   169  GLU169      0.0388
     40  CG        18.1600  111.7810    4.8570 C.3   169  GLU169      0.1160
     41  CD        17.4660  110.5460    5.4210 C.2   169  GLU169      0.3649
     42  OE1       17.4040  109.5220    4.7090 O.co2 169  GLU169     -0.2457
     43  OE2       16.9820  110.5970    6.5750 O.co2 169  GLU169     -0.2457
     44  N         17.1380  113.7600   14.6330 N.3   182  ASP182     -0.1225
     45  CA        17.0130  112.3910   14.1570 C.3   182  ASP182      0.1805
     46  C         18.0380  111.5150   14.8480 C.2   182  ASP182      0.2598
     47  O         18.9030  111.9880   15.5940 O.2   182  ASP182     -0.2718
     48  CB        17.1810  112.3100   12.6310 C.3   182  ASP182      0.1424
     49  CG        16.5850  111.0410   12.0350 C.2   182  ASP182      0.3668
     50  OD1       15.7810  110.3600   12.7210 O.co2 182  ASP182     -0.2456
     51  OD2       16.9370  110.7250   10.8740 O.co2 182  ASP182     -0.2456
     52  N         17.9260  110.2200   14.5830 N.am  183  LEU183     -0.1966
     53  CA        18.8390  109.2440   15.1410 C.3   183  LEU183      0.1728
     54  C         20.0690  109.1280   14.2550 C.2   183  LEU183      0.2616
     55  O         19.9580  108.9680   13.0350 O.2   183  LEU183     -0.2715
     56  CB        18.1470  107.8910   15.2950 C.3   183  LEU183      0.0311
     57  CG        16.9420  107.8980   16.2400 C.3   183  LEU183      0.0022
     58  CD1       16.1690  106.6080   16.1250 C.3   183  LEU183      0.0001
     59  CD2       17.3520  108.1530   17.6890 C.3   183  LEU183      0.0001
     60  N         21.2380  109.2010   14.8770 N.am  184  VAL184     -0.1963
     61  CA        22.5240  109.1020   14.2020 C.3   184  VAL184      0.1727
     62  C         23.2410  107.8960   14.7760 C.2   184  VAL184      0.2617
     63  O         23.3510  107.7590   15.9970 O.2   184  VAL184     -0.2715
     64  CB        23.3760  110.3710   14.3950 C.3   184  VAL184      0.0290
     65  CG1       24.6950  110.2320   13.6650 C.3   184  VAL184      0.0023
     66  CG2       22.6290  111.6100   13.9310 C.3   184  VAL184      0.0023
     67  N         23.7320  107.0310   13.9050 N.am  185  SER185     -0.1936
     68  CA        24.4940  105.8770   14.3530 C.3   185  SER185      0.2055
     69  C         25.9300  106.0190   13.8660 C.2   185  SER185      0.2644
     70  O         26.8040  106.4730   14.6110 O.2   185  SER185     -0.2714
     71  CB        23.8560  104.5840   13.8450 C.3   185  SER185      0.2130
     72  OG        24.4830  103.4580   14.4230 O.3   185  SER185     -0.2179
     73  N         26.1760  105.6660   12.6070 N.am  186  SER186     -0.1935
     74  CA        27.4890  105.8780   12.0140 C.3   186  SER186      0.2055
     75  C         27.6680  107.2890   11.4900 C.2   186  SER186      0.2644
     76  O         28.8000  107.6920   11.2190 O.2   186  SER186     -0.2714
     77  CB        27.7140  104.9120   10.8620 C.3   186  SER186      0.2130
     78  OG        26.8940  105.2970    9.7790 O.3   186  SER186     -0.2179
     79  N         26.5820  108.0340   11.3170 N.am  187  GLY187     -0.1939
     80  CA        26.6600  109.3910   10.8290 C.3   187  GLY187      0.2014
     81  C         26.8320  109.5460    9.3320 C.2   187  GLY187      0.2640
     82  O         26.9850  110.6810    8.8680 O.2   187  GLY187     -0.2714
     83  N         26.8140  108.4540    8.5570 N.am  188  THR188     -0.1936
     84  CA        27.0240  108.5920    7.1180 C.3   188  THR188      0.2028
     85  C         25.8360  109.2660    6.4420 C.2   188  THR188      0.2643
     86  O         26.0250  110.0140    5.4760 O.2   188  THR188     -0.2714
     87  CB        27.3290  107.2340    6.4610 C.3   188  THR188      0.1808
     88  OG1       26.2010  106.3570    6.5730 O.3   188  THR188     -0.2208
     89  CG2       28.5470  106.5820    7.1020 C.3   188  THR188      0.0379
     90  N         24.6130  109.0220    6.9260 N.am  189  THR189     -0.1936
     91  CA        23.4560  109.7480    6.4040 C.3   189  THR189      0.2028
     92  C         23.6150  111.2500    6.5950 C.2   189  THR189      0.2642
     93  O         23.1790  112.0380    5.7490 O.2   189  THR189     -0.2714
     94  CB        22.1700  109.2510    7.0670 C.3   189  THR189      0.1808
     95  OG1       22.3630  107.9120    7.5290 O.3   189  THR189     -0.2208
     96  CG2       21.0060  109.3000    6.1210 C.3   189  THR189      0.0379
     97  N         24.2280  111.6680    7.7070 N.am  190  LEU190     -0.1977
     98  CA        24.4750  113.0910    7.9200 C.3   190  LEU190      0.1596
     99  C         25.4880  113.6390    6.9150 C.2   190  LEU190      0.2287
    100  O         25.3070  114.7420    6.3840 O.2   190  LEU190     -0.2864
    101  CB        24.9610  113.3280    9.3530 C.3   190  LEU190      0.0297
    102  CG        23.9130  113.2860   10.4730 C.3   190  LEU190      0.0022
    103  CD1       24.4440  113.8840   11.7720 C.3   190  LEU190      0.0001
    104  CD2       22.6300  113.9940   10.0430 C.3   190  LEU190      0.0001
@<TRIPOS>BOND
     1    42    41   ar
     2    40    41    1
     3    40    39    1
     4    37    38    2
     5    37    36    1
     6    41    43   ar
     7    86    85    2
     8    93    92    2
     9    39    36    1
    10    36    35    1
    11    96    94    1
    12   100    99    2
    13    91    92    1
    14    91    90    1
    15    91    94    1
    16    85    90   am
    17    85    84    1
    18    87    88    1
    19    87    89    1
    20    87    84    1
    21    92    97   am
    22    99    98    1
    23    94    95    1
    24    84    83    1
    25    97    98    1
    26    98   101    1
    27    83    81   am
    28    82    81    2
    29    81    80    1
    30   101   102    1
    31    78    77    1
    32   104   102    1
    33   102   103    1
    34    80    79    1
    35    77    74    1
    36    51    49   ar
    37    76    75    2
    38    79    75   am
    39    75    74    1
    40    74    73    1
    41    49    48    1
    42    49    50   ar
    43    73    69   am
    44    48    45    1
    45    55    54    2
    46    65    64    1
    47    71    68    1
    48    71    72    1
    49    69    68    1
    50    69    70    2
    51    67    68    1
    52    67    62   am
    53    66    64    1
    54    45    44    1
    55    45    46    1
    56    61    64    1
    57    61    62    1
    58    61    60    1
    59    54    60   am
    60    54    53    1
    61    52    46   am
    62    52    53    1
    63    62    63    2
    64    46    47    2
    65     1     2    1
    66    53    56    1
    67    56    57    1
    68    58    57    1
    69    57    59    1
    70     2     3    1
    71     2     5    1
    72     3     4    2
    73     5     6    1
    74    24    23    2
    75    33    30    1
    76    33    34    1
    77    30    29    1
    78    30    31    1
    79     8     7    1
    80    23    29   am
    81    23    22    1
    82     6     7    1
    83    18    17    1
    84    18    19    1
    85    21    19   am
    86    21    22    1
    87    19    20    2
    88    31    32    2
    89    25    22    1
    90    25    26    1
    91    16    14   ar
    92    14    15   ar
    93    14    13    1
    94    28    26   ar
    95    26    27   ar
    96    13    10    1
    97    11    10    1
    98    11    12    2
    99    10     9    1
