@<TRIPOS>MOLECULE
tmp/6czpA01.pdb
 99 96 0 0 0
SMALL
GASTEIGER

@<TRIPOS>ATOM
      1  N         21.5830   27.7210   26.9140 N.3    38  MET38      -0.1230
      2  CA        22.4080   26.9560   27.8820 C.3    38  MET38       0.1702
      3  C         22.1740   27.3730   29.3400 C.2    38  MET38       0.2593
      4  O         22.8010   26.8120   30.2610 O.2    38  MET38      -0.2718
      5  CB        23.8900   27.1880   27.5830 C.3    38  MET38       0.0401
      6  CG        24.3830   26.5980   26.2870 C.3    38  MET38       0.0596
      7  SD        24.3000   24.8030   26.2790 S.3    38  MET38      -0.1393
      8  CE        22.7500   24.5410   25.4240 C.3    38  MET38       0.0692
      9  N         21.2980   28.3360   29.5550 N.am   39  SER39      -0.1938
     10  CA        21.0310   28.8250   30.8830 C.3    39  SER39       0.2055
     11  C         20.5970   27.6980   31.8130 C.2    39  SER39       0.2643
     12  O         19.9350   26.7340   31.3930 O.2    39  SER39      -0.2714
     13  CB        19.9560   29.8910   30.8540 C.3    39  SER39       0.2130
     14  OG        19.5970   30.2830   32.1700 O.3    39  SER39      -0.2179
     15  N         20.9720   27.8790   33.0770 N.am   40  ALA40      -0.1963
     16  CA        20.5810   26.9980   34.1540 C.3    40  ALA40       0.1728
     17  C         19.1080   27.2720   34.4560 C.2    40  ALA40       0.2617
     18  O         18.5920   28.3530   34.1050 O.2    40  ALA40      -0.2715
     19  CB        21.4170   27.2530   35.3870 C.3    40  ALA40       0.0334
     20  N         18.4650   26.2980   35.0920 N.am   41  SER41      -0.1936
     21  CA        17.0730   26.3780   35.4880 C.3    41  SER41       0.2055
     22  C         16.8130   25.3070   36.5440 C.2    41  SER41       0.2644
     23  O         17.4760   24.2760   36.5520 O.2    41  SER41      -0.2714
     24  CB        16.1250   26.2280   34.3210 C.3    41  SER41       0.2130
     25  OG        16.1880   24.9270   33.7490 O.3    41  SER41      -0.2179
     26  N         15.8680   25.5640   37.4310 N.am   42  SER42      -0.1935
     27  CA        15.5520   24.6040   38.4590 C.3    42  SER42       0.2055
     28  C         15.2150   23.2540   37.8090 C.2    42  SER42       0.2643
     29  O         14.4150   23.1920   36.8800 O.2    42  SER42      -0.2714
     30  CB        14.4380   25.0910   39.3430 C.3    42  SER42       0.2130
     31  OG        14.1610   24.1310   40.3590 O.3    42  SER42      -0.2179
     32  N         15.8610   22.2070   38.3230 N.am   43  VAL43      -0.1963
     33  CA        15.7600   20.7970   37.8810 C.3    43  VAL43       0.1727
     34  C         15.8340   20.7280   36.3500 C.2    43  VAL43       0.2616
     35  O         15.2320   19.8760   35.7170 O.2    43  VAL43      -0.2715
     36  CB        14.5220   20.0710   38.4490 C.3    43  VAL43       0.0290
     37  CG1       14.6050   19.9210   39.9590 C.3    43  VAL43       0.0023
     38  CG2       13.2060   20.7330   38.0520 C.3    43  VAL43       0.0023
     39  N         16.5880   21.6460   35.7720 N.am   44  ASN44      -0.1972
     40  CA        16.7990   21.7010   34.3280 C.3    44  ASN44       0.1688
     41  C         15.4590   21.7810   33.5680 C.2    44  ASN44       0.2292
     42  O         15.3750   21.3570   32.4070 O.2    44  ASN44      -0.2864
     43  CB        17.6140   20.4860   33.8730 C.3    44  ASN44       0.1181
     44  CG        18.2010   20.6910   32.5010 C.2    44  ASN44       0.2629
     45  OD1       18.5740   21.8120   32.1610 O.2    44  ASN44      -0.2716
     46  ND2       18.2880   19.6190   31.7240 N.am   44  ASN44      -0.0877
     47  N         23.2910   11.8640   30.1190 N.3   109  ARG109     -0.1245
     48  CA        23.2530   12.3450   31.5070 C.3   109  ARG109      0.1563
     49  C         23.2560   11.1850   32.5130 C.2   109  ARG109      0.2260
     50  O         23.7960   11.3350   33.6080 O.2   109  ARG109     -0.2867
     51  CB        21.9420   13.0940   31.7630 C.3   109  ARG109      0.0307
     52  CG        21.8460   14.5250   31.2450 C.3   109  ARG109      0.0489
     53  CD        22.0960   15.5540   32.3320 C.3   109  ARG109      0.2205
     54  NE        23.4700   15.9050   32.5810 N.pl3 109  ARG109     -0.0865
     55  CZ        23.9060   16.4700   33.7000 C.cat 109  ARG109      0.5346
     56  NH1       25.1640   16.8680   33.7980 N.pl3 109  ARG109      0.1354
     57  NH2       23.0850   16.6270   34.7200 N.pl3 109  ARG109      0.1354
     58  N          9.9300   18.3810   43.0400 N.3   126  PHE126     -0.1241
     59  CA         9.9360   19.8460   43.0120 C.3   126  PHE126      0.1605
     60  C          8.7630   20.3940   42.1900 C.2   126  PHE126      0.2264
     61  O          8.1440   21.3790   42.5750 O.2   126  PHE126     -0.2867
     62  CB        11.2240   20.4150   42.4100 C.3   126  PHE126      0.0534
     63  CG        12.3950   20.5210   43.3470 C.ar  126  PHE126     -0.0203
     64  CD1       12.4830   21.5810   44.2370 C.ar  126  PHE126     -0.0042
     65  CD2       13.4420   19.6130   43.2980 C.ar  126  PHE126     -0.0042
     66  CE1       13.5700   21.7000   45.0900 C.ar  126  PHE126     -0.0003
     67  CE2       14.5330   19.7410   44.1450 C.ar  126  PHE126     -0.0003
     68  CZ        14.5960   20.7860   45.0370 C.ar  126  PHE126     -0.0000
     69  N          6.7800   30.1040   39.3490 N.3   140  TRP140     -0.1241
     70  CA         8.0710   29.4570   39.5500 C.3   140  TRP140      0.1605
     71  C          8.7830   29.2870   38.2020 C.2   140  TRP140      0.2264
     72  O          9.9890   29.4870   38.0910 O.2   140  TRP140     -0.2867
     73  CB         7.8570   28.1320   40.2850 C.3   140  TRP140      0.0550
     74  CG         9.0430   27.2290   40.3260 C.ar  140  TRP140      0.0003
     75  CD1       10.1910   27.3920   41.0420 C.ar  140  TRP140      0.0946
     76  CD2        9.1460   25.9490   39.6790 C.ar  140  TRP140      0.0152
     77  NE1       11.0120   26.3090   40.8620 N.ar  140  TRP140     -0.2442
     78  CE2       10.4040   25.4170   40.0190 C.ar  140  TRP140      0.0810
     79  CE3        8.3050   25.2150   38.8370 C.ar  140  TRP140      0.0012
     80  CZ2       10.8450   24.1910   39.5320 C.ar  140  TRP140      0.0191
     81  CZ3        8.7360   23.9970   38.3670 C.ar  140  TRP140      0.0001
     82  CH2        9.9900   23.4940   38.7110 C.ar  140  TRP140      0.0015
     83  N         12.4880   31.0420   36.5500 N.3   144  GLN144     -0.1245
     84  CA        13.5970   30.4320   35.8170 C.3   144  GLN144      0.1566
     85  C         13.9040   31.2920   34.5740 C.2   144  GLN144      0.2260
     86  O         15.0810   31.5090   34.2200 O.2   144  GLN144     -0.2867
     87  CB        13.2560   28.9950   35.4100 C.3   144  GLN144      0.0367
     88  CG        12.6520   28.1740   36.5410 C.3   144  GLN144      0.0905
     89  CD        13.4650   28.2670   37.8090 C.2   144  GLN144      0.2608
     90  OE1       14.6900   28.1050   37.8000 O.2   144  GLN144     -0.2717
     91  NE2       12.7830   28.5140   38.9200 N.am  144  GLN144     -0.0878
     92  N         15.8570   34.3740   35.4570 N.3   147  LEU147     -0.1245
     93  CA        17.2530   34.0350   35.7340 C.3   147  LEU147      0.1561
     94  C         18.0070   34.0790   34.4020 C.2   147  LEU147      0.2260
     95  O         19.0900   34.6780   34.2900 O.2   147  LEU147     -0.2867
     96  CB        17.2670   32.6560   36.4070 C.3   147  LEU147      0.0270
     97  CG        18.6120   32.0370   36.7770 C.3   147  LEU147      0.0019
     98  CD1       18.4100   30.9160   37.7850 C.3   147  LEU147      0.0001
     99  CD2       19.3540   31.5120   35.5570 C.3   147  LEU147      0.0001
@<TRIPOS>BOND
     1     8     7    1
     2     7     6    1
     3     6     5    1
     4     1     2    1
     5     5     2    1
     6     2     3    1
     7     3     9   am
     8     3     4    2
     9     9    10    1
    10    47    48    1
    11    13    10    1
    12    13    14    1
    13    10    11    1
    14    52    51    1
    15    52    53    1
    16    12    11    2
    17    48    51    1
    18    48    49    1
    19    46    44   am
    20    11    15   am
    21    45    44    2
    22    53    54    1
    23    42    41    2
    24    44    43    1
    25    49    50    2
    26    54    55    2
    27    15    16    1
    28    41    40    1
    29    55    56    1
    30    55    57    1
    31    25    24    1
    32    43    40    1
    33    18    17    2
    34    16    17    1
    35    16    19    1
    36    86    85    2
    37    95    94    2
    38    24    21    1
    39    40    39    1
    40    94    93    1
    41    17    20   am
    42    85    84    1
    43    20    21    1
    44    87    84    1
    45    87    88    1
    46    92    93    1
    47    21    22    1
    48    99    97    1
    49    35    34    2
    50    93    96    1
    51    39    34   am
    52    84    83    1
    53    34    33    1
    54    96    97    1
    55    88    89    1
    56    22    23    2
    57    22    26   am
    58    97    98    1
    59    29    28    2
    60    26    27    1
    61    90    89    2
    62    28    32   am
    63    28    27    1
    64    89    91   am
    65    33    32    1
    66    33    36    1
    67    38    36    1
    68    72    71    2
    69    71    70    1
    70    81    82   ar
    71    81    79   ar
    72    36    37    1
    73    27    30    1
    74    82    80   ar
    75    79    76   ar
    76    30    31    1
    77    69    70    1
    78    80    78   ar
    79    70    73    1
    80    76    78   ar
    81    76    74   ar
    82    78    77   ar
    83    73    74    1
    84    74    75   ar
    85    77    75   ar
    86    60    61    2
    87    60    59    1
    88    62    59    1
    89    62    63    1
    90    59    58    1
    91    65    63   ar
    92    65    67   ar
    93    63    64   ar
    94    67    68   ar
    95    64    66   ar
    96    68    66   ar
