@<TRIPOS>MOLECULE
tmp/6czpA00.pdb
 163 155 0 0 0
SMALL
GASTEIGER

@<TRIPOS>ATOM
      1  N         27.3070   48.3760   31.7830 N.3    12  ARG12      -0.1231
      2  CA        25.9960   48.1860   31.1650 C.3    12  ARG12       0.1694
      3  C         25.0080   49.1560   31.8240 C.2    12  ARG12       0.2592
      4  O         25.2400   49.6560   32.9300 O.2    12  ARG12      -0.2718
      5  CB        25.4540   46.7530   31.2590 C.3    12  ARG12       0.0321
      6  CG        25.2200   46.2220   32.6660 C.3    12  ARG12       0.0489
      7  CD        24.1780   45.1070   32.7320 C.3    12  ARG12       0.2205
      8  NE        22.8830   45.5890   32.2400 N.pl3  12  ARG12      -0.0865
      9  CZ        22.0730   46.4140   32.9070 C.cat  12  ARG12       0.5346
     10  NH1       20.9700   46.8580   32.3220 N.pl3  12  ARG12       0.1354
     11  NH2       22.3980   46.8390   34.1260 N.pl3  12  ARG12       0.1354
     12  N         23.9110   49.3960   31.1180 N.am   13  TYR13      -0.1962
     13  CA        22.8440   50.2750   31.5660 C.3    13  TYR13       0.1771
     14  C         21.6490   50.0010   30.6460 C.2    13  TYR13       0.2620
     15  O         21.8250   49.4280   29.5590 O.2    13  TYR13      -0.2715
     16  CB        23.2570   51.7520   31.4780 C.3    13  TYR13       0.0574
     17  CG        23.2030   52.2610   30.0620 C.ar   13  TYR13      -0.0198
     18  CD1       24.1550   51.8770   29.1270 C.ar   13  TYR13      -0.0009
     19  CD2       22.1510   53.0540   29.6340 C.ar   13  TYR13      -0.0009
     20  CE1       24.0730   52.2850   27.8050 C.ar   13  TYR13       0.0417
     21  CE2       22.0620   53.4820   28.3200 C.ar   13  TYR13       0.0417
     22  CZ        23.0200   53.0870   27.4000 C.ar   13  TYR13       0.1957
     23  OH        22.9280   53.4970   26.1050 O.3    13  TYR13      -0.2866
     24  N         20.4600   50.4300   31.0510 N.am   14  SER14      -0.1950
     25  CA        19.2640   50.2190   30.2380 C.3    14  SER14       0.1924
     26  C         19.1710   51.2790   29.1180 C.2    14  SER14       0.2314
     27  O         18.7810   52.4390   29.3480 O.2    14  SER14      -0.2863
     28  CB        18.0350   50.1790   31.1220 C.3    14  SER14       0.2116
     29  OG        18.0880   49.0490   31.9920 O.3    14  SER14      -0.2180
     30  N         17.9430   53.4900   26.1890 N.3    16  LYS16      -0.1245
     31  CA        16.6430   54.1100   25.9110 C.3    16  LYS16       0.1561
     32  C         16.5450   54.4800   24.4270 C.2    16  LYS16       0.2260
     33  O         15.4740   54.8780   23.9450 O.2    16  LYS16      -0.2867
     34  CB        16.4610   55.3740   26.7610 C.3    16  LYS16       0.0271
     35  CG        16.6130   55.1730   28.2640 C.3    16  LYS16       0.0035
     36  CD        15.6060   54.2110   28.8690 C.3    16  LYS16       0.0206
     37  CE        15.8310   54.0190   30.3550 C.3    16  LYS16       0.1093
     38  NZ        14.8360   53.1060   30.9620 N.3    16  LYS16      -0.1314
     39  N          6.2340   54.4610   25.2990 N.3    72  PHE72      -0.1227
     40  CA         7.5760   54.9240   25.6490 C.3    72  PHE72       0.1736
     41  C          8.6120   53.8230   25.3750 C.2    72  PHE72       0.2595
     42  O          9.7820   54.1300   25.3590 O.2    72  PHE72      -0.2718
     43  CB         7.6350   55.4180   27.1020 C.3    72  PHE72       0.0547
     44  CG         7.5200   54.3410   28.1520 C.ar   72  PHE72      -0.0202
     45  CD1        6.2790   53.9000   28.5890 C.ar   72  PHE72      -0.0042
     46  CD2        8.6610   53.7590   28.6910 C.ar   72  PHE72      -0.0042
     47  CE1        6.1810   52.8860   29.5290 C.ar   72  PHE72      -0.0003
     48  CE2        8.5610   52.7540   29.6380 C.ar   72  PHE72      -0.0003
     49  CZ         7.3200   52.3170   30.0530 C.ar   72  PHE72      -0.0000
     50  N          8.1830   52.5760   25.1270 N.am   73  ASN73      -0.1974
     51  CA         9.1170   51.4570   24.8380 C.3    73  ASN73       0.1688
     52  C          9.1300   51.0900   23.3470 C.2    73  ASN73       0.2292
     53  O          9.8970   50.2290   22.9110 O.2    73  ASN73      -0.2864
     54  CB         8.7480   50.2160   25.6540 C.3    73  ASN73       0.1181
     55  CG         9.1550   50.3360   27.1070 C.2    73  ASN73       0.2629
     56  OD1       10.2280   50.8570   27.3940 O.2    73  ASN73      -0.2716
     57  ND2        8.3500   49.8030   28.0210 N.am   73  ASN73      -0.0877
     58  N         12.5300   51.6510   21.2790 N.3    76  LYS76      -0.1245
     59  CA        13.5790   50.7050   21.6800 C.3    76  LYS76       0.1561
     60  C         13.4290   49.3960   20.8940 C.2    76  LYS76       0.2260
     61  O         14.4170   48.7430   20.5230 O.2    76  LYS76      -0.2867
     62  CB        13.4830   50.3800   23.1710 C.3    76  LYS76       0.0271
     63  CG        13.7160   51.5620   24.0930 C.3    76  LYS76       0.0035
     64  CD        13.1950   51.3160   25.4800 C.3    76  LYS76       0.0206
     65  CE        13.1870   52.5900   26.2880 C.3    76  LYS76       0.1093
     66  NZ        12.1850   52.5380   27.3670 N.3    76  LYS76      -0.1314
     67  N         13.3720   34.5370   34.2420 N.3   146  TYR146     -0.1241
     68  CA        14.0240   35.7870   34.6710 C.3   146  TYR146      0.1605
     69  C         15.5160   35.5510   34.9490 C.2   146  TYR146      0.2264
     70  O         16.3240   36.4430   34.7420 O.2   146  TYR146     -0.2867
     71  CB        13.3270   36.3980   35.8870 C.3   146  TYR146      0.0534
     72  CG        12.1800   37.3120   35.5510 C.ar  146  TYR146     -0.0201
     73  CD1       10.9390   36.8230   35.1590 C.ar  146  TYR146     -0.0009
     74  CD2       12.3370   38.6820   35.6500 C.ar  146  TYR146     -0.0009
     75  CE1        9.8940   37.6800   34.8520 C.ar  146  TYR146      0.0417
     76  CE2       11.3000   39.5490   35.3560 C.ar  146  TYR146      0.0417
     77  CZ        10.0760   39.0450   34.9600 C.ar  146  TYR146      0.1957
     78  OH         9.0680   39.9090   34.6720 O.3   146  TYR146     -0.2866
     79  N         17.1060   35.7850   31.7240 N.3   149  VAL149     -0.1245
     80  CA        17.2070   37.1940   31.2960 C.3   149  VAL149      0.1561
     81  C         18.4540   37.8000   31.9310 C.2   149  VAL149      0.2260
     82  O         19.1840   38.5600   31.3020 O.2   149  VAL149     -0.2867
     83  CB        15.9650   38.0110   31.6920 C.3   149  VAL149      0.0252
     84  CG1       16.1880   39.5020   31.5070 C.3   149  VAL149      0.0019
     85  CG2       14.7180   37.5460   30.9730 C.3   149  VAL149      0.0019
     86  N         21.5840   39.7970   30.1550 N.3   153  LEU153     -0.1245
     87  CA        21.9710   41.1810   30.3870 C.3   153  LEU153      0.1561
     88  C         23.4720   41.2680   30.6880 C.2   153  LEU153      0.2260
     89  O         24.1360   42.1610   30.1750 O.2   153  LEU153     -0.2867
     90  CB        21.1550   41.7990   31.5310 C.3   153  LEU153      0.0270
     91  CG        19.6430   41.8830   31.3180 C.3   153  LEU153      0.0019
     92  CD1       18.9680   42.5640   32.4990 C.3   153  LEU153      0.0001
     93  CD2       19.2980   42.6210   30.0370 C.3   153  LEU153      0.0001
     94  N         18.3330   46.3290   26.9710 N.3   164  VAL164     -0.1231
     95  CA        17.3940   46.8960   27.9310 C.3   164  VAL164      0.1678
     96  C         16.2920   45.8590   28.1880 C.2   164  VAL164      0.2434
     97  O         15.6900   45.3610   27.2560 O.2   164  VAL164     -0.2733
     98  CB        16.8130   48.2450   27.4710 C.3   164  VAL164      0.0265
     99  CG1       16.1740   48.1750   26.0930 C.3   164  VAL164      0.0020
    100  CG2       15.8250   48.7950   28.4850 C.3   164  VAL164      0.0020
    101  N         16.1010   45.4660   29.4450 N.am  165  PRO165     -0.2718
    102  CA        15.0440   44.5540   29.8120 C.3   165  PRO165      0.1535
    103  C         13.7320   45.3570   29.8670 C.2   165  PRO165      0.2598
    104  O         13.7040   46.4640   30.4530 O.2   165  PRO165     -0.2715
    105  CB        15.4190   44.0050   31.1900 C.3   165  PRO165      0.0310
    106  CG        16.3110   45.0590   31.7780 C.3   165  PRO165      0.0237
    107  CD        16.9480   45.7630   30.6020 C.3   165  PRO165      0.0939
    108  N         12.6560   44.8030   29.3070 N.am  166  ILE166     -0.1964
    109  CA        11.3830   45.5210   29.2410 C.3   166  ILE166      0.1727
    110  C         10.2160   44.6770   29.7580 C.2   166  ILE166      0.2616
    111  O          9.9630   43.5770   29.2470 O.2   166  ILE166     -0.2715
    112  CB        11.1390   45.9170   27.7680 C.3   166  ILE166      0.0290
    113  CG1       12.1760   46.9310   27.2800 C.3   166  ILE166      0.0022
    114  CG2        9.7220   46.4000   27.5620 C.3   166  ILE166      0.0023
    115  CD1       12.0790   47.2400   25.8110 C.3   166  ILE166      0.0001
    116  N          9.4860   45.2340   30.7200 N.am  167  GLU167     -0.1963
    117  CA         8.2600   44.6230   31.2600 C.3   167  GLU167      0.1733
    118  C          7.0840   45.5010   30.8260 C.2   167  GLU167      0.2616
    119  O          5.9450   45.0820   30.8790 O.2   167  GLU167     -0.2715
    120  CB         8.2400   44.5560   32.7930 C.3   167  GLU167      0.0429
    121  CG         8.8090   43.2650   33.3780 C.3   167  GLU167      0.1163
    122  CD         8.9340   43.2700   34.8960 C.2   167  GLU167      0.3649
    123  OE1        8.5590   44.2990   35.4910 O.co2 167  GLU167     -0.2457
    124  OE2        9.3910   42.2440   35.4830 O.co2 167  GLU167     -0.2457
    125  N          7.3850   46.7310   30.3980 N.am  168  GLY168     -0.1955
    126  CA         6.3650   47.7070   29.9750 C.3   168  GLY168      0.1869
    127  C          5.7880   47.3970   28.6080 C.2   168  GLY168      0.2309
    128  O          6.0600   48.1090   27.6380 O.2   168  GLY168     -0.2863
    129  N          9.2190   39.0310   29.3000 N.3   189  VAL189     -0.1245
    130  CA        10.2310   40.0960   29.2200 C.3   189  VAL189      0.1561
    131  C         10.7070   40.2040   27.7790 C.2   189  VAL189      0.2260
    132  O         10.9680   39.2030   27.1400 O.2   189  VAL189     -0.2867
    133  CB        11.4380   39.8560   30.1450 C.3   189  VAL189      0.0252
    134  CG1       12.4180   41.0210   30.0660 C.3   189  VAL189      0.0019
    135  CG2       11.0290   39.6060   31.5920 C.3   189  VAL189      0.0019
    136  N         20.2710   58.1930   28.8150 N.3   202  ASN202     -0.1240
    137  CA        20.5580   57.2840   29.9580 C.3   202  ASN202      0.1653
    138  C         22.0190   56.8000   29.9480 C.2   202  ASN202      0.2266
    139  O         22.4910   56.3000   30.9590 O.2   202  ASN202     -0.2867
    140  CB        19.5860   56.0970   30.0010 C.3   202  ASN202      0.1155
    141  CG        19.4880   55.4420   31.3670 C.2   202  ASN202      0.2627
    142  OD1       19.5490   56.1210   32.3930 O.2   202  ASN202     -0.2716
    143  ND2       19.2600   54.1370   31.3990 N.am  202  ASN202     -0.0877
    144  N         24.9690   55.2950   37.4400 N.3   207  LYS207     -0.1245
    145  CA        24.1820   54.1480   37.8350 C.3   207  LYS207      0.1561
    146  C         23.8990   54.2500   39.3330 C.2   207  LYS207      0.2260
    147  O         24.8200   54.4830   40.1040 O.2   207  LYS207     -0.2867
    148  CB        24.9350   52.8620   37.4910 C.3   207  LYS207      0.0271
    149  CG        24.1960   51.5810   37.8520 C.3   207  LYS207      0.0035
    150  CD        24.8700   50.3240   37.3520 C.3   207  LYS207      0.0206
    151  CE        25.0450   50.3040   35.8530 C.3   207  LYS207      0.1093
    152  NZ        23.7550   50.4280   35.1360 N.3   207  LYS207     -0.1314
    153  N         22.4100   52.4520   42.8410 N.3   209  ARG209     -0.1245
    154  CA        22.0930   51.2160   43.5510 C.3   209  ARG209      0.1563
    155  C         22.1930   51.4290   45.0600 C.2   209  ARG209      0.2260
    156  O         22.8170   52.3790   45.5240 O.2   209  ARG209     -0.2867
    157  CB        23.0550   50.0920   43.1610 C.3   209  ARG209      0.0307
    158  CG        22.9020   49.5880   41.7290 C.3   209  ARG209      0.0489
    159  CD        21.5300   49.0140   41.4070 C.3   209  ARG209      0.2205
    160  NE        21.5690   48.3730   40.1150 N.pl3 209  ARG209     -0.0865
    161  CZ        21.3890   48.9920   38.9500 C.cat 209  ARG209      0.5346
    162  NH1       21.0970   50.2840   38.9150 N.pl3 209  ARG209      0.1354
    163  NH2       21.5320   48.3140   37.8240 N.pl3 209  ARG209      0.1354
@<TRIPOS>BOND
     1    61    60    2
     2    60    59    1
     3    58    59    1
     4    59    62    1
     5    53    52    2
     6    62    63    1
     7    52    51    1
     8    33    32    2
     9    63    64    1
    10    32    31    1
    11    51    50    1
    12    51    54    1
    13    50    41   am
    14    39    40    1
    15    42    41    2
    16    41    40    1
    17    64    65    1
    18    40    43    1
    19    54    55    1
    20   115   113    1
    21    31    30    1
    22    31    34    1
    23    99    98    1
    24    23    22    1
    25    65    66    1
    26    34    35    1
    27    94    95    1
    28    43    44    1
    29    55    56    2
    30    55    57   am
    31   132   131    2
    32    97    96    2
    33   113   112    1
    34    22    20   ar
    35    22    21   ar
    36    98    95    1
    37    98   100    1
    38   114   112    1
    39   128   127    2
    40   112   109    1
    41   131   130    1
    42    20    18   ar
    43    95    96    1
    44    44    45   ar
    45    44    46   ar
    46    96   101   am
    47    35    36    1
    48    21    19   ar
    49    45    47   ar
    50   127   126    1
    51    46    48   ar
    52   136   137    1
    53    36    37    1
    54    26    27    2
    55    26    25    1
    56    18    17   ar
    57   130   129    1
    58   130   133    1
    59   109   108    1
    60   109   110    1
    61   111   110    2
    62   108   103   am
    63   101   102    1
    64   101   107    1
    65    47    49   ar
    66    15    14    2
    67    19    17   ar
    68    48    49   ar
    69   110   116   am
    70   102   103    1
    71   102   105    1
    72   103   104    2
    73   138   137    1
    74   138   139    2
    75   137   140    1
    76   126   125    1
    77   140   141    1
    78    93    91    1
    79    17    16    1
    80   134   133    1
    81   133   135    1
    82    86    87    1
    83    89    88    2
    84    25    24    1
    85    25    28    1
    86    37    38    1
    87    87    88    1
    88    87    90    1
    89   125   118   am
    90   107   106    1
    91    14    24   am
    92    14    13    1
    93   116   117    1
    94   118   119    2
    95   118   117    1
    96    85    83    1
    97    12    13    1
    98    12     3   am
    99    28    29    1
   100     2     5    1
   101     2     1    1
   102     2     3    1
   103   105   106    1
   104     5     6    1
   105   117   120    1
   106    80    83    1
   107    80    79    1
   108    80    81    1
   109    82    81    2
   110    91    90    1
   111    91    92    1
   112   141   143   am
   113   141   142    2
   114    16    13    1
   115    84    83    1
   116     3     4    2
   117     8     7    1
   118     8     9    2
   119    10     9    1
   120     6     7    1
   121   120   121    1
   122     9    11    1
   123   121   122    1
   124    67    68    1
   125    68    69    1
   126    68    71    1
   127    78    77    1
   128    70    69    2
   129    75    77   ar
   130    75    73   ar
   131   122   124   ar
   132   122   123   ar
   133    77    76   ar
   134   152   151    1
   135    73    72   ar
   136    76    74   ar
   137    72    74   ar
   138    72    71    1
   139   151   150    1
   140   150   149    1
   141   144   145    1
   142   148   145    1
   143   148   149    1
   144   163   161    1
   145   145   146    1
   146   162   161    1
   147   161   160    2
   148   146   147    2
   149   160   159    1
   150   159   158    1
   151   158   157    1
   152   153   154    1
   153   157   154    1
   154   154   155    1
   155   155   156    2
