@<TRIPOS>MOLECULE
tmp/6czsA01.pdb
 81 75 0 0 0
SMALL
GASTEIGER

@<TRIPOS>ATOM
      1  N         23.1920   47.7180   27.5350 N.3    78  ASN78      -0.1240
      2  CA        22.6140   47.3390   26.2500 C.3    78  ASN78       0.1653
      3  C         21.1010   47.1710   26.3550 C.2    78  ASN78       0.2266
      4  O         20.5440   46.1220   26.0050 O.2    78  ASN78      -0.2867
      5  CB        23.2910   46.0720   25.7480 C.3    78  ASN78       0.1155
      6  CG        24.6350   46.3640   25.1010 C.2    78  ASN78       0.2627
      7  OD1       24.9190   47.5040   24.7200 O.2    78  ASN78      -0.2716
      8  ND2       25.4620   45.3400   24.9800 N.am   78  ASN78      -0.0877
      9  N         14.7240   43.3240   18.8730 N.3    83  LYS83      -0.1231
     10  CA        13.9400   42.1000   18.9590 C.3    83  LYS83       0.1693
     11  C         13.4080   41.9330   20.3750 C.2    83  LYS83       0.2593
     12  O         14.0880   42.2550   21.3530 O.2    83  LYS83      -0.2718
     13  CB        14.7570   40.8470   18.5960 C.3    83  LYS83       0.0285
     14  CG        15.7390   41.0030   17.4400 C.3    83  LYS83       0.0035
     15  CD        15.0880   41.6030   16.2150 C.3    83  LYS83       0.0206
     16  CE        16.1080   42.0010   15.1600 C.3    83  LYS83       0.1093
     17  NZ        15.7580   43.3070   14.5280 N.3    83  LYS83      -0.1314
     18  N         12.2030   41.3960   20.4700 N.am   84  SER84      -0.1938
     19  CA        11.5600   41.0940   21.7360 C.3    84  SER84       0.2055
     20  C         10.7450   39.8350   21.5180 C.2    84  SER84       0.2643
     21  O         10.5860   39.3760   20.3850 O.2    84  SER84      -0.2714
     22  CB        10.6690   42.2510   22.1900 C.3    84  SER84       0.2130
     23  OG         9.7080   42.5350   21.1700 O.3    84  SER84      -0.2179
     24  N         10.2030   39.2730   22.5940 N.am   85  ASN85      -0.1971
     25  CA         9.3000   38.1450   22.4250 C.3    85  ASN85       0.1688
     26  C          7.9410   38.2890   23.0980 C.2    85  ASN85       0.2292
     27  O          7.0080   37.5910   22.6780 O.2    85  ASN85      -0.2864
     28  CB         9.9530   36.8300   22.8840 C.3    85  ASN85       0.1181
     29  CG        10.4410   36.8650   24.3300 C.2    85  ASN85       0.2629
     30  OD1       10.3370   37.8750   25.0090 O.2    85  ASN85      -0.2716
     31  ND2       10.9500   35.7390   24.8010 N.am   85  ASN85      -0.0877
     32  N         27.4120   37.3230   29.9730 N.3   153  PHE153     -0.1241
     33  CA        26.1810   37.8190   29.3800 C.3   153  PHE153      0.1605
     34  C         26.1510   39.3370   29.3990 C.2   153  PHE153      0.2264
     35  O         25.0910   39.9580   29.5310 O.2   153  PHE153     -0.2867
     36  CB        24.9860   37.1840   30.0860 C.3   153  PHE153      0.0534
     37  CG        24.9140   35.7000   29.8650 C.ar  153  PHE153     -0.0203
     38  CD1       25.6790   34.8250   30.6330 C.ar  153  PHE153     -0.0042
     39  CD2       24.1500   35.1820   28.8310 C.ar  153  PHE153     -0.0042
     40  CE1       25.6450   33.4550   30.4050 C.ar  153  PHE153     -0.0003
     41  CE2       24.1050   33.8150   28.5970 C.ar  153  PHE153     -0.0003
     42  CZ        24.8570   32.9480   29.3840 C.ar  153  PHE153     -0.0000
     43  N         17.4730   41.2210   32.0610 N.3   164  SER164     -0.1202
     44  CA        17.2310   40.2040   31.0360 C.3   164  SER164      0.2020
     45  C         18.4860   39.3860   30.7850 C.2   164  SER164      0.2618
     46  O         18.4170   38.1650   30.6100 O.2   164  SER164     -0.2717
     47  CB        16.7590   40.8480   29.7280 C.3   164  SER164      0.2103
     48  OG        17.7250   41.7770   29.2670 O.3   164  SER164     -0.2182
     49  N         19.6400   40.0570   30.7630 N.am  165  GLN165     -0.1979
     50  CA        20.9130   39.3660   30.6000 C.3   165  GLN165      0.1601
     51  C         21.1960   38.4690   31.7920 C.2   165  GLN165      0.2287
     52  O         21.6920   37.3500   31.6370 O.2   165  GLN165     -0.2864
     53  CB        22.0180   40.4040   30.4020 C.3   165  GLN165      0.0394
     54  CG        21.7730   41.2330   29.1480 C.3   165  GLN165      0.0908
     55  CD        22.7390   42.3860   28.9320 C.2   165  GLN165      0.2608
     56  OE1       22.7350   42.9900   27.8560 O.2   165  GLN165     -0.2717
     57  NE2       23.5320   42.7300   29.9490 N.am  165  GLN165     -0.0878
     58  N         19.1360   35.3060   31.5110 N.3   168  GLU168     -0.1245
     59  CA        19.7710   34.3960   30.5610 C.3   168  GLU168      0.1567
     60  C         20.9460   33.6790   31.2020 C.2   168  GLU168      0.2260
     61  O         21.1240   32.4720   31.0060 O.2   168  GLU168     -0.2867
     62  CB        20.2270   35.1570   29.3170 C.3   168  GLU168      0.0388
     63  CG        19.0830   35.7990   28.5280 C.3   168  GLU168      0.1160
     64  CD        18.2590   34.7890   27.7500 C.2   168  GLU168      0.3649
     65  OE1       18.6740   33.6130   27.6460 O.co2 168  GLU168     -0.2457
     66  OE2       17.1940   35.1850   27.2290 O.co2 168  GLU168     -0.2457
     67  N         12.9100   33.4930   29.2960 N.3   205  VAL205     -0.1245
     68  CA        13.0260   34.9160   29.5930 C.3   205  VAL205      0.1561
     69  C         12.0450   35.6650   28.7020 C.2   205  VAL205      0.2260
     70  O         12.0570   35.4950   27.4750 O.2   205  VAL205     -0.2867
     71  CB        14.4640   35.4210   29.3700 C.3   205  VAL205      0.0252
     72  CG1       14.6000   36.8810   29.7970 C.3   205  VAL205      0.0019
     73  CG2       15.4610   34.5160   30.1160 C.3   205  VAL205      0.0019
     74  N         11.1150   39.2440   27.2920 N.3   207  ASN207     -0.1240
     75  CA        11.5640   40.6060   27.0380 C.3   207  ASN207      0.1653
     76  C         10.4020   41.4000   26.4720 C.2   207  ASN207      0.2266
     77  O          9.8740   41.0490   25.4130 O.2   207  ASN207     -0.2867
     78  CB        12.7050   40.6590   26.0230 C.3   207  ASN207      0.1155
     79  CG        13.9110   39.8510   26.4390 C.2   207  ASN207      0.2627
     80  OD1       14.1150   39.5680   27.6140 O.2   207  ASN207     -0.2716
     81  ND2       14.7260   39.4840   25.4530 N.am  207  ASN207     -0.0877
@<TRIPOS>BOND
     1    17    16    1
     2    16    15    1
     3    15    14    1
     4    14    13    1
     5    13    10    1
     6     9    10    1
     7    10    11    1
     8    11    18   am
     9    11    12    2
    10    21    20    2
    11    18    19    1
    12    23    22    1
    13    20    19    1
    14    20    24   am
    15    19    22    1
    16    25    24    1
    17    25    28    1
    18    25    26    1
    19    27    26    2
    20    28    29    1
    21    29    31   am
    22    29    30    2
    23     7     6    2
    24     8     6   am
    25     6     5    1
    26    77    76    2
    27    81    79   am
    28     5     2    1
    29     4     3    2
    30    78    79    1
    31    78    75    1
    32     2     3    1
    33     2     1    1
    34    79    80    2
    35    76    75    1
    36    75    74    1
    37    66    64   ar
    38    70    69    2
    39    65    64   ar
    40    64    63    1
    41    56    55    2
    42    63    62    1
    43    41    39   ar
    44    41    42   ar
    45    69    68    1
    46    39    37   ar
    47    55    54    1
    48    55    57   am
    49    54    53    1
    50    48    47    1
    51    67    68    1
    52    62    59    1
    53    71    68    1
    54    71    72    1
    55    71    73    1
    56    33    34    1
    57    33    32    1
    58    33    36    1
    59    42    40   ar
    60    34    35    2
    61    47    44    1
    62    37    36    1
    63    37    38   ar
    64    53    50    1
    65    40    38   ar
    66    59    60    1
    67    59    58    1
    68    50    49    1
    69    50    51    1
    70    46    45    2
    71    49    45   am
    72    45    44    1
    73    61    60    2
    74    44    43    1
    75    52    51    2
