@<TRIPOS>MOLECULE
tmp/6czuA00.pdb
 137 133 0 0 0
SMALL
GASTEIGER

@<TRIPOS>ATOM
      1  N         -3.6730    4.1570    9.2220 N.3    38  PHE38      -0.1241
      2  CA        -4.3440    2.8940    9.1000 C.3    38  PHE38       0.1605
      3  C         -4.8770    2.3620   10.4340 C.2    38  PHE38       0.2264
      4  O         -5.4800    1.2980   10.4190 O.2    38  PHE38      -0.2867
      5  CB        -3.3930    1.8410    8.5130 C.3    38  PHE38       0.0534
      6  CG        -2.9420    2.0610    7.0980 C.ar   38  PHE38      -0.0203
      7  CD1       -3.5570    2.9940    6.2830 C.ar   38  PHE38      -0.0042
      8  CD2       -1.8660    1.3010    6.5880 C.ar   38  PHE38      -0.0042
      9  CE1       -3.0320    3.1940    5.0000 C.ar   38  PHE38      -0.0003
     10  CE2       -1.3780    1.5150    5.2980 C.ar   38  PHE38      -0.0003
     11  CZ        -2.0360    2.4450    4.5160 C.ar   38  PHE38      -0.0000
     12  N         -7.2040    3.4070   12.6600 N.3    40  TRP40      -0.1228
     13  CA        -8.4930    3.6020   13.2450 C.3    40  TRP40       0.1722
     14  C         -9.4280    2.3540   13.2270 C.2    40  TRP40       0.2437
     15  O        -10.1950    2.1720   14.1940 O.2    40  TRP40      -0.2733
     16  CB        -9.1910    4.8770   12.6510 C.3    40  TRP40       0.0563
     17  CG        -9.5840    4.8010   11.2640 C.ar   40  TRP40       0.0003
     18  CD1       -8.8090    5.2130   10.1790 C.ar   40  TRP40       0.0946
     19  CD2      -10.7220    4.2080   10.7170 C.ar   40  TRP40       0.0152
     20  NE1       -9.4520    4.9590    9.0140 N.ar   40  TRP40      -0.2442
     21  CE2      -10.6340    4.3550    9.2990 C.ar   40  TRP40       0.0810
     22  CE3      -11.8570    3.6450   11.2600 C.ar   40  TRP40       0.0012
     23  CZ2      -11.6130    3.8900    8.4640 C.ar   40  TRP40       0.0191
     24  CZ3      -12.8450    3.1690   10.4170 C.ar   40  TRP40       0.0001
     25  CH2      -12.7150    3.2860    9.0420 C.ar   40  TRP40       0.0015
     26  N         -9.4280    1.4730   12.1910 N.am   41  PRO41      -0.2718
     27  CA       -10.3370    0.3190   12.2550 C.3    41  PRO41       0.1535
     28  C        -10.0040   -0.5960   13.4190 C.2    41  PRO41       0.2598
     29  O        -10.7590   -1.5070   13.7480 O.2    41  PRO41      -0.2715
     30  CB       -10.1690   -0.3990   10.9050 C.3    41  PRO41       0.0310
     31  CG        -9.6530    0.6840    9.9670 C.3    41  PRO41       0.0237
     32  CD        -8.7760    1.5180   10.8650 C.3    41  PRO41       0.0939
     33  N         -8.7680   -0.4590   13.8730 N.am   42  PHE42      -0.1974
     34  CA        -8.1710   -1.3200   14.9240 C.3    42  PHE42       0.1639
     35  C         -8.1660   -0.6950   16.2790 C.2    42  PHE42       0.2290
     36  O         -7.6310   -1.2660   17.2630 O.2    42  PHE42      -0.2864
     37  CB        -6.7300   -1.7140   14.5360 C.3    42  PHE42       0.0560
     38  CG        -6.6220   -2.3970   13.1970 C.ar   42  PHE42      -0.0200
     39  CD1       -6.9280   -3.7520   13.0790 C.ar   42  PHE42      -0.0042
     40  CD2       -6.3070   -1.7070   11.9960 C.ar   42  PHE42      -0.0042
     41  CE1       -6.9010   -4.3630   11.7930 C.ar   42  PHE42      -0.0003
     42  CE2       -6.3070   -2.2990   10.7650 C.ar   42  PHE42      -0.0003
     43  CZ        -6.6110   -3.6240   10.6540 C.ar   42  PHE42      -0.0000
     44  N        -10.6080   -0.0360   18.3210 N.3    44  GLN44      -0.1245
     45  CA       -11.7030   -0.5380   19.2100 C.3    44  GLN44       0.1566
     46  C        -12.0970   -1.9150   18.7170 C.2    44  GLN44       0.2260
     47  O        -11.7670   -2.3050   17.5720 O.2    44  GLN44      -0.2867
     48  CB       -12.9430    0.3870   19.1560 C.3    44  GLN44       0.0367
     49  CG       -13.4650    0.5980   17.7780 C.3    44  GLN44       0.0905
     50  CD       -12.6530    1.5490   16.9470 C.2    44  GLN44       0.2608
     51  OE1      -12.2080    2.6490   17.4160 O.2    44  GLN44      -0.2717
     52  NE2      -12.3780    1.1290   15.7520 N.am   44  GLN44      -0.0878
     53  N        -13.9180   -4.9690   16.9830 N.3    46  VAL46      -0.1245
     54  CA       -14.7210   -5.1420   15.7820 C.3    46  VAL46       0.1561
     55  C        -16.2120   -5.1420   16.2230 C.2    46  VAL46       0.2260
     56  O        -16.6420   -5.9380   17.1080 O.2    46  VAL46      -0.2867
     57  CB       -14.3670   -6.3770   15.0000 C.3    46  VAL46       0.0252
     58  CG1      -15.4140   -6.6590   13.9190 C.3    46  VAL46       0.0019
     59  CG2      -13.0000   -6.2300   14.3670 C.3    46  VAL46       0.0019
     60  N        -21.1440   -3.2740   11.6350 N.3    51  LEU51      -0.1245
     61  CA       -20.5980   -3.6880   10.3340 C.3    51  LEU51       0.1561
     62  C        -21.3750   -4.6970    9.5760 C.2    51  LEU51       0.2260
     63  O        -21.0220   -5.0300    8.4550 O.2    51  LEU51      -0.2867
     64  CB       -19.1230   -4.1690   10.5570 C.3    51  LEU51       0.0270
     65  CG       -18.2030   -3.1410   11.1850 C.3    51  LEU51       0.0019
     66  CD1      -16.7860   -3.5810   11.6290 C.3    51  LEU51       0.0001
     67  CD2      -17.9550   -1.9880   10.1780 C.3    51  LEU51       0.0001
     68  N        -21.6390   -8.0300   10.1440 N.3    53  LEU53      -0.1245
     69  CA       -20.7730   -9.1780   10.0150 C.3    53  LEU53       0.1561
     70  C        -21.2440  -10.2380   10.9870 C.2    53  LEU53       0.2260
     71  O        -20.5640  -10.5060   11.9840 O.2    53  LEU53      -0.2867
     72  CB       -19.3210   -8.7950   10.4020 C.3    53  LEU53       0.0270
     73  CG       -18.6970   -7.5970    9.7010 C.3    53  LEU53       0.0019
     74  CD1      -17.2600   -7.2690   10.1670 C.3    53  LEU53       0.0001
     75  CD2      -18.7070   -7.8900    8.2160 C.3    53  LEU53       0.0001
     76  N        -18.6400  -12.8310   12.1560 N.3    56  TYR56      -0.1241
     77  CA       -17.2750  -12.4560   12.6850 C.3    56  TYR56       0.1605
     78  C        -16.8620  -13.2520   13.9230 C.2    56  TYR56       0.2264
     79  O        -15.7900  -13.8400   13.9630 O.2    56  TYR56      -0.2867
     80  CB       -17.1290  -10.9700   12.8510 C.3    56  TYR56       0.0534
     81  CG       -15.7180  -10.5300   13.2290 C.ar   56  TYR56      -0.0201
     82  CD1      -14.7910  -10.2740   12.2380 C.ar   56  TYR56      -0.0009
     83  CD2      -15.3120  -10.3960   14.5440 C.ar   56  TYR56      -0.0009
     84  CE1      -13.4900  -10.0210   12.5480 C.ar   56  TYR56       0.0417
     85  CE2      -13.9960  -10.1330   14.8630 C.ar   56  TYR56       0.0417
     86  CZ       -13.1070   -9.9320   13.8470 C.ar   56  TYR56       0.1957
     87  OH       -11.7760   -9.6630   14.1440 O.3    56  TYR56      -0.2866
     88  N         -7.4080  -10.3850   11.7050 N.3    95  CYS95      -0.1235
     89  CA        -7.7000   -9.7360   10.4210 C.3    95  CYS95       0.1677
     90  C         -7.3880  -10.6170    9.2530 C.2    95  CYS95       0.2270
     91  O         -8.1930  -10.6550    8.2730 O.2    95  CYS95      -0.2867
     92  CB        -6.8990   -8.4170   10.4180 C.3    95  CYS95       0.0956
     93  SG        -7.3220   -7.3550    9.0180 S.3    95  CYS95      -0.0801
     94  N        -10.0880  -13.6110    8.9790 N.3    98  TYR98      -0.1227
     95  CA       -11.4750  -13.2990    8.6420 C.3    98  TYR98       0.1736
     96  C        -11.5860  -12.7730    7.2410 C.2    98  TYR98       0.2595
     97  O        -12.5650  -13.1310    6.5530 O.2    98  TYR98      -0.2718
     98  CB       -12.0900  -12.3160    9.6090 C.3    98  TYR98       0.0548
     99  CG       -13.4830  -11.9850    9.2860 C.ar   98  TYR98      -0.0200
    100  CD1      -14.4910  -12.9190    9.6050 C.ar   98  TYR98      -0.0009
    101  CD2      -13.8220  -10.8590    8.6030 C.ar   98  TYR98      -0.0009
    102  CE1      -15.7780  -12.6800    9.2330 C.ar   98  TYR98       0.0417
    103  CE2      -15.1230  -10.6220    8.2280 C.ar   98  TYR98       0.0417
    104  CZ       -16.0820  -11.5530    8.5660 C.ar   98  TYR98       0.1957
    105  OH       -17.4290  -11.2550    8.1270 O.3    98  TYR98      -0.2866
    106  N        -10.6090  -11.9820    6.7580 N.am   99  ASN99      -0.1974
    107  CA       -10.7420  -11.2840    5.4930 C.3    99  ASN99       0.1688
    108  C         -9.9590  -12.0000    4.3990 C.2    99  ASN99       0.2292
    109  O         -8.9780  -12.6560    4.6080 O.2    99  ASN99      -0.2864
    110  CB       -10.2480   -9.8570    5.6820 C.3    99  ASN99       0.1181
    111  CG       -11.0680   -9.0890    6.6730 C.2    99  ASN99       0.2629
    112  OD1      -12.2010   -8.6510    6.4060 O.2    99  ASN99      -0.2716
    113  ND2      -10.5310   -8.9060    7.8730 N.am   99  ASN99      -0.0877
    114  N         -8.3790   -4.5540    1.1590 N.3   104  ASP104     -0.1225
    115  CA        -7.6810   -3.3640    1.6110 C.3   104  ASP104      0.1805
    116  C         -7.4230   -3.4180    3.1120 C.2   104  ASP104      0.2597
    117  O         -6.3740   -3.0020    3.5610 O.2   104  ASP104     -0.2718
    118  CB        -8.4180   -2.1070    1.2540 C.3   104  ASP104      0.1424
    119  CG        -8.2120   -1.7030   -0.2070 C.2   104  ASP104      0.3668
    120  OD1       -7.3300   -2.2050   -0.9650 O.co2 104  ASP104     -0.2456
    121  OD2       -8.9950   -0.8470   -0.5910 O.co2 104  ASP104     -0.2456
    122  N         -8.3700   -3.9140    3.8880 N.am  105  ILE105     -0.1980
    123  CA        -8.1140   -3.9720    5.3330 C.3   105  ILE105      0.1595
    124  C         -6.9530   -4.8650    5.7020 C.2   105  ILE105      0.2287
    125  O         -6.2550   -4.6320    6.6660 O.2   105  ILE105     -0.2864
    126  CB        -9.4080   -4.4040    6.1000 C.3   105  ILE105      0.0276
    127  CG1       -9.2940   -4.1170    7.6300 C.3   105  ILE105      0.0022
    128  CG2       -9.7570   -5.8590    5.8330 C.3   105  ILE105      0.0022
    129  CD1       -9.1030   -2.6550    8.0360 C.3   105  ILE105      0.0001
    130  N         -3.6730   -3.0820    4.8270 N.3   108  MET108     -0.1245
    131  CA        -3.4360   -2.1060    5.8900 C.3   108  MET108      0.1570
    132  C         -2.8980   -2.7530    7.1340 C.2   108  MET108      0.2261
    133  O         -1.9000   -2.2940    7.7620 O.2   108  MET108     -0.2867
    134  CB        -4.6840   -1.2580    6.1530 C.3   108  MET108      0.0387
    135  CG        -4.9350   -0.4040    4.8690 C.3   108  MET108      0.0595
    136  SD        -6.0190    1.0250    4.9620 S.3   108  MET108     -0.1393
    137  CE        -5.8800    1.7670    3.2810 C.3   108  MET108      0.0692
@<TRIPOS>BOND
     1   120   119   ar
     2   121   119   ar
     3   119   118    1
     4   114   115    1
     5   118   115    1
     6   115   116    1
     7   116   117    2
     8   116   122   am
     9   137   136    1
    10   122   123    1
    11   108   109    2
    12   108   107    1
    13    11     9   ar
    14    11    10   ar
    15   130   131    1
    16   135   136    1
    17   135   134    1
    18     9     7   ar
    19    10     8   ar
    20   123   124    1
    21   123   126    1
    22   107   110    1
    23   107   106    1
    24   110   111    1
    25   124   125    2
    26   128   126    1
    27   131   134    1
    28   131   132    1
    29   126   127    1
    30     7     6   ar
    31   112   111    2
    32    97    96    2
    33     8     6   ar
    34   111   113   am
    35   106    96   am
    36     6     5    1
    37   132   133    2
    38    96    95    1
    39   127   129    1
    40   105   104    1
    41    75    73    1
    42   103   104   ar
    43   103   101   ar
    44    91    90    2
    45    63    62    2
    46    23    25   ar
    47    23    21   ar
    48     5     2    1
    49   104   102   ar
    50   101    99   ar
    51    95    94    1
    52    95    98    1
    53    20    21   ar
    54    20    18   ar
    55    93    92    1
    56    25    24   ar
    57     2     1    1
    58     2     3    1
    59   102   100   ar
    60    90    89    1
    61    99   100   ar
    62    99    98    1
    63    21    19   ar
    64    62    61    1
    65    73    74    1
    66    73    72    1
    67    31    32    1
    68    31    30    1
    69    69    68    1
    70    69    72    1
    71    69    70    1
    72    67    65    1
    73    18    17   ar
    74    61    64    1
    75    61    60    1
    76    24    22   ar
    77    92    89    1
    78     4     3    2
    79    89    88    1
    80    64    65    1
    81    43    42   ar
    82    43    41   ar
    83    19    22   ar
    84    19    17   ar
    85    42    40   ar
    86    32    26    1
    87    30    27    1
    88    70    71    2
    89    65    66    1
    90    17    16    1
    91    41    39   ar
    92    40    38   ar
    93    76    77    1
    94    26    27    1
    95    26    14   am
    96    82    84   ar
    97    82    81   ar
    98    27    28    1
    99    84    86   ar
   100    16    13    1
   101    12    13    1
   102    77    80    1
   103    77    78    1
   104    80    81    1
   105    39    38   ar
   106    38    37    1
   107    14    13    1
   108    14    15    2
   109    81    83   ar
   110    28    29    2
   111    28    33   am
   112    86    87    1
   113    86    85   ar
   114    33    34    1
   115    58    57    1
   116    78    79    2
   117    59    57    1
   118    37    34    1
   119    83    85   ar
   120    34    35    1
   121    57    54    1
   122    52    50   am
   123    54    55    1
   124    54    53    1
   125    55    56    2
   126    35    36    2
   127    50    51    2
   128    50    49    1
   129    47    46    2
   130    49    48    1
   131    44    45    1
   132    46    45    1
   133    48    45    1
