@<TRIPOS>MOLECULE
tmp/6czvA00.pdb
 134 130 0 0 0
SMALL
GASTEIGER

@<TRIPOS>ATOM
      1  N         -2.9030    0.1450   -2.4850 N.3    40  TRP40      -0.1228
      2  CA        -2.7560   -1.2160   -2.9490 C.3    40  TRP40       0.1722
      3  C         -4.0570   -2.1050   -3.0070 C.2    40  TRP40       0.2437
      4  O         -4.2300   -2.8740   -3.9360 O.2    40  TRP40      -0.2733
      5  CB        -1.6010   -1.9060   -2.1720 C.3    40  TRP40       0.0563
      6  CG        -1.8300   -2.0470   -0.7290 C.ar   40  TRP40       0.0003
      7  CD1       -1.4790   -1.2150    0.2550 C.ar   40  TRP40       0.0946
      8  CD2       -2.4790   -3.1520   -0.1140 C.ar   40  TRP40       0.0152
      9  NE1       -1.8630   -1.7210    1.4700 N.ar   40  TRP40      -0.2442
     10  CE2       -2.5140   -2.9030    1.2470 C.ar   40  TRP40       0.0810
     11  CE3       -3.0340   -4.3410   -0.6130 C.ar   40  TRP40       0.0012
     12  CZ2       -3.0860   -3.7840    2.1390 C.ar   40  TRP40       0.0191
     13  CZ3       -3.6350   -5.2060    0.2730 C.ar   40  TRP40       0.0001
     14  CH2       -3.6340   -4.9290    1.6340 C.ar   40  TRP40       0.0015
     15  N         -4.9400   -2.0210   -2.0200 N.am   41  PRO41      -0.2718
     16  CA        -6.1490   -2.8590   -2.1730 C.3    41  PRO41       0.1535
     17  C         -7.0450   -2.4300   -3.3040 C.2    41  PRO41       0.2598
     18  O         -7.8940   -3.1970   -3.7290 O.2    41  PRO41      -0.2715
     19  CB        -6.8810   -2.6030   -0.8610 C.3    41  PRO41       0.0310
     20  CG        -5.9090   -2.0090    0.0910 C.3    41  PRO41       0.0237
     21  CD        -5.0600   -1.1870   -0.8350 C.3    41  PRO41       0.0939
     22  N         -6.8570   -1.2080   -3.7880 N.am   42  PHE42      -0.1974
     23  CA        -7.6640   -0.6460   -4.8840 C.3    42  PHE42       0.1639
     24  C         -7.0080   -0.6910   -6.2700 C.2    42  PHE42       0.2290
     25  O         -7.5980   -0.2910   -7.2870 O.2    42  PHE42      -0.2864
     26  CB        -8.0740    0.8050   -4.5020 C.3    42  PHE42       0.0560
     27  CG        -8.6920    0.9290   -3.1670 C.ar   42  PHE42      -0.0200
     28  CD1      -10.0930    0.7980   -3.0110 C.ar   42  PHE42      -0.0042
     29  CD2       -7.9260    1.1500   -2.0450 C.ar   42  PHE42      -0.0042
     30  CE1      -10.6460    0.8720   -1.7860 C.ar   42  PHE42      -0.0003
     31  CE2       -8.4780    1.2210   -0.7980 C.ar   42  PHE42      -0.0003
     32  CZ        -9.8320    1.0800   -0.6530 C.ar   42  PHE42      -0.0000
     33  N         -6.3770   -3.2750   -8.2150 N.3    44  GLN44      -0.1245
     34  CA        -6.8850   -4.3410   -9.0290 C.3    44  GLN44       0.1566
     35  C         -8.3060   -4.7400   -8.5470 C.2    44  GLN44       0.2260
     36  O         -8.6870   -4.3700   -7.4300 O.2    44  GLN44      -0.2867
     37  CB        -5.9300   -5.5140   -8.9700 C.3    44  GLN44       0.0367
     38  CG        -5.6640   -6.1160   -7.6140 C.3    44  GLN44       0.0905
     39  CD        -4.8020   -5.2770   -6.7030 C.2    44  GLN44       0.2608
     40  OE1       -3.7710   -4.7930   -7.1020 O.2    44  GLN44      -0.2717
     41  NE2       -5.2520   -5.0550   -5.4930 N.am   44  GLN44      -0.0878
     42  N        -11.3130   -6.5850   -6.8560 N.3    46  VAL46      -0.1231
     43  CA       -11.4730   -7.3810   -5.6740 C.3    46  VAL46       0.1692
     44  C        -11.4960   -8.8590   -6.0780 C.2    46  VAL46       0.2592
     45  O        -12.3150   -9.2680   -6.9160 O.2    46  VAL46      -0.2718
     46  CB       -12.7350   -6.9910   -4.8840 C.3    46  VAL46       0.0266
     47  CG1      -12.9610   -8.0390   -3.7610 C.3    46  VAL46       0.0020
     48  CG2      -12.6700   -5.5350   -4.3740 C.3    46  VAL46       0.0020
     49  N        -10.5150   -9.6000   -5.5740 N.am   47  ASP47      -0.1974
     50  CA       -10.3710  -11.0550   -5.8450 C.3    47  ASP47       0.1709
     51  C        -11.0940  -11.7780   -4.7240 C.2    47  ASP47       0.2293
     52  O        -10.5080  -12.0630   -3.6760 O.2    47  ASP47      -0.2864
     53  CB        -8.8870  -11.4540   -5.9510 C.3    47  ASP47       0.1436
     54  CG        -8.6920  -12.9340   -6.3630 C.2    47  ASP47       0.3671
     55  OD1       -9.6170  -13.7700   -6.1560 O.co2  47  ASP47      -0.2456
     56  OD2       -7.5810  -13.3240   -6.8290 O.co2  47  ASP47      -0.2456
     57  N         -9.7220  -13.8520   -1.3230 N.3    51  LEU51      -0.1245
     58  CA       -10.0510  -13.2910   -0.0410 C.3    51  LEU51       0.1561
     59  C        -11.1360  -14.0810    0.7350 C.2    51  LEU51       0.2260
     60  O        -11.4620  -13.7460    1.8460 O.2    51  LEU51      -0.2867
     61  CB       -10.4920  -11.8280   -0.2170 C.3    51  LEU51       0.0270
     62  CG        -9.3700  -10.8640   -0.6770 C.3    51  LEU51       0.0019
     63  CD1      -10.0220   -9.5980   -1.2460 C.3    51  LEU51       0.0001
     64  CD2       -8.4480  -10.5740    0.5280 C.3    51  LEU51       0.0001
     65  N        -14.4050  -14.2970    0.1800 N.3    53  LEU53      -0.1245
     66  CA       -15.5710  -13.4020    0.3230 C.3    53  LEU53       0.1561
     67  C        -16.6240  -13.7580   -0.7240 C.2    53  LEU53       0.2260
     68  O        -16.8630  -13.0440   -1.7080 O.2    53  LEU53      -0.2867
     69  CB       -15.1350  -11.9540    0.2130 C.3    53  LEU53       0.0270
     70  CG       -14.1600  -11.3790    1.2210 C.3    53  LEU53       0.0019
     71  CD1      -13.8660   -9.9100    0.8910 C.3    53  LEU53       0.0001
     72  CD2      -14.5890  -11.5370    2.6620 C.3    53  LEU53       0.0001
     73  N        -19.2930  -11.2350   -2.0810 N.3    56  TYR56      -0.1241
     74  CA       -18.8960   -9.8940   -2.5290 C.3    56  TYR56       0.1605
     75  C        -19.6350   -9.4920   -3.7900 C.2    56  TYR56       0.2264
     76  O        -20.2120   -8.4290   -3.8500 O.2    56  TYR56      -0.2867
     77  CB       -17.3460   -9.7970   -2.7390 C.3    56  TYR56       0.0534
     78  CG       -16.9570   -8.4090   -3.1400 C.ar   56  TYR56      -0.0201
     79  CD1      -16.7830   -7.4650   -2.1930 C.ar   56  TYR56      -0.0009
     80  CD2      -16.9040   -8.0200   -4.4750 C.ar   56  TYR56      -0.0009
     81  CE1      -16.5290   -6.1590   -2.5090 C.ar   56  TYR56       0.0417
     82  CE2      -16.5960   -6.6860   -4.8520 C.ar   56  TYR56       0.0417
     83  CZ       -16.3850   -5.7560   -3.8830 C.ar   56  TYR56       0.1957
     84  OH       -16.1640   -4.4380   -4.1960 O.3    56  TYR56      -0.2866
     85  N        -16.8750    0.1850   -1.6490 N.3    95  CYS95      -0.1235
     86  CA       -16.1630   -0.0990   -0.4350 C.3    95  CYS95       0.1677
     87  C        -16.9900    0.2540    0.7860 C.2    95  CYS95       0.2270
     88  O        -17.1090   -0.5590    1.7260 O.2    95  CYS95      -0.2867
     89  CB       -14.8060    0.6280   -0.5200 C.3    95  CYS95       0.0956
     90  SG       -13.7620    0.2440    0.8730 S.3    95  CYS95      -0.0801
     91  N        -20.0030   -2.3840    0.9330 N.3    98  TYR98      -0.1227
     92  CA       -19.6750   -3.7590    1.3200 C.3    98  TYR98       0.1736
     93  C        -19.1770   -3.8610    2.7750 C.2    98  TYR98       0.2595
     94  O        -19.5010   -4.8160    3.5010 O.2    98  TYR98      -0.2718
     95  CB       -18.6710   -4.4180    0.3810 C.3    98  TYR98       0.0548
     96  CG       -18.4410   -5.8330    0.7020 C.ar   98  TYR98      -0.0200
     97  CD1      -19.4390   -6.7880    0.4630 C.ar   98  TYR98      -0.0009
     98  CD2      -17.2570   -6.2520    1.2840 C.ar   98  TYR98      -0.0009
     99  CE1      -19.2430   -8.0680    0.8160 C.ar   98  TYR98       0.0417
    100  CE2      -17.0900   -7.5520    1.6800 C.ar   98  TYR98       0.0417
    101  CZ       -18.0670   -8.4560    1.4470 C.ar   98  TYR98       0.1957
    102  OH       -17.8430   -9.7810    1.8160 O.3    98  TYR98      -0.2866
    103  N        -18.3610   -2.9170    3.1720 N.am   99  ASN99      -0.1974
    104  CA       -17.7070   -2.9750    4.4690 C.3    99  ASN99       0.1688
    105  C        -18.4140   -2.1540    5.5450 C.2    99  ASN99       0.2292
    106  O        -19.3460   -1.4370    5.2740 O.2    99  ASN99      -0.2864
    107  CB       -16.2440   -2.5220    4.2630 C.3    99  ASN99       0.1181
    108  CG       -15.5180   -3.4120    3.3160 C.2    99  ASN99       0.2629
    109  OD1      -15.2010   -4.5400    3.6590 O.2    99  ASN99      -0.2716
    110  ND2      -15.2780   -2.9360    2.0860 N.am   99  ASN99      -0.0877
    111  N        -10.8150   -0.9730    8.6260 N.3   104  ASP104     -0.1225
    112  CA        -9.5980   -0.4470    8.0690 C.3   104  ASP104      0.1805
    113  C         -9.7180   -0.1460    6.5710 C.2   104  ASP104      0.2597
    114  O         -9.1630    0.8630    6.0950 O.2   104  ASP104     -0.2718
    115  CB        -8.4110   -1.4050    8.2410 C.3   104  ASP104      0.1424
    116  CG        -7.9900   -1.5730    9.7450 C.2   104  ASP104      0.3668
    117  OD1       -8.2960   -0.6860   10.5660 O.co2 104  ASP104     -0.2456
    118  OD2       -7.4190   -2.6380   10.0450 O.co2 104  ASP104     -0.2456
    119  N        -10.3190   -1.0720    5.8280 N.am  105  ILE105     -0.1980
    120  CA       -10.4000   -0.8570    4.3680 C.3   105  ILE105      0.1595
    121  C        -11.1850    0.4680    4.0590 C.2   105  ILE105      0.2287
    122  O        -10.8730    1.1740    3.0690 O.2   105  ILE105     -0.2864
    123  CB       -10.9880   -2.0550    3.6460 C.3   105  ILE105      0.0276
    124  CG1      -10.9210   -1.8340    2.1720 C.3   105  ILE105      0.0022
    125  CG2      -12.4820   -2.3400    3.9980 C.3   105  ILE105      0.0022
    126  CD1       -9.5860   -1.9720    1.5990 C.3   105  ILE105      0.0001
    127  N         -9.0450    3.4240    4.6170 N.3   108  MET108     -0.1245
    128  CA        -8.1310    3.5410    3.5000 C.3   108  MET108      0.1570
    129  C         -8.8760    4.1960    2.3040 C.2   108  MET108      0.2261
    130  O         -8.3360    5.0930    1.6570 O.2   108  MET108     -0.2867
    131  CB        -7.6380    2.1920    3.0720 C.3   108  MET108      0.0387
    132  CG        -6.7220    1.5940    4.1150 C.3   108  MET108      0.0595
    133  SD        -6.1630   -0.0790    3.8410 S.3   108  MET108     -0.1393
    134  CE        -4.9270    0.2200    2.7470 C.3   108  MET108      0.0692
@<TRIPOS>BOND
     1    34    37    1
     2    34    35    1
     3    34    33    1
     4    37    38    1
     5    35    36    2
     6    38    39    1
     7    25    24    2
     8    40    39    2
     9    45    44    2
    10    42    43    1
    11    56    54   ar
    12    39    41   am
    13    54    55   ar
    14    54    53    1
    15    24    23    1
    16    44    43    1
    17    44    49   am
    18    53    50    1
    19    50    49    1
    20    50    51    1
    21    43    46    1
    22    46    48    1
    23    46    47    1
    24    23    26    1
    25    23    22    1
    26    82    80   ar
    27    82    83   ar
    28    51    52    2
    29    26    27    1
    30    80    78   ar
    31    84    83    1
    32     4     3    2
    33    83    81   ar
    34    76    75    2
    35    75    74    1
    36    22    17   am
    37    18    17    2
    38    17    16    1
    39    27    28   ar
    40    27    29   ar
    41    78    77    1
    42    78    79   ar
    43    28    30   ar
    44     3     2    1
    45     3    15   am
    46     2     1    1
    47     2     5    1
    48    77    74    1
    49    74    73    1
    50    81    79   ar
    51    16    15    1
    52    16    19    1
    53     5     6    1
    54    29    31   ar
    55    15    21    1
    56    30    32   ar
    57    68    67    2
    58    85    86    1
    59    57    58    1
    60    63    62    1
    61    19    20    1
    62    21    20    1
    63    31    32   ar
    64     6     8   ar
    65     6     7   ar
    66    67    66    1
    67    62    61    1
    68    62    64    1
    69    11     8   ar
    70    11    13   ar
    71    89    86    1
    72    89    90    1
    73    86    87    1
    74    61    58    1
    75     8    10   ar
    76    58    59    1
    77    65    66    1
    78    69    66    1
    79    69    70    1
    80     7     9   ar
    81    13    14   ar
    82    95    96    1
    83    95    92    1
    84    97    96   ar
    85    97    99   ar
    86    96    98   ar
    87    59    60    2
    88    87    88    2
    89    99   101   ar
    90    71    70    1
    91    91    92    1
    92    70    72    1
    93    10     9   ar
    94    10    12   ar
    95    98   100   ar
    96    92    93    1
    97   101   100   ar
    98   101   102    1
    99   126   124    1
   100    14    12   ar
   101   130   129    2
   102   110   108   am
   103   124   123    1
   104   129   128    1
   105   134   133    1
   106    93   103   am
   107    93    94    2
   108   122   121    2
   109   131   128    1
   110   131   132    1
   111   103   104    1
   112   108   109    2
   113   108   107    1
   114   128   127    1
   115   123   125    1
   116   123   120    1
   117   133   132    1
   118   121   120    1
   119   107   104    1
   120   120   119    1
   121   104   105    1
   122   106   105    2
   123   119   113   am
   124   114   113    2
   125   113   112    1
   126   112   115    1
   127   112   111    1
   128   115   116    1
   129   116   118   ar
   130   116   117   ar
