@<TRIPOS>MOLECULE
tmp/6czwA00.pdb
 188 174 0 0 0
SMALL
GASTEIGER

@<TRIPOS>ATOM
      1  N         18.6040  -10.5710   -9.5970 N.3     9  PHE9       -0.1241
      2  CA        18.4820  -10.4650  -11.0660 C.3     9  PHE9        0.1605
      3  C         19.7210   -9.8180  -11.6120 C.2     9  PHE9        0.2264
      4  O         20.3920   -9.0350  -10.8910 O.2     9  PHE9       -0.2867
      5  CB        17.2560   -9.6470  -11.5030 C.3     9  PHE9        0.0534
      6  CG        17.2270   -8.2000  -11.0160 C.ar    9  PHE9       -0.0203
      7  CD1       17.6400   -7.1380  -11.8490 C.ar    9  PHE9       -0.0042
      8  CD2       16.8280   -7.8390   -9.6570 C.ar    9  PHE9       -0.0042
      9  CE1       17.6170   -5.8410  -11.4070 C.ar    9  PHE9       -0.0003
     10  CE2       16.8070   -6.5110   -9.2180 C.ar    9  PHE9       -0.0003
     11  CZ        17.2270   -5.4990  -10.1140 C.ar    9  PHE9       -0.0000
     12  N         21.8130   -7.3900  -14.3350 N.3    11  SER11      -0.1217
     13  CA        21.7250   -6.3070  -15.3480 C.3    11  SER11       0.1889
     14  C         23.0690   -5.9980  -15.9690 C.2    11  SER11       0.2288
     15  O         24.0980   -6.3620  -15.3970 O.2    11  SER11      -0.2866
     16  CB        21.1070   -5.0420  -14.7340 C.3    11  SER11       0.2089
     17  OG        21.9060   -4.4540  -13.6980 O.3    11  SER11      -0.2183
     18  N         25.3390   -2.9580  -18.1690 N.3    13  HIS13      -0.1241
     19  CA        25.3360   -1.5070  -18.4420 C.3    13  HIS13       0.1621
     20  C         26.4780   -1.1500  -19.2960 C.2    13  HIS13       0.2264
     21  O         27.5600   -1.7880  -19.1770 O.2    13  HIS13      -0.2867
     22  CB        25.4590   -0.7420  -17.1310 C.3    13  HIS13       0.0745
     23  CG        24.4250   -1.1170  -16.1350 C.ar   13  HIS13       0.0817
     24  ND1       23.3360   -0.2830  -15.8330 N.ar   13  HIS13      -0.2268
     25  CD2       24.2580   -2.2620  -15.3670 C.ar   13  HIS13       0.1154
     26  CE1       22.5450   -0.9010  -14.9050 C.ar   13  HIS13       0.1986
     27  NE2       23.0800   -2.0810  -14.6260 N.ar   13  HIS13      -0.2212
     28  N         26.9490    3.9150  -17.7010 N.3    17  MET17      -0.1245
     29  CA        25.9720    3.4810  -16.6990 C.3    17  MET17       0.1570
     30  C         24.5790    3.2140  -17.2530 C.2    17  MET17       0.2261
     31  O         23.6840    2.8200  -16.4400 O.2    17  MET17      -0.2867
     32  CB        25.8160    4.4850  -15.5280 C.3    17  MET17       0.0387
     33  CG        26.9870    5.3870  -15.2540 C.3    17  MET17       0.0595
     34  SD        28.1170    4.2150  -14.5460 S.3    17  MET17      -0.1393
     35  CE        27.2470    3.8730  -13.0110 C.3    17  MET17       0.0692
     36  N         21.5470    1.2520  -18.8100 N.3    19  PHE19      -0.1241
     37  CA        21.1450   -0.1760  -18.9580 C.3    19  PHE19       0.1605
     38  C         21.2630   -0.5790  -20.4270 C.2    19  PHE19       0.2264
     39  O         20.8110    0.1550  -21.3250 O.2    19  PHE19      -0.2867
     40  CB        19.6850   -0.4680  -18.5480 C.3    19  PHE19       0.0534
     41  CG        19.4400   -0.5070  -17.0820 C.ar   19  PHE19      -0.0203
     42  CD1       19.4630   -1.7490  -16.3640 C.ar   19  PHE19      -0.0042
     43  CD2       19.1510    0.6670  -16.3550 C.ar   19  PHE19      -0.0042
     44  CE1       19.2090   -1.7550  -14.9600 C.ar   19  PHE19      -0.0003
     45  CE2       18.9130    0.6220  -14.9750 C.ar   19  PHE19      -0.0003
     46  CZ        18.9200   -0.5880  -14.2690 C.ar   19  PHE19      -0.0000
     47  N         13.1320   -8.5890  -12.8400 N.3    26  ILE26      -0.1245
     48  CA        13.0450   -7.2620  -12.1920 C.3    26  ILE26       0.1561
     49  C         11.5790   -6.8440  -12.1030 C.2    26  ILE26       0.2260
     50  O         11.1310   -6.0620  -11.2380 O.2    26  ILE26      -0.2867
     51  CB        13.8860   -6.1820  -12.9160 C.3    26  ILE26       0.0252
     52  CG1       14.0060   -4.9380  -12.0020 C.3    26  ILE26       0.0019
     53  CG2       13.3270   -5.9100  -14.3250 C.3    26  ILE26       0.0019
     54  CD1       14.8520   -3.8140  -12.5690 C.3    26  ILE26       0.0001
     55  N         21.8170    4.3460  -14.7010 N.3    42  ALA42      -0.1245
     56  CA        21.4980    3.9330  -13.3290 C.3    42  ALA42       0.1562
     57  C         21.1650    5.1150  -12.4460 C.2    42  ALA42       0.2260
     58  O         20.3120    5.0390  -11.5450 O.2    42  ALA42      -0.2867
     59  CB        22.7350    3.2240  -12.7300 C.3    42  ALA42       0.0290
     60  N         17.7700    6.3910  -11.2460 N.3    45  PHE45      -0.1227
     61  CA        16.9240    5.5960  -10.3850 C.3    45  PHE45       0.1736
     62  C         17.3670    5.5930   -8.8630 C.2    45  PHE45       0.2595
     63  O         16.6040    5.1340   -8.0370 O.2    45  PHE45      -0.2718
     64  CB        16.8840    4.1120  -10.8670 C.3    45  PHE45       0.0547
     65  CG        16.4470    3.9580  -12.2920 C.ar   45  PHE45      -0.0202
     66  CD1       15.1080    3.7090  -12.5660 C.ar   45  PHE45      -0.0042
     67  CD2       17.3890    3.9440  -13.3440 C.ar   45  PHE45      -0.0042
     68  CE1       14.7230    3.5950  -13.8980 C.ar   45  PHE45      -0.0003
     69  CE2       16.9930    3.8620  -14.6720 C.ar   45  PHE45      -0.0003
     70  CZ        15.6610    3.6370  -14.9080 C.ar   45  PHE45      -0.0000
     71  N         18.5550    6.1420   -8.5500 N.am   46  TYR46      -0.1976
     72  CA        18.9740    6.1250   -7.1320 C.3    46  TYR46       0.1639
     73  C         18.2130    7.1840   -6.3530 C.2    46  TYR46       0.2290
     74  O         18.0220    8.3150   -6.8080 O.2    46  TYR46      -0.2864
     75  CB        20.4760    6.5060   -7.0720 C.3    46  TYR46       0.0560
     76  CG        21.3640    5.5330   -7.7740 C.ar   46  TYR46      -0.0198
     77  CD1       21.1910    4.1430   -7.6320 C.ar   46  TYR46      -0.0009
     78  CD2       22.4610    5.9610   -8.4890 C.ar   46  TYR46      -0.0009
     79  CE1       22.0630    3.2440   -8.1980 C.ar   46  TYR46       0.0417
     80  CE2       23.3450    5.0460   -9.0370 C.ar   46  TYR46       0.0417
     81  CZ        23.1380    3.7070   -8.9130 C.ar   46  TYR46       0.1957
     82  OH        24.0570    2.8360   -9.4900 O.3    46  TYR46      -0.2866
     83  N         26.6950    6.2830   -4.2920 N.3    54  MET54      -0.1245
     84  CA        26.8340    5.5030   -5.4920 C.3    54  MET54       0.1570
     85  C         27.9510    6.0120   -6.4510 C.2    54  MET54       0.2261
     86  O         28.6540    5.1850   -7.0510 O.2    54  MET54      -0.2867
     87  CB        25.5050    5.3550   -6.2470 C.3    54  MET54       0.0387
     88  CG        24.4340    4.7200   -5.3890 C.3    54  MET54       0.0595
     89  SD        24.8690    3.0810   -4.7160 S.3    54  MET54      -0.1393
     90  CE        24.8060    1.8940   -6.0740 C.3    54  MET54       0.0692
     91  N         31.0290    4.7860   -5.0780 N.3    57  SER57      -0.1202
     92  CA        31.1370    3.3520   -5.2950 C.3    57  SER57       0.2020
     93  C         31.5200    3.0540   -6.7440 C.2    57  SER57       0.2618
     94  O         32.2910    2.1280   -7.0060 O.2    57  SER57      -0.2717
     95  CB        29.8470    2.6450   -4.9040 C.3    57  SER57       0.2103
     96  OG        30.0150    1.2520   -5.0060 O.3    57  SER57      -0.2182
     97  N         31.0030    3.8690   -7.6630 N.am   58  HIS58      -0.1975
     98  CA        31.3230    3.7530   -9.0960 C.3    58  HIS58       0.1656
     99  C         32.7790    4.0680   -9.2990 C.2    58  HIS58       0.2291
    100  O         33.4290    3.3460  -10.0120 O.2    58  HIS58      -0.2864
    101  CB        30.4530    4.6100  -10.0080 C.3    58  HIS58       0.0771
    102  CG        30.7290    4.3960  -11.4860 C.ar   58  HIS58       0.0820
    103  ND1       30.3190    3.2820  -12.1560 N.ar   58  HIS58      -0.2267
    104  CD2       31.4150    5.1740  -12.4200 C.ar   58  HIS58       0.1154
    105  CE1       30.7370    3.3400  -13.4370 C.ar   58  HIS58       0.1986
    106  NE2       31.3940    4.4960  -13.6100 N.ar   58  HIS58      -0.2212
    107  N         34.6550    0.9990   -8.3000 N.3    61  LEU61      -0.1245
    108  CA        34.4940   -0.0280   -9.3380 C.3    61  LEU61       0.1561
    109  C         35.4340    0.2290  -10.5310 C.2    61  LEU61       0.2260
    110  O         35.9710   -0.7000  -11.0920 O.2    61  LEU61      -0.2867
    111  CB        32.9930   -0.1190   -9.7710 C.3    61  LEU61       0.0270
    112  CG        32.7070   -0.9700  -11.0090 C.3    61  LEU61       0.0019
    113  CD1       33.0080   -2.4390  -10.7190 C.3    61  LEU61       0.0001
    114  CD2       31.2560   -0.8360  -11.4930 C.3    61  LEU61       0.0001
    115  N         33.3180   -4.2340   -7.3470 N.3    67  VAL67      -0.1245
    116  CA        32.9640   -3.5420   -6.0910 C.3    67  VAL67       0.1561
    117  C         31.6590   -4.1440   -5.6320 C.2    67  VAL67       0.2260
    118  O         30.9030   -4.7240   -6.4460 O.2    67  VAL67      -0.2867
    119  CB        32.8770   -2.0070   -6.2770 C.3    67  VAL67       0.0252
    120  CG1       31.4930   -1.5760   -6.7900 C.3    67  VAL67       0.0019
    121  CG2       33.1810   -1.2980   -4.9720 C.3    67  VAL67       0.0019
    122  N         28.2960   -2.7900   -3.6960 N.3    69  SER69      -0.1217
    123  CA        27.7090   -1.5070   -3.4980 C.3    69  SER69       0.1889
    124  C         27.3710   -1.2310   -2.0340 C.2    69  SER69       0.2288
    125  O         27.3040   -0.0560   -1.6420 O.2    69  SER69      -0.2866
    126  CB        26.3750   -1.3880   -4.3000 C.3    69  SER69       0.2089
    127  OG        25.3910   -2.1290   -3.6300 O.3    69  SER69      -0.2183
    128  N         21.4560    0.3090   -1.0460 N.3    72  TYR72      -0.1241
    129  CA        20.9160    1.5410   -1.6680 C.3    72  TYR72       0.1605
    130  C         19.4530    1.3750   -2.1040 C.2    72  TYR72       0.2264
    131  O         18.9460    0.2670   -2.1090 O.2    72  TYR72      -0.2867
    132  CB        21.8120    2.0200   -2.8320 C.3    72  TYR72       0.0534
    133  CG        21.7830    1.0900   -4.0260 C.ar   72  TYR72      -0.0201
    134  CD1       22.5710   -0.0340   -4.0350 C.ar   72  TYR72      -0.0009
    135  CD2       20.9600    1.3340   -5.1350 C.ar   72  TYR72      -0.0009
    136  CE1       22.5830   -0.9340   -5.1110 C.ar   72  TYR72       0.0417
    137  CE2       20.9530    0.5080   -6.2270 C.ar   72  TYR72       0.0417
    138  CZ        21.7310   -0.6220   -6.2500 C.ar   72  TYR72       0.1957
    139  OH        21.7030   -1.4600   -7.3070 O.3    72  TYR72      -0.2866
    140  N         16.4230    1.8500   -5.0510 N.3    74  MET74      -0.1245
    141  CA        16.0240    2.1040   -6.4520 C.3    74  MET74       0.1570
    142  C         14.5640    2.5640   -6.4530 C.2    74  MET74       0.2261
    143  O         13.7530    1.8880   -5.8280 O.2    74  MET74      -0.2867
    144  CB        16.1070    0.8010   -7.2560 C.3    74  MET74       0.0387
    145  CG        15.7060    1.0210   -8.7080 C.3    74  MET74       0.0595
    146  SD        15.7950   -0.4930   -9.7130 S.3    74  MET74      -0.1393
    147  CE        16.0210    0.3030  -11.2860 C.3    74  MET74       0.0692
    148  N         18.3790   -2.4060   -2.3670 N.3    84  LEU84      -0.1245
    149  CA        19.1800   -3.3690   -3.1220 C.3    84  LEU84       0.1561
    150  C         20.5860   -3.3680   -2.5760 C.2    84  LEU84       0.2260
    151  O         21.0080   -2.4100   -2.0240 O.2    84  LEU84      -0.2867
    152  CB        19.2460   -2.9350   -4.6510 C.3    84  LEU84       0.0270
    153  CG        18.0340   -2.8700   -5.5580 C.3    84  LEU84       0.0019
    154  CD1       18.4340   -2.5740   -6.9740 C.3    84  LEU84       0.0001
    155  CD2       17.4280   -4.2560   -5.5830 C.3    84  LEU84       0.0001
    156  N         24.2540   -4.5900   -4.6970 N.3    86  THR86      -0.1218
    157  CA        24.7220   -5.0440   -5.9980 C.3    86  THR86       0.1862
    158  C         26.1660   -5.4140   -5.9540 C.2    86  THR86       0.2287
    159  O         26.9570   -4.7260   -5.3090 O.2    86  THR86      -0.2866
    160  CB        24.4900   -3.9200   -7.0360 C.3    86  THR86       0.1770
    161  OG1       23.0530   -3.8110   -7.2200 O.3    86  THR86      -0.2211
    162  CG2       25.2760   -4.1830   -8.3580 C.3    86  THR86       0.0375
    163  N         28.9900   -5.3360   -8.5780 N.3    88  GLY88      -0.1285
    164  CA        29.3490   -4.8800   -9.9600 C.3    88  GLY88       0.1447
    165  C         30.7110   -5.4220  -10.4350 C.3    88  GLY88       0.2025
    166  O         31.7300   -5.4480   -9.6410 O.3    88  GLY88      -0.2188
    167  N         29.5610   -3.2140  -17.7980 N.3    98  ILE98      -0.1245
    168  CA        29.5390   -3.4650  -16.4130 C.3    98  ILE98       0.1561
    169  C         28.4320   -4.4940  -16.1890 C.2    98  ILE98       0.2260
    170  O         27.3130   -4.3540  -16.7590 O.2    98  ILE98      -0.2867
    171  CB        29.1400   -2.1610  -15.6760 C.3    98  ILE98       0.0252
    172  CG1       30.2430   -1.0890  -15.8380 C.3    98  ILE98       0.0019
    173  CG2       28.9340   -2.4560  -14.2050 C.3    98  ILE98       0.0019
    174  CD1       29.7430    0.2230  -15.2600 C.3    98  ILE98       0.0001
    175  N         26.0950   -6.5120  -13.3660 N.3   100  CYS100     -0.1235
    176  CA        25.6010   -6.2110  -12.0430 C.3   100  CYS100      0.1677
    177  C         24.8170   -7.4150  -11.6300 C.2   100  CYS100      0.2270
    178  O         23.8730   -7.8860  -12.3220 O.2   100  CYS100     -0.2867
    179  CB        24.6710   -4.9380  -11.9840 C.3   100  CYS100      0.0956
    180  SG        25.6920   -3.4890  -12.1260 S.3   100  CYS100     -0.0801
    181  N         22.1860   -8.1710   -8.7970 N.3   102  ASN102     -0.1240
    182  CA        21.4000   -7.2730   -7.9400 C.3   102  ASN102      0.1653
    183  C         20.5270   -8.1050   -7.0350 C.2   102  ASN102      0.2266
    184  O         19.8900   -8.9940   -7.4790 O.2   102  ASN102     -0.2867
    185  CB        20.5150   -6.3450   -8.8160 C.3   102  ASN102      0.1155
    186  CG        21.3000   -5.6400   -9.8420 C.2   102  ASN102      0.2627
    187  OD1       22.1220   -4.8140   -9.4800 O.2   102  ASN102     -0.2716
    188  ND2       21.0860   -5.9150  -11.1030 N.am  102  ASN102     -0.0877
@<TRIPOS>BOND
     1    39    38    2
     2    38    37    1
     3    20    21    2
     4    20    19    1
     5    37    36    1
     6    37    40    1
     7    40    41    1
     8    19    18    1
     9    19    22    1
    10   167   168    1
    11    28    29    1
    12    30    29    1
    13    30    31    2
    14    22    23    1
    15    41    42   ar
    16    41    43   ar
    17   170   169    2
    18    29    32    1
    19   168   169    1
    20   168   171    1
    21    42    44   ar
    22    43    45   ar
    23    23    24   ar
    24    23    25   ar
    25    14    15    2
    26    14    13    1
    27   172   171    1
    28   172   174    1
    29    24    26   ar
    30   171   173    1
    31    32    33    1
    32    25    27   ar
    33    13    16    1
    34    13    12    1
    35    33    34    1
    36    45    46   ar
    37    44    46   ar
    38    70    69   ar
    39    70    68   ar
    40    26    27   ar
    41    16    17    1
    42    55    56    1
    43    69    67   ar
    44    34    35    1
    45    53    51    1
    46    68    66   ar
    47   106   105   ar
    48   106   104   ar
    49   105   103   ar
    50   175   176    1
    51    67    65   ar
    52    56    59    1
    53    56    57    1
    54    51    48    1
    55    51    52    1
    56    47    48    1
    57    54    52    1
    58    66    65   ar
    59    57    58    2
    60   104   102   ar
    61   178   177    2
    62    65    64    1
    63    48    49    1
    64   103   102   ar
    65   180   179    1
    66    49    50    2
    67   176   179    1
    68   176   177    1
    69     7     9   ar
    70     7     6   ar
    71     3     2    1
    72     3     4    2
    73     5     2    1
    74     5     6    1
    75   114   112    1
    76   102   101    1
    77     9    11   ar
    78   147   146    1
    79    60    61    1
    80   188   186   am
    81   110   109    2
    82     2     1    1
    83     6     8   ar
    84   112   113    1
    85   112   111    1
    86    64    61    1
    87   109   108    1
    88   165   164    1
    89   165   166    1
    90    61    62    1
    91    11    10   ar
    92   100    99    2
    93   101    98    1
    94   164   163    1
    95   186   187    2
    96   186   185    1
    97   111   108    1
    98   146   145    1
    99     8    10   ar
   100    82    81    1
   101   108   107    1
   102    99    98    1
   103    98    97    1
   104    80    81   ar
   105    80    78   ar
   106    81    79   ar
   107    62    71   am
   108    62    63    2
   109   185   182    1
   110   181   182    1
   111   145   144    1
   112    71    72    1
   113    78    76   ar
   114   162   160    1
   115    79    77   ar
   116   182   183    1
   117    76    77   ar
   118    76    75    1
   119    97    93   am
   120   184   183    2
   121   115   116    1
   122   139   138    1
   123   144   141    1
   124   161   160    1
   125    72    75    1
   126    72    73    1
   127    86    85    2
   128   160   157    1
   129    94    93    2
   130   154   153    1
   131    74    73    2
   132   120   119    1
   133    93    92    1
   134   142   141    1
   135   142   143    2
   136   141   140    1
   137    85    84    1
   138   118   117    2
   139   119   116    1
   140   119   121    1
   141   138   137   ar
   142   138   136   ar
   143    87    84    1
   144    87    88    1
   145   137   135   ar
   146   116   117    1
   147    90    89    1
   148   157   158    1
   149   157   156    1
   150   158   159    2
   151   155   153    1
   152   153   152    1
   153    84    83    1
   154    88    89    1
   155    92    91    1
   156    92    95    1
   157   135   133   ar
   158   136   134   ar
   159    96    95    1
   160   152   149    1
   161   126   127    1
   162   126   123    1
   163   134   133   ar
   164   133   132    1
   165   122   123    1
   166   123   124    1
   167   149   150    1
   168   149   148    1
   169   132   129    1
   170   150   151    2
   171   131   130    2
   172   130   129    1
   173   124   125    2
   174   129   128    1
