@<TRIPOS>MOLECULE
tmp/6czyA00.pdb
 117 109 0 0 0
SMALL
GASTEIGER

@<TRIPOS>ATOM
      1  N         24.9260   56.3510   33.3190 N.3    10  ALA10      -0.1231
      2  CA        24.0040   55.7790   32.3410 C.3    10  ALA10       0.1694
      3  C         24.5730   54.5740   31.5890 C.2    10  ALA10       0.2592
      4  O         23.8840   53.9920   30.7660 O.2    10  ALA10      -0.2718
      5  CB        23.5630   56.8540   31.3190 C.3    10  ALA10       0.0304
      6  N         25.8360   54.2510   31.8170 N.am   11  GLY11      -0.1957
      7  CA        26.4700   53.0880   31.2020 C.3    11  GLY11       0.1869
      8  C         27.8820   53.4470   30.8060 C.2    11  GLY11       0.2309
      9  O         28.0570   54.4150   30.0950 O.2    11  GLY11      -0.2863
     10  N         32.4870   44.1970   21.0520 N.3    75  GLY75      -0.1210
     11  CA        32.2050   45.1950   20.0280 C.3    75  GLY75       0.1956
     12  C         31.1180   46.1910   20.3790 C.2    75  GLY75       0.2612
     13  O         30.9190   47.1770   19.6590 O.2    75  GLY75      -0.2717
     14  N         30.3990   45.9120   21.4530 N.am   76  GLY76      -0.1942
     15  CA        29.2390   46.7120   21.8780 C.3    76  GLY76       0.2014
     16  C         28.0140   46.5740   21.0340 C.2    76  GLY76       0.2639
     17  O         28.0500   45.9470   19.9910 O.2    76  GLY76      -0.2714
     18  N         26.9140   47.1930   21.4620 N.am   77  ALA77      -0.1963
     19  CA        25.7290   47.2570   20.6200 C.3    77  ALA77       0.1728
     20  C         26.0350   47.9130   19.2630 C.2    77  ALA77       0.2616
     21  O         25.3660   47.6000   18.2530 O.2    77  ALA77      -0.2715
     22  CB        24.6200   47.9850   21.3160 C.3    77  ALA77       0.0334
     23  N         26.9530   48.8740   19.2290 N.am   78  THR78      -0.1951
     24  CA        27.2510   49.5730   17.9500 C.3    78  THR78       0.1897
     25  C         27.7380   48.6280   16.8580 C.2    78  THR78       0.2313
     26  O         27.4490   48.8360   15.6760 O.2    78  THR78      -0.2863
     27  CB        28.2150   50.7470   18.1800 C.3    78  THR78       0.1794
     28  OG1       27.6270   51.6200   19.1330 O.3    78  THR78      -0.2208
     29  CG2       28.3370   51.5540   16.9040 C.3    78  THR78       0.0378
     30  N         24.7930   47.1070   15.1820 N.3    81  PHE81      -0.1241
     31  CA        24.1190   47.9530   14.2120 C.3    81  PHE81       0.1605
     32  C         24.5810   47.5540   12.7850 C.2    81  PHE81       0.2264
     33  O         23.8110   47.6910   11.8220 O.2    81  PHE81      -0.2867
     34  CB        24.3870   49.4430   14.4540 C.3    81  PHE81       0.0534
     35  CG        23.8820   50.0020   15.7550 C.ar   81  PHE81      -0.0203
     36  CD1       22.8770   49.3940   16.4700 C.ar   81  PHE81      -0.0042
     37  CD2       24.3350   51.2630   16.1860 C.ar   81  PHE81      -0.0042
     38  CE1       22.3980   49.9630   17.6400 C.ar   81  PHE81      -0.0003
     39  CE2       23.8490   51.8350   17.3620 C.ar   81  PHE81      -0.0003
     40  CZ        22.8790   51.1880   18.0730 C.ar   81  PHE81      -0.0000
     41  N         19.3610   56.4750   19.8660 N.3   103  TRP103     -0.1241
     42  CA        19.9700   55.1690   19.6370 C.3   103  TRP103      0.1605
     43  C         19.3920   54.4500   18.4250 C.2   103  TRP103      0.2264
     44  O         20.1550   53.8810   17.5970 O.2   103  TRP103     -0.2867
     45  CB        19.9820   54.2930   20.8940 C.3   103  TRP103      0.0550
     46  CG        20.9490   54.8620   21.8930 C.ar  103  TRP103      0.0003
     47  CD1       20.6700   55.4310   23.1070 C.ar  103  TRP103      0.0946
     48  CD2       22.3570   54.9800   21.7100 C.ar  103  TRP103      0.0152
     49  NE1       21.8330   55.8680   23.7030 N.ar  103  TRP103     -0.2442
     50  CE2       22.8840   55.5930   22.8590 C.ar  103  TRP103      0.0810
     51  CE3       23.2150   54.6340   20.6700 C.ar  103  TRP103      0.0012
     52  CZ2       24.2550   55.8570   22.9970 C.ar  103  TRP103      0.0191
     53  CZ3       24.5760   54.8720   20.8190 C.ar  103  TRP103      0.0001
     54  CH2       25.0690   55.4910   21.9430 C.ar  103  TRP103      0.0015
     55  N         14.2610   50.2960   19.4320 N.3   149  CYS149     -0.1235
     56  CA        15.1300   50.4040   20.6160 C.3   149  CYS149      0.1677
     57  C         14.1690   50.4130   21.7800 C.2   149  CYS149      0.2270
     58  O         13.3620   51.3400   21.9340 O.2   149  CYS149     -0.2867
     59  CB        15.9630   51.6700   20.5480 C.3   149  CYS149      0.0956
     60  SG        16.9630   51.8870   22.0550 S.3   149  CYS149     -0.0801
     61  N         14.4120   50.6010   25.0170 N.3   151  ASN151     -0.1240
     62  CA        14.6110   51.6220   26.0180 C.3   151  ASN151      0.1653
     63  C         15.6150   52.6180   25.4870 C.2   151  ASN151      0.2266
     64  O         16.8140   52.3070   25.3510 O.2   151  ASN151     -0.2867
     65  CB        15.0400   51.0150   27.3530 C.3   151  ASN151      0.1155
     66  CG        15.0590   52.0400   28.4720 C.2   151  ASN151      0.2627
     67  OD1       14.0010   52.3800   29.0530 O.2   151  ASN151     -0.2716
     68  ND2       16.2580   52.5660   28.7710 N.am  151  ASN151     -0.0877
     69  N         17.8910   55.3250   25.9890 N.3   153  THR153     -0.1218
     70  CA        18.6240   55.6500   27.2080 C.3   153  THR153      0.1862
     71  C         18.7500   57.1530   27.4980 C.2   153  THR153      0.2287
     72  O         18.8010   57.5710   28.6540 O.2   153  THR153     -0.2866
     73  CB        20.0270   55.0450   27.0600 C.3   153  THR153      0.1770
     74  OG1       19.9020   53.7590   26.4780 O.3   153  THR153     -0.2211
     75  CG2       20.7190   54.8470   28.4160 C.3   153  THR153      0.0375
     76  N         16.8650   46.4050   20.3320 N.3   173  ASP173     -0.1239
     77  CA        18.0120   46.8340   21.1550 C.3   173  ASP173      0.1674
     78  C         17.4900   47.0270   22.5550 C.2   173  ASP173      0.2266
     79  O         16.8470   48.0560   22.8230 O.2   173  ASP173     -0.2867
     80  CB        18.5550   48.1810   20.6020 C.3   173  ASP173      0.1410
     81  CG        19.6790   48.7690   21.3780 C.2   173  ASP173      0.3668
     82  OD1       20.0750   48.1960   22.4220 O.co2 173  ASP173     -0.2456
     83  OD2       20.1280   49.8840   20.9400 O.co2 173  ASP173     -0.2456
     84  N         19.6800   47.1490   25.1810 N.3   175  SER175     -0.1202
     85  CA        20.8820   47.4650   25.9820 C.3   175  SER175      0.2020
     86  C         20.5500   48.0330   27.3640 C.2   175  SER175      0.2619
     87  O         21.1360   47.6020   28.3640 O.2   175  SER175     -0.2717
     88  CB        21.7890   48.4920   25.2800 C.3   175  SER175      0.2103
     89  OG        22.2950   48.0170   24.0170 O.3   175  SER175     -0.2182
     90  N         19.7150   49.0660   27.4290 N.am  176  SER176     -0.1951
     91  CA        19.5640   49.7460   28.7210 C.3   176  SER176      0.1924
     92  C         18.3310   49.2870   29.5230 C.2   176  SER176      0.2314
     93  O         18.0660   49.8620   30.5570 O.2   176  SER176     -0.2863
     94  CB        19.5780   51.2750   28.5530 C.3   176  SER176      0.2116
     95  OG        18.5990   51.6680   27.5570 O.3   176  SER176     -0.2180
     96  N         24.3800   45.6660   24.9050 N.3   194  GLY194     -0.1225
     97  CA        25.6230   45.7250   25.7080 C.3   194  GLY194      0.1811
     98  C         25.3000   45.3770   27.1580 C.2   194  GLY194      0.2280
     99  O         24.1880   45.6350   27.6530 O.2   194  GLY194     -0.2866
    100  N         26.7760   46.5420   29.8200 N.3   196  GLN196     -0.1231
    101  CA        27.1800   47.5790   30.7240 C.3   196  GLN196      0.1698
    102  C         26.0990   48.4460   31.4190 C.2   196  GLN196      0.2592
    103  O         26.4540   49.4280   32.0480 O.2   196  GLN196     -0.2718
    104  CB        28.2500   48.4540   30.0610 C.3   196  GLN196      0.0381
    105  CG        27.7710   49.3280   28.9190 C.3   196  GLN196      0.0905
    106  CD        27.9070   48.6820   27.5550 C.2   196  GLN196      0.2608
    107  OE1       27.9790   47.4430   27.4260 O.2   196  GLN196     -0.2717
    108  NE2       27.9320   49.5180   26.5250 N.am  196  GLN196     -0.0878
    109  N         24.8040   48.1730   31.2760 N.am  197  LYS197     -0.1980
    110  CA        23.8060   48.8470   32.1210 C.3   197  LYS197      0.1596
    111  C         23.3020   48.0190   33.2070 C.2   197  LYS197      0.2287
    112  O         23.3750   48.3960   34.4030 O.2   197  LYS197     -0.2864
    113  CB        22.6270   49.3030   31.2370 C.3   197  LYS197      0.0298
    114  CG        22.9910   50.3570   30.2240 C.3   197  LYS197      0.0038
    115  CD        23.7860   49.7590   29.0650 C.3   197  LYS197      0.0206
    116  CE        23.8760   50.6510   27.8640 C.3   197  LYS197      0.1093
    117  NZ        23.9320   52.0660   28.2630 N.3   197  LYS197     -0.1314
@<TRIPOS>BOND
     1    33    32    2
     2    32    31    1
     3    31    34    1
     4    31    30    1
     5    34    35    1
     6    26    25    2
     7    35    37   ar
     8    35    36   ar
     9    37    39   ar
    10    36    38   ar
    11    25    24    1
    12    29    27    1
    13    39    40   ar
    14    44    43    2
    15    38    40   ar
    16    24    27    1
    17    24    23    1
    18    27    28    1
    19    21    20    2
    20    43    42    1
    21    23    20   am
    22    20    19    1
    23    55    56    1
    24    42    41    1
    25    42    45    1
    26    13    12    2
    27    17    16    2
    28    11    12    1
    29    11    10    1
    30    76    77    1
    31    12    14   am
    32    59    56    1
    33    59    60    1
    34    80    77    1
    35    80    81    1
    36    56    57    1
    37    19    22    1
    38    19    18    1
    39    51    53   ar
    40    51    48   ar
    41    53    54   ar
    42    45    46    1
    43    83    81   ar
    44    16    18   am
    45    16    15    1
    46    77    78    1
    47    81    82   ar
    48    14    15    1
    49    48    46   ar
    50    48    50   ar
    51    57    58    2
    52    46    47   ar
    53    54    52   ar
    54    78    79    2
    55    50    52   ar
    56    50    49   ar
    57    47    49   ar
    58    89    88    1
    59    96    97    1
    60    61    62    1
    61    84    85    1
    62    88    85    1
    63    64    63    2
    64    63    62    1
    65    97    98    1
    66    85    86    1
    67    69    70    1
    68    62    65    1
    69    74    73    1
    70   108   106   am
    71    73    70    1
    72    73    75    1
    73    98    99    2
    74    70    71    1
    75    65    66    1
    76    86    90   am
    77    86    87    2
    78   107   106    2
    79    90    91    1
    80    71    72    2
    81   106   105    1
    82    95    94    1
    83   116   117    1
    84   116   115    1
    85    66    68   am
    86    66    67    2
    87    94    91    1
    88    91    92    1
    89   105   104    1
    90   115   114    1
    91    92    93    2
    92   100   101    1
    93   104   101    1
    94     9     8    2
    95   114   113    1
    96   101   102    1
    97     4     3    2
    98     8     7    1
    99     7     6    1
   100   113   110    1
   101   109   102   am
   102   109   110    1
   103     5     2    1
   104   102   103    2
   105     3     6   am
   106     3     2    1
   107   110   111    1
   108     2     1    1
   109   111   112    2
