@<TRIPOS>MOLECULE
tmp/6czyA01.pdb
 84 79 0 0 0
SMALL
GASTEIGER

@<TRIPOS>ATOM
      1  N         12.3930   42.7830    5.6910 N.3   144  LYS144     -0.1245
      2  CA        12.9400   41.6000    6.3530 C.3   144  LYS144      0.1561
      3  C         12.6590   41.5930    7.8490 C.2   144  LYS144      0.2260
      4  O         12.4300   40.5330    8.4520 O.2   144  LYS144     -0.2867
      5  CB        14.4520   41.4920    6.1610 C.3   144  LYS144      0.0271
      6  CG        14.8510   41.2290    4.7240 C.3   144  LYS144      0.0035
      7  CD        14.3600   39.8980    4.2160 C.3   144  LYS144      0.0206
      8  CE        15.1240   38.7580    4.8100 C.3   144  LYS144      0.1093
      9  NZ        14.8960   37.5540    3.9560 N.3   144  LYS144     -0.1314
     10  N          3.7130   44.1670   16.3410 N.3   164  VAL164     -0.1231
     11  CA         3.7640   42.8720   15.6790 C.3   164  VAL164      0.1678
     12  C          4.2740   43.1080   14.2660 C.2   164  VAL164      0.2434
     13  O          3.6200   43.8030   13.4640 O.2   164  VAL164     -0.2733
     14  CB         2.3660   42.2190   15.6130 C.3   164  VAL164      0.0265
     15  CG1        2.3860   40.9030   14.8560 C.3   164  VAL164      0.0020
     16  CG2        1.8500   41.9840   17.0390 C.3   164  VAL164      0.0020
     17  N          5.4370   42.5570   13.9460 N.am  165  PRO165     -0.2729
     18  CA         5.9210   42.8020   12.5840 C.3   165  PRO165      0.1401
     19  C          5.0170   42.1570   11.5480 C.2   165  PRO165      0.2269
     20  O          4.5320   41.0550   11.7610 O.2   165  PRO165     -0.2865
     21  CB         7.3080   42.1730   12.5620 C.3   165  PRO165      0.0296
     22  CG         7.3940   41.3180   13.7460 C.3   165  PRO165      0.0237
     23  CD         6.3460   41.7200   14.7410 C.3   165  PRO165      0.0939
     24  N          5.5680   41.5290    7.7670 N.3   167  ASN167     -0.1225
     25  CA         6.1760   40.5490    6.8900 C.3   167  ASN167      0.1785
     26  C          7.2590   39.6920    7.5380 C.2   167  ASN167      0.2598
     27  O          7.4230   38.5030    7.1880 O.2   167  ASN167     -0.2718
     28  CB         6.8320   41.2340    5.6810 C.3   167  ASN167      0.1169
     29  CG         7.3860   40.2240    4.6830 C.2   167  ASN167      0.2627
     30  OD1        6.6160   39.4180    4.1120 O.2   167  ASN167     -0.2716
     31  ND2        8.7070   40.2210    4.4920 N.am  167  ASN167     -0.0877
     32  N          8.0360   40.3140    8.4220 N.am  168  GLY168     -0.1942
     33  CA         9.2260   39.6700    8.9800 C.3   168  GLY168      0.2014
     34  C          9.1370   39.4450   10.4750 C.2   168  GLY168      0.2638
     35  O          8.0790   39.0740   11.0160 O.2   168  GLY168     -0.2714
     36  N         10.2780   39.6680   11.1210 N.am  169  PHE169     -0.1973
     37  CA        10.4300   39.4660   12.5650 C.3   169  PHE169      0.1639
     38  C         10.8350   40.7710   13.2530 C.2   169  PHE169      0.2290
     39  O         11.0910   41.7970   12.5860 O.2   169  PHE169     -0.2864
     40  CB        11.4360   38.3370   12.8090 C.3   169  PHE169      0.0560
     41  CG        12.7950   38.5440   12.1700 C.ar  169  PHE169     -0.0200
     42  CD1       13.7900   39.2200   12.8440 C.ar  169  PHE169     -0.0042
     43  CD2       13.0750   38.0360   10.9160 C.ar  169  PHE169     -0.0042
     44  CE1       15.0390   39.3960   12.2680 C.ar  169  PHE169     -0.0003
     45  CE2       14.3170   38.2190   10.3360 C.ar  169  PHE169     -0.0003
     46  CZ        15.3030   38.8940   11.0280 C.ar  169  PHE169     -0.0000
     47  N          9.8650   34.7440   22.4550 N.3   186  SER186     -0.1202
     48  CA         9.3350   34.1430   21.2160 C.3   186  SER186      0.2020
     49  C          8.7110   35.2080   20.2780 C.2   186  SER186      0.2618
     50  O          8.5150   34.9340   19.0960 O.2   186  SER186     -0.2717
     51  CB         8.3100   33.0270   21.5760 C.3   186  SER186      0.2103
     52  OG         7.0760   33.6360   21.9220 O.3   186  SER186     -0.2182
     53  N          8.3910   36.4050   20.7980 N.am  187  LYS187     -0.1979
     54  CA         7.8890   37.5000   19.9870 C.3   187  LYS187      0.1596
     55  C          8.9770   38.1200   19.0870 C.2   187  LYS187      0.2287
     56  O          8.6610   38.8690   18.1790 O.2   187  LYS187     -0.2864
     57  CB         7.3310   38.6130   20.8650 C.3   187  LYS187      0.0298
     58  CG         6.0040   38.2930   21.5640 C.3   187  LYS187      0.0038
     59  CD         5.6410   39.5180   22.4190 C.3   187  LYS187      0.0206
     60  CE         4.4230   39.3640   23.3100 C.3   187  LYS187      0.1093
     61  NZ         3.2240   39.2150   22.4620 N.3   187  LYS187     -0.1314
     62  N         12.7640   37.9930   16.7520 N.3   189  GLY189     -0.1225
     63  CA        13.7910   37.2360   16.0560 C.3   189  GLY189      0.1811
     64  C         15.1460   37.4530   16.7100 C.2   189  GLY189      0.2280
     65  O         15.9550   36.5340   16.7650 O.2   189  GLY189     -0.2866
     66  N         16.9920   33.7840   17.1040 N.3   210  ARG210     -0.1245
     67  CA        16.2610   32.5820   16.6960 C.3   210  ARG210      0.1563
     68  C         17.1380   31.7520   15.7410 C.2   210  ARG210      0.2260
     69  O         17.6890   32.3020   14.7920 O.2   210  ARG210     -0.2867
     70  CB        14.9520   33.0020   16.0170 C.3   210  ARG210      0.0307
     71  CG        13.7660   32.0880   16.2850 C.3   210  ARG210      0.0489
     72  CD        12.5010   32.7810   15.7880 C.3   210  ARG210      0.2205
     73  NE        12.5110   32.8250   14.3540 N.pl3 210  ARG210     -0.0865
     74  CZ        11.8000   33.6430   13.5790 C.cat 210  ARG210      0.5346
     75  NH1       10.9460   34.5230   14.0910 N.pl3 210  ARG210      0.1354
     76  NH2       11.9230   33.5450   12.2590 N.pl3 210  ARG210      0.1354
     77  N         17.1970   31.9540   11.8830 N.3   213  LEU213     -0.1245
     78  CA        17.7150   33.1880   11.2460 C.3   213  LEU213      0.1561
     79  C         19.2340   33.2360   11.0980 C.2   213  LEU213      0.2260
     80  O         19.7740   34.1640   10.4980 O.2   213  LEU213     -0.2867
     81  CB        17.2600   34.4020   12.0610 C.3   213  LEU213      0.0270
     82  CG        15.7480   34.5250   12.2070 C.3   213  LEU213      0.0019
     83  CD1       15.3430   35.6860   13.0960 C.3   213  LEU213      0.0001
     84  CD2       15.0800   34.6070   10.8200 C.3   213  LEU213      0.0001
@<TRIPOS>BOND
     1     9     8    1
     2    30    29    2
     3     7     6    1
     4     7     8    1
     5    31    29   am
     6    29    28    1
     7     6     5    1
     8    28    25    1
     9     1     2    1
    10     5     2    1
    11     2     3    1
    12    25    26    1
    13    25    24    1
    14    27    26    2
    15    26    32   am
    16     3     4    2
    17    32    33    1
    18    33    34    1
    19    45    43   ar
    20    45    46   ar
    21    34    35    2
    22    34    36   am
    23    80    79    2
    24    84    82    1
    25    43    41   ar
    26    46    44   ar
    27    79    78    1
    28    36    37    1
    29    78    77    1
    30    78    81    1
    31    19    20    2
    32    19    18    1
    33    81    82    1
    34    41    40    1
    35    41    42   ar
    36    82    83    1
    37    76    74    1
    38    44    42   ar
    39    21    18    1
    40    21    22    1
    41    37    40    1
    42    37    38    1
    43    18    17    1
    44    39    38    2
    45    13    12    2
    46    74    75    1
    47    74    73    2
    48    22    23    1
    49    17    12   am
    50    17    23    1
    51    12    11    1
    52    73    72    1
    53    69    68    2
    54    15    14    1
    55    14    11    1
    56    14    16    1
    57    11    10    1
    58    68    67    1
    59    72    71    1
    60    70    71    1
    61    70    67    1
    62    63    64    1
    63    63    62    1
    64    67    66    1
    65    64    65    2
    66    56    55    2
    67    55    54    1
    68    50    49    2
    69    54    53    1
    70    54    57    1
    71    49    53   am
    72    49    48    1
    73    57    58    1
    74    48    51    1
    75    48    47    1
    76    58    59    1
    77    51    52    1
    78    59    60    1
    79    61    60    1
