@<TRIPOS>MOLECULE
tmp/6czzA01.pdb
 97 93 0 0 0
SMALL
GASTEIGER

@<TRIPOS>ATOM
      1  N         14.4030   46.9770   54.2570 N.3     8  ALA8       -0.1231
      2  CA        15.2950   46.1370   53.4560 C.3     8  ALA8        0.1694
      3  C         15.7920   44.9030   54.1650 C.2     8  ALA8        0.2592
      4  O         16.4730   44.1240   53.5220 O.2     8  ALA8       -0.2718
      5  CB        16.5190   46.9260   52.9600 C.3     8  ALA8        0.0304
      6  N         15.4890   44.6740   55.4470 N.am    9  GLY9       -0.1957
      7  CA        16.0270   43.4970   56.0850 C.3     9  GLY9        0.1869
      8  C         16.5060   43.9000   57.4670 C.2     9  GLY9        0.2309
      9  O         17.3220   44.8120   57.6010 O.2     9  GLY9       -0.2863
     10  N         27.6110   45.7720   48.7310 N.3   101  TRP101     -0.1241
     11  CA        27.7350   44.5110   49.4610 C.3   101  TRP101      0.1605
     12  C         28.8760   43.6590   48.9000 C.2   101  TRP101      0.2264
     13  O         29.5810   42.9700   49.6480 O.2   101  TRP101     -0.2867
     14  CB        26.4080   43.7580   49.4610 C.3   101  TRP101      0.0550
     15  CG        25.4840   44.3600   50.4820 C.ar  101  TRP101      0.0003
     16  CD1       24.3290   45.0300   50.2440 C.ar  101  TRP101      0.0946
     17  CD2       25.7010   44.4210   51.8940 C.ar  101  TRP101      0.0152
     18  NE1       23.7910   45.5070   51.4140 N.ar  101  TRP101     -0.2442
     19  CE2       24.6110   45.1320   52.4520 C.ar  101  TRP101      0.0810
     20  CE3       26.6960   43.9280   52.7500 C.ar  101  TRP101      0.0012
     21  CZ2       24.5130   45.3880   53.8210 C.ar  101  TRP101      0.0191
     22  CZ3       26.5860   44.1650   54.1180 C.ar  101  TRP101      0.0001
     23  CH2       25.4910   44.8650   54.6360 C.ar  101  TRP101      0.0015
     24  N         31.9680   44.9710   50.3970 N.3   104  LYS104     -0.1245
     25  CA        32.2600   44.5030   51.7540 C.3   104  LYS104      0.1561
     26  C         32.8110   43.0890   51.7430 C.2   104  LYS104      0.2260
     27  O         33.6540   42.7390   52.5810 O.2   104  LYS104     -0.2867
     28  CB        30.9880   44.5670   52.6130 C.3   104  LYS104      0.0271
     29  CG        30.6600   46.0110   52.9840 C.3   104  LYS104      0.0035
     30  CD        29.3050   46.2250   53.7000 C.3   104  LYS104      0.0206
     31  CE        29.0070   47.7830   53.7500 C.3   104  LYS104      0.1093
     32  NZ        27.4990   48.0990   53.9290 N.3   104  LYS104     -0.1314
     33  N         21.4760   45.1390   47.4040 N.3   151  THR151     -0.1203
     34  CA        20.2840   45.5680   48.1370 C.3   151  THR151      0.1994
     35  C         20.1670   47.0780   48.2220 C.2   151  THR151      0.2617
     36  O         19.0430   47.6090   48.3240 O.2   151  THR151     -0.2717
     37  CB        20.3850   44.9740   49.5690 C.3   151  THR151      0.1784
     38  OG1       20.9130   43.6530   49.4890 O.3   151  THR151     -0.2211
     39  CG2       19.0220   44.8890   50.3070 C.3   151  THR151      0.0376
     40  N         21.3060   47.7770   48.3290 N.am  152  ILE152     -0.1979
     41  CA        21.3060   49.2390   48.4560 C.3   152  ILE152      0.1595
     42  C         21.2010   49.8990   47.0920 C.2   152  ILE152      0.2287
     43  O         20.5960   50.9730   46.9480 O.2   152  ILE152     -0.2864
     44  CB        22.5820   49.6940   49.1980 C.3   152  ILE152      0.0276
     45  CG1       22.4980   49.2490   50.6400 C.3   152  ILE152      0.0022
     46  CG2       22.7790   51.1890   49.0890 C.3   152  ILE152      0.0022
     47  CD1       23.8170   49.2870   51.3940 C.3   152  ILE152      0.0001
     48  N         17.0130   37.1040   56.7270 N.3   194  GLN194     -0.1231
     49  CA        16.1110   38.1620   57.1740 C.3   194  GLN194      0.1698
     50  C         15.6460   39.0770   56.0300 C.2   194  GLN194      0.2592
     51  O         14.7710   39.8850   56.2050 O.2   194  GLN194     -0.2718
     52  CB        16.7840   39.0180   58.2300 C.3   194  GLN194      0.0381
     53  CG        17.9840   39.8000   57.7010 C.3   194  GLN194      0.0905
     54  CD        19.3140   39.0160   57.7650 C.2   194  GLN194      0.2608
     55  OE1       19.3470   37.8000   57.9750 O.2   194  GLN194     -0.2717
     56  NE2       20.4050   39.7310   57.6560 N.am  194  GLN194     -0.0878
     57  N         16.2850   39.0420   54.8890 N.am  195  LYS195     -0.1980
     58  CA        15.8140   39.8980   53.8020 C.3   195  LYS195      0.1596
     59  C         14.5460   39.3050   53.2360 C.2   195  LYS195      0.2287
     60  O         13.4890   39.9500   53.2910 O.2   195  LYS195     -0.2864
     61  CB        16.9010   40.0310   52.7520 C.3   195  LYS195      0.0298
     62  CG        17.9920   41.0310   53.0530 C.3   195  LYS195      0.0038
     63  CD        18.9030   40.5580   54.1370 C.3   195  LYS195      0.0206
     64  CE        20.3300   41.0380   53.9190 C.3   195  LYS195      0.1093
     65  NZ        20.5360   42.4580   54.2770 N.3   195  LYS195     -0.1314
     66  N         18.9220   53.2780   52.2830 N.3   326  HIS326     -0.1226
     67  CA        20.0660   52.9680   53.1390 C.3   326  HIS326      0.1752
     68  C         20.8560   54.2380   53.4020 C.2   326  HIS326      0.2595
     69  O         21.0070   55.0870   52.5100 O.2   326  HIS326     -0.2718
     70  CB        20.9580   51.9250   52.4750 C.3   326  HIS326      0.0759
     71  CG        21.9780   51.3310   53.3930 C.ar  326  HIS326      0.0818
     72  ND1       23.1770   51.9430   53.6700 N.ar  326  HIS326     -0.2268
     73  CD2       21.9820   50.1610   54.0700 C.ar  326  HIS326      0.1154
     74  CE1       23.8840   51.1760   54.4800 C.ar  326  HIS326      0.1986
     75  NE2       23.1810   50.0850   54.7370 N.ar  326  HIS326     -0.2212
     76  N         21.3380   54.3690   54.6540 N.am  327  ARG327     -0.1980
     77  CA        21.9950   55.5810   55.1240 C.3   327  ARG327      0.1597
     78  C         23.2560   55.9130   54.3360 C.2   327  ARG327      0.2287
     79  O         23.6710   57.0810   54.3240 O.2   327  ARG327     -0.2864
     80  CB        22.3470   55.4370   56.6150 C.3   327  ARG327      0.0334
     81  CG        23.3620   54.3310   56.8720 C.3   327  ARG327      0.0492
     82  CD        23.3950   53.8620   58.3460 C.3   327  ARG327      0.2205
     83  NE        24.1970   52.6390   58.5060 N.pl3 327  ARG327     -0.0865
     84  CZ        23.8170   51.4190   58.1290 C.cat 327  ARG327      0.5346
     85  NH1       24.6590   50.3930   58.3300 N.pl3 327  ARG327      0.1354
     86  NH2       22.6170   51.2120   57.5500 N.pl3 327  ARG327      0.1354
     87  N         14.1360   54.0700   49.1810 N.3   333  ARG333     -0.1245
     88  CA        14.3110   52.6950   48.7240 C.3   333  ARG333      0.1563
     89  C         13.0550   51.9440   49.1170 C.2   333  ARG333      0.2260
     90  O         12.7840   51.7950   50.3150 O.2   333  ARG333     -0.2867
     91  CB        15.5540   52.0290   49.3190 C.3   333  ARG333      0.0307
     92  CG        15.5800   50.4980   49.0610 C.3   333  ARG333      0.0489
     93  CD        16.8590   49.7810   49.5190 C.3   333  ARG333      0.2205
     94  NE        17.1370   50.0350   50.9480 N.pl3 333  ARG333     -0.0865
     95  CZ        18.1440   49.4950   51.6300 C.cat 333  ARG333      0.5346
     96  NH1       18.9720   48.6450   51.0410 N.pl3 333  ARG333      0.1354
     97  NH2       18.3250   49.8070   52.9050 N.pl3 333  ARG333      0.1354
@<TRIPOS>BOND
     1    43    42    2
     2    42    41    1
     3    33    34    1
     4    34    35    1
     5    34    37    1
     6    35    36    2
     7    35    40   am
     8    40    41    1
     9    41    44    1
    10    88    89    1
    11    88    87    1
    12    88    91    1
    13    10    11    1
    14    12    11    1
    15    12    13    2
    16    92    91    1
    17    92    93    1
    18    46    44    1
    19    89    90    2
    20    44    45    1
    21    14    11    1
    22    14    15    1
    23    38    37    1
    24    93    94    1
    25    37    39    1
    26    16    15   ar
    27    16    18   ar
    28    24    25    1
    29    15    17   ar
    30    45    47    1
    31    94    95    2
    32    96    95    1
    33    18    19   ar
    34    95    97    1
    35    26    25    1
    36    26    27    2
    37    25    28    1
    38    17    19   ar
    39    17    20   ar
    40    66    67    1
    41    19    21   ar
    42    70    67    1
    43    70    71    1
    44    69    68    2
    45    28    29    1
    46    20    22   ar
    47    61    62    1
    48    61    58    1
    49     5     2    1
    50    29    30    1
    51    62    63    1
    52    67    68    1
    53    59    60    2
    54    59    58    1
    55    71    72   ar
    56    71    73   ar
    57    68    76   am
    58     2     3    1
    59     2     1    1
    60     4     3    2
    61    72    74   ar
    62    30    31    1
    63    31    32    1
    64    58    57    1
    65    21    23   ar
    66    64    63    1
    67    64    65    1
    68    73    75   ar
    69    22    23   ar
    70     3     6   am
    71    79    78    2
    72    78    77    1
    73    74    75   ar
    74    76    77    1
    75    57    50   am
    76    77    80    1
    77     6     7    1
    78    50    51    2
    79    50    49    1
    80     7     8    1
    81    80    81    1
    82    48    49    1
    83    81    82    1
    84    49    52    1
    85     8     9    2
    86    86    84    1
    87    56    54   am
    88    53    54    1
    89    53    52    1
    90    54    55    2
    91    84    85    1
    92    84    83    2
    93    82    83    1
