@<TRIPOS>MOLECULE
tmp/6d09A00.pdb
 188 174 0 0 0
SMALL
GASTEIGER

@<TRIPOS>ATOM
      1  N         18.3280  -10.6620   -9.6240 N.3     9  PHE9       -0.1241
      2  CA        18.2280  -10.5600  -11.1100 C.3     9  PHE9        0.1605
      3  C         19.4790   -9.8940  -11.6080 C.2     9  PHE9        0.2264
      4  O         20.1110   -9.1730  -10.8750 O.2     9  PHE9       -0.2867
      5  CB        16.9730   -9.7690  -11.5770 C.3     9  PHE9        0.0534
      6  CG        16.9180   -8.3590  -11.0850 C.ar    9  PHE9       -0.0203
      7  CD1       16.5500   -8.0500   -9.7420 C.ar    9  PHE9       -0.0042
      8  CD2       17.3210   -7.3170  -11.9210 C.ar    9  PHE9       -0.0042
      9  CE1       16.5620   -6.7350   -9.2860 C.ar    9  PHE9       -0.0003
     10  CE2       17.3930   -6.0100  -11.4470 C.ar    9  PHE9       -0.0003
     11  CZ        17.0090   -5.7070  -10.1290 C.ar    9  PHE9       -0.0000
     12  N         21.4440   -7.3190  -14.4350 N.3    11  SER11      -0.1217
     13  CA        21.3430   -6.2660  -15.4270 C.3    11  SER11       0.1889
     14  C         22.7080   -5.9820  -15.9820 C.2    11  SER11       0.2288
     15  O         23.7360   -6.3650  -15.3840 O.2    11  SER11      -0.2866
     16  CB        20.7420   -4.9890  -14.8050 C.3    11  SER11       0.2089
     17  OG        21.5060   -4.4670  -13.6990 O.3    11  SER11      -0.2183
     18  N         24.9640   -2.9250  -18.1390 N.3    13  HIS13      -0.1241
     19  CA        24.9830   -1.5270  -18.3020 C.3    13  HIS13       0.1621
     20  C         26.1630   -1.1310  -19.1460 C.2    13  HIS13       0.2264
     21  O         27.2710   -1.7070  -18.9790 O.2    13  HIS13      -0.2867
     22  CB        25.0540   -0.7900  -16.9520 C.3    13  HIS13       0.0745
     23  CG        23.9330   -1.0990  -16.0030 C.ar   13  HIS13       0.0817
     24  ND1       22.9060   -0.2060  -15.7180 N.ar   13  HIS13      -0.2268
     25  CD2       23.6250   -2.2660  -15.3200 C.ar   13  HIS13       0.1154
     26  CE1       22.0390   -0.8010  -14.8520 C.ar   13  HIS13       0.1986
     27  NE2       22.4540   -2.0420  -14.6310 N.ar   13  HIS13      -0.2212
     28  N         26.5670    3.8190  -17.5910 N.3    17  MET17      -0.1245
     29  CA        25.5740    3.3190  -16.6280 C.3    17  MET17       0.1570
     30  C         24.1830    3.1870  -17.1500 C.2    17  MET17       0.2261
     31  O         23.2590    2.8930  -16.3740 O.2    17  MET17      -0.2867
     32  CB        25.4910    4.1940  -15.3560 C.3    17  MET17       0.0387
     33  CG        26.3480    3.7300  -14.2040 C.3    17  MET17       0.0595
     34  SD        26.5590    5.0720  -13.0170 S.3    17  MET17      -0.1393
     35  CE        27.7910    5.9980  -13.9430 C.3    17  MET17       0.0692
     36  N         21.2490    1.1750  -18.6730 N.3    19  PHE19      -0.1241
     37  CA        20.8040   -0.1880  -18.9740 C.3    19  PHE19       0.1605
     38  C         20.9910   -0.5600  -20.4520 C.2    19  PHE19       0.2264
     39  O         20.4660    0.1460  -21.3100 O.2    19  PHE19      -0.2867
     40  CB        19.2940   -0.3990  -18.6180 C.3    19  PHE19       0.0534
     41  CG        19.0070   -0.5110  -17.1130 C.ar   19  PHE19      -0.0203
     42  CD1       19.0790   -1.7530  -16.4500 C.ar   19  PHE19      -0.0042
     43  CD2       18.6930    0.6430  -16.3370 C.ar   19  PHE19      -0.0042
     44  CE1       18.8340   -1.8120  -15.0570 C.ar   19  PHE19      -0.0003
     45  CE2       18.4890    0.5900  -14.9600 C.ar   19  PHE19      -0.0003
     46  CZ        18.5170   -0.6500  -14.3210 C.ar   19  PHE19      -0.0000
     47  N         12.7800   -8.5830  -12.9450 N.3    26  ILE26      -0.1245
     48  CA        12.7220   -7.3040  -12.2960 C.3    26  ILE26       0.1561
     49  C         11.2810   -6.8220  -12.2730 C.2    26  ILE26       0.2260
     50  O         10.9000   -5.9630  -11.4270 O.2    26  ILE26      -0.2867
     51  CB        13.5840   -6.2410  -12.9460 C.3    26  ILE26       0.0252
     52  CG1       13.7280   -5.0590  -11.9890 C.3    26  ILE26       0.0019
     53  CG2       13.0710   -5.8130  -14.3280 C.3    26  ILE26       0.0019
     54  CD1       14.6270   -3.9750  -12.5920 C.3    26  ILE26       0.0001
     55  N         21.1790    4.3450  -14.5380 N.3    42  ALA42      -0.1245
     56  CA        20.9090    3.9310  -13.1710 C.3    42  ALA42       0.1562
     57  C         20.6780    5.1050  -12.2870 C.2    42  ALA42       0.2260
     58  O         19.8830    5.0340  -11.3510 O.2    42  ALA42      -0.2867
     59  CB        22.1050    3.1420  -12.6210 C.3    42  ALA42       0.0290
     60  N         17.3650    6.3570  -11.1920 N.3    45  PHE45      -0.1227
     61  CA        16.5250    5.5700  -10.2600 C.3    45  PHE45       0.1736
     62  C         16.8920    5.5800   -8.7370 C.2    45  PHE45       0.2595
     63  O         16.1250    5.1420   -7.9160 O.2    45  PHE45      -0.2718
     64  CB        16.4410    4.0860  -10.7230 C.3    45  PHE45       0.0547
     65  CG        15.9700    3.9080  -12.1420 C.ar   45  PHE45      -0.0202
     66  CD1       16.8850    3.9270  -13.1910 C.ar   45  PHE45      -0.0042
     67  CD2       14.6060    3.6680  -12.4240 C.ar   45  PHE45      -0.0042
     68  CE1       16.5100    3.8160  -14.5410 C.ar   45  PHE45      -0.0003
     69  CE2       14.2190    3.5150  -13.7650 C.ar   45  PHE45      -0.0003
     70  CZ        15.1470    3.5920  -14.8090 C.ar   45  PHE45      -0.0000
     71  N         18.1070    5.9950   -8.3870 N.am   46  TYR46      -0.1976
     72  CA        18.5700    5.9420   -7.0290 C.3    46  TYR46       0.1639
     73  C         17.8380    6.9850   -6.2050 C.2    46  TYR46       0.2290
     74  O         17.6000    8.1070   -6.6820 O.2    46  TYR46      -0.2864
     75  CB        20.0500    6.3850   -7.0000 C.3    46  TYR46       0.0560
     76  CG        20.9880    5.4200   -7.6820 C.ar   46  TYR46      -0.0198
     77  CD1       20.7650    4.0410   -7.6360 C.ar   46  TYR46      -0.0009
     78  CD2       22.1700    5.8710   -8.2580 C.ar   46  TYR46      -0.0009
     79  CE1       21.6420    3.1380   -8.2180 C.ar   46  TYR46       0.0417
     80  CE2       23.0560    4.9680   -8.8360 C.ar   46  TYR46       0.0417
     81  CZ        22.7990    3.6230   -8.7900 C.ar   46  TYR46       0.1957
     82  OH        23.7130    2.7850   -9.3920 O.3    46  TYR46      -0.2866
     83  N         26.4210    5.8790   -4.2680 N.3    54  MET54      -0.1245
     84  CA        26.5070    5.1190   -5.4950 C.3    54  MET54       0.1570
     85  C         27.5330    5.7310   -6.3810 C.2    54  MET54       0.2261
     86  O         28.2420    5.0120   -7.0550 O.2    54  MET54      -0.2867
     87  CB        25.1470    5.0770   -6.2540 C.3    54  MET54       0.0387
     88  CG        24.0410    4.6020   -5.3280 C.3    54  MET54       0.0595
     89  SD        24.4990    3.0290   -4.5620 S.3    54  MET54      -0.1393
     90  CE        24.5030    1.8670   -5.9420 C.3    54  MET54       0.0692
     91  N         30.7530    4.2420   -5.2210 N.3    57  SER57      -0.1202
     92  CA        30.8420    2.8280   -5.5720 C.3    57  SER57       0.2020
     93  C         31.2200    2.7550   -7.0180 C.2    57  SER57       0.2618
     94  O         32.0420    1.9250   -7.3990 O.2    57  SER57      -0.2717
     95  CB        29.5150    2.1190   -5.3530 C.3    57  SER57       0.2103
     96  OG        29.3140    1.9570   -3.9870 O.3    57  SER57      -0.2182
     97  N         30.6460    3.6440   -7.8280 N.am   58  HIS58      -0.1975
     98  CA        30.9680    3.6220   -9.2380 C.3    58  HIS58       0.1656
     99  C         32.4310    3.9170   -9.4310 C.2    58  HIS58       0.2291
    100  O         33.0840    3.2210  -10.1790 O.2    58  HIS58      -0.2864
    101  CB        30.0680    4.5070  -10.0940 C.3    58  HIS58       0.0771
    102  CG        30.2490    4.2780  -11.5820 C.ar   58  HIS58       0.0820
    103  ND1       29.6850    3.2250  -12.2410 N.ar   58  HIS58      -0.2267
    104  CD2       30.9990    4.9770  -12.5260 C.ar   58  HIS58       0.1154
    105  CE1       30.0570    3.2620  -13.5340 C.ar   58  HIS58       0.1986
    106  NE2       30.8640    4.3340  -13.7090 N.ar   58  HIS58      -0.2212
    107  N         34.4320    0.8160   -8.6540 N.3    61  LEU61      -0.1245
    108  CA        34.2230   -0.0800   -9.8120 C.3    61  LEU61       0.1561
    109  C         35.1020    0.2580  -11.0450 C.2    61  LEU61       0.2260
    110  O         35.6770   -0.6450  -11.7130 O.2    61  LEU61      -0.2867
    111  CB        32.7140   -0.1040  -10.2110 C.3    61  LEU61       0.0270
    112  CG        32.4570   -0.8040  -11.5370 C.3    61  LEU61       0.0019
    113  CD1       32.6160   -2.3090  -11.3000 C.3    61  LEU61       0.0001
    114  CD2       31.0950   -0.4810  -12.2110 C.3    61  LEU61       0.0001
    115  N         32.9820   -4.2410   -7.6790 N.3    67  VAL67      -0.1245
    116  CA        32.5500   -3.5430   -6.4400 C.3    67  VAL67       0.1561
    117  C         31.3120   -4.1820   -5.8750 C.2    67  VAL67       0.2260
    118  O         30.4950   -4.7410   -6.6230 O.2    67  VAL67      -0.2867
    119  CB        32.2810   -2.0100   -6.6310 C.3    67  VAL67       0.0252
    120  CG1       30.8910   -1.7040   -7.2490 C.3    67  VAL67       0.0019
    121  CG2       32.4010   -1.2620   -5.3010 C.3    67  VAL67       0.0019
    122  N         28.1070   -2.7550   -3.9650 N.3    69  SER69      -0.1217
    123  CA        27.4490   -1.4880   -3.6430 C.3    69  SER69       0.1889
    124  C         27.1330   -1.3120   -2.1550 C.2    69  SER69       0.2288
    125  O         26.9860   -0.1620   -1.6940 O.2    69  SER69      -0.2866
    126  CB        26.0870   -1.3660   -4.3530 C.3    69  SER69       0.2089
    127  OG        25.1510   -2.1280   -3.6300 O.3    69  SER69      -0.2183
    128  N         21.2150    0.4130   -1.0080 N.3    72  TYR72      -0.1241
    129  CA        20.6460    1.5910   -1.6640 C.3    72  TYR72       0.1605
    130  C         19.1660    1.3130   -2.0370 C.2    72  TYR72       0.2264
    131  O         18.7230    0.1720   -1.9860 O.2    72  TYR72      -0.2867
    132  CB        21.4860    1.9960   -2.8900 C.3    72  TYR72       0.0534
    133  CG        21.3940    1.0410   -4.0480 C.ar   72  TYR72      -0.0201
    134  CD1       22.1800   -0.1300   -4.0820 C.ar   72  TYR72      -0.0009
    135  CD2       20.5380    1.2820   -5.1010 C.ar   72  TYR72      -0.0009
    136  CE1       22.1000   -1.0340   -5.1510 C.ar   72  TYR72       0.0417
    137  CE2       20.4510    0.3930   -6.1920 C.ar   72  TYR72       0.0417
    138  CZ        21.2050   -0.7740   -6.1980 C.ar   72  TYR72       0.1957
    139  OH        21.1350   -1.6580   -7.2390 O.3    72  TYR72      -0.2866
    140  N         15.9470    1.8320   -4.8750 N.3    74  MET74      -0.1245
    141  CA        15.4910    2.0890   -6.2730 C.3    74  MET74       0.1570
    142  C         14.0140    2.5130   -6.3200 C.2    74  MET74       0.2261
    143  O         13.2190    1.8640   -5.7070 O.2    74  MET74      -0.2867
    144  CB        15.5740    0.8090   -7.1110 C.3    74  MET74       0.0387
    145  CG        15.2570    1.0350   -8.5950 C.3    74  MET74       0.0595
    146  SD        15.4320   -0.4680   -9.6010 S.3    74  MET74      -0.1393
    147  CE        15.2870    0.3230  -11.1970 C.3    74  MET74       0.0692
    148  N         18.1450   -2.4720   -2.2070 N.3    84  LEU84      -0.1245
    149  CA        18.8260   -3.4540   -2.9560 C.3    84  LEU84       0.1561
    150  C         20.2600   -3.4520   -2.5370 C.2    84  LEU84       0.2260
    151  O         20.7780   -2.4780   -2.0150 O.2    84  LEU84      -0.2867
    152  CB        18.7950   -3.1170   -4.4950 C.3    84  LEU84       0.0270
    153  CG        17.6390   -2.8260   -5.4720 C.3    84  LEU84       0.0019
    154  CD1       18.1220   -3.1700   -6.8610 C.3    84  LEU84       0.0001
    155  CD2       16.3900   -3.6480   -5.2570 C.3    84  LEU84       0.0001
    156  N         23.9330   -4.6080   -4.8190 N.3    86  THR86      -0.1218
    157  CA        24.3630   -5.0330   -6.1030 C.3    86  THR86       0.1862
    158  C         25.8280   -5.4140   -6.0670 C.2    86  THR86       0.2287
    159  O         26.6440   -4.6800   -5.4880 O.2    86  THR86      -0.2866
    160  CB        24.1530   -3.8590   -7.0640 C.3    86  THR86       0.1770
    161  OG1       22.7300   -3.6870   -7.3160 O.3    86  THR86      -0.2211
    162  CG2       24.8850   -4.1150   -8.3900 C.3    86  THR86       0.0375
    163  N         28.7020   -5.4190   -8.8030 N.3    88  GLY88      -0.1285
    164  CA        29.0330   -4.9440  -10.1360 C.3    88  GLY88       0.1447
    165  C         30.3970   -5.4320  -10.5780 C.3    88  GLY88       0.2025
    166  O         31.3880   -5.4320   -9.7460 O.3    88  GLY88      -0.2188
    167  N         29.1470   -3.2850  -17.8470 N.3    98  ILE98      -0.1245
    168  CA        29.0140   -3.5570  -16.4590 C.3    98  ILE98       0.1561
    169  C         27.9160   -4.5830  -16.2680 C.2    98  ILE98       0.2260
    170  O         26.7490   -4.3550  -16.6780 O.2    98  ILE98      -0.2867
    171  CB        28.7030   -2.2510  -15.6460 C.3    98  ILE98       0.0252
    172  CG1       29.7920   -1.2150  -15.8620 C.3    98  ILE98       0.0019
    173  CG2       28.6160   -2.6090  -14.1980 C.3    98  ILE98       0.0019
    174  CD1       29.5060    0.1910  -15.3650 C.3    98  ILE98       0.0001
    175  N         25.7270   -6.4970  -13.5170 N.3   100  CYS100     -0.1235
    176  CA        25.2340   -6.2440  -12.2000 C.3   100  CYS100      0.1677
    177  C         24.4030   -7.4120  -11.7370 C.2   100  CYS100      0.2270
    178  O         23.3870   -7.8290  -12.4040 O.2   100  CYS100     -0.2867
    179  CB        24.3620   -4.9890  -12.1640 C.3   100  CYS100      0.0956
    180  SG        25.3320   -3.5070  -12.1460 S.3   100  CYS100     -0.0801
    181  N         21.8480   -8.2090   -8.9030 N.3   102  ASN102     -0.1240
    182  CA        21.1140   -7.2930   -8.0170 C.3   102  ASN102      0.1653
    183  C         20.2540   -8.1090   -7.0630 C.2   102  ASN102      0.2266
    184  O         19.5850   -8.9840   -7.4980 O.2   102  ASN102     -0.2867
    185  CB        20.2320   -6.3240   -8.8650 C.3   102  ASN102      0.1155
    186  CG        21.0270   -5.6540   -9.9420 C.2   102  ASN102      0.2627
    187  OD1       21.8420   -4.7700   -9.6720 O.2   102  ASN102     -0.2716
    188  ND2       20.7440   -6.0240  -11.1930 N.am  102  ASN102     -0.0877
@<TRIPOS>BOND
     1    39    38    2
     2    38    37    1
     3    20    21    2
     4    20    19    1
     5    37    36    1
     6    37    40    1
     7    40    41    1
     8    19    18    1
     9    19    22    1
    10   167   168    1
    11    28    29    1
    12    30    29    1
    13    30    31    2
    14    41    42   ar
    15    41    43   ar
    16    22    23    1
    17   170   169    2
    18    29    32    1
    19   168   169    1
    20   168   171    1
    21    42    44   ar
    22    43    45   ar
    23    23    24   ar
    24    23    25   ar
    25    14    13    1
    26    14    15    2
    27   172   171    1
    28   172   174    1
    29    24    26   ar
    30   171   173    1
    31    13    16    1
    32    13    12    1
    33    32    33    1
    34    25    27   ar
    35    44    46   ar
    36    45    46   ar
    37    26    27   ar
    38    70    68   ar
    39    70    69   ar
    40    16    17    1
    41    68    66   ar
    42    55    56    1
    43    53    51    1
    44    33    34    1
    45    35    34    1
    46    69    67   ar
    47   106   105   ar
    48   106   104   ar
    49   105   103   ar
    50   175   176    1
    51    66    65   ar
    52    56    59    1
    53    56    57    1
    54    51    48    1
    55    51    52    1
    56    47    48    1
    57    54    52    1
    58   104   102   ar
    59    67    65   ar
    60   178   177    2
    61    48    49    1
    62    57    58    2
    63    49    50    2
    64   103   102   ar
    65   114   112    1
    66   176   179    1
    67   176   177    1
    68   179   180    1
    69    65    64    1
    70     8    10   ar
    71     8     6   ar
    72   110   109    2
    73     3     2    1
    74     3     4    2
    75   102   101    1
    76     5     2    1
    77     5     6    1
    78   112   113    1
    79   112   111    1
    80    10    11   ar
    81   147   146    1
    82   188   186   am
    83    60    61    1
    84     2     1    1
    85     6     7   ar
    86   109   108    1
    87    64    61    1
    88   165   164    1
    89   165   166    1
    90    61    62    1
    91   111   108    1
    92   100    99    2
    93   164   163    1
    94    11     9   ar
    95   101    98    1
    96   186   187    2
    97   186   185    1
    98   108   107    1
    99     7     9   ar
   100   146   145    1
   101    99    98    1
   102    82    81    1
   103    98    97    1
   104   181   182    1
   105   185   182    1
   106    80    81   ar
   107    80    78   ar
   108    81    79   ar
   109    62    71   am
   110    62    63    2
   111   145   144    1
   112   162   160    1
   113    71    72    1
   114    78    76   ar
   115    79    77   ar
   116   182   183    1
   117    97    93   am
   118    76    77   ar
   119    76    75    1
   120   115   116    1
   121   184   183    2
   122    94    93    2
   123   161   160    1
   124   120   119    1
   125   139   138    1
   126   144   141    1
   127   160   157    1
   128    86    85    2
   129    72    75    1
   130    72    73    1
   131    93    92    1
   132   154   153    1
   133    74    73    2
   134   119   116    1
   135   119   121    1
   136   118   117    2
   137   116   117    1
   138    85    84    1
   139   142   141    1
   140   142   143    2
   141   141   140    1
   142    87    84    1
   143    87    88    1
   144   138   137   ar
   145   138   136   ar
   146   137   135   ar
   147   157   158    1
   148   157   156    1
   149   158   159    2
   150    90    89    1
   151    92    95    1
   152    92    91    1
   153    84    83    1
   154   153   155    1
   155   153   152    1
   156    95    96    1
   157    88    89    1
   158   136   134   ar
   159   135   133   ar
   160   152   149    1
   161   126   123    1
   162   126   127    1
   163   134   133   ar
   164   133   132    1
   165   122   123    1
   166   123   124    1
   167   149   150    1
   168   149   148    1
   169   132   129    1
   170   150   151    2
   171   124   125    2
   172   130   131    2
   173   130   129    1
   174   129   128    1
