@<TRIPOS>MOLECULE
tmp/6d0bA00.pdb
 188 174 0 0 0
SMALL
GASTEIGER

@<TRIPOS>ATOM
      1  N         18.5410  -10.6130   -9.6530 N.3     9  PHE9       -0.1241
      2  CA        18.3810  -10.4770  -11.1350 C.3     9  PHE9        0.1605
      3  C         19.7060   -9.8790  -11.6530 C.2     9  PHE9        0.2264
      4  O         20.3630   -9.0650  -10.9660 O.2     9  PHE9       -0.2867
      5  CB        17.1650   -9.6400  -11.5220 C.3     9  PHE9        0.0534
      6  CG        17.1910   -8.2100  -11.0310 C.ar    9  PHE9       -0.0203
      7  CD1       17.6200   -7.1610  -11.8960 C.ar    9  PHE9       -0.0042
      8  CD2       16.8330   -7.8530   -9.7010 C.ar    9  PHE9       -0.0042
      9  CE1       17.6680   -5.8280  -11.5090 C.ar    9  PHE9       -0.0003
     10  CE2       16.8490   -6.4870   -9.3190 C.ar    9  PHE9       -0.0003
     11  CZ        17.2830   -5.4780  -10.2220 C.ar    9  PHE9       -0.0000
     12  N         21.8130   -7.5060  -14.3700 N.3    11  SER11      -0.1217
     13  CA        21.7480   -6.4050  -15.3740 C.3    11  SER11       0.1889
     14  C         23.0660   -6.1150  -16.0210 C.2    11  SER11       0.2288
     15  O         24.0930   -6.4760  -15.4430 O.2    11  SER11      -0.2866
     16  CB        21.1980   -5.1040  -14.8140 C.3    11  SER11       0.2089
     17  OG        21.9360   -4.5490  -13.6870 O.3    11  SER11      -0.2183
     18  N         25.3320   -3.0120  -18.1500 N.3    13  HIS13      -0.1241
     19  CA        25.3470   -1.5570  -18.4180 C.3    13  HIS13       0.1621
     20  C         26.4780   -1.1780  -19.2760 C.2    13  HIS13       0.2264
     21  O         27.5410   -1.8250  -19.2080 O.2    13  HIS13      -0.2867
     22  CB        25.4420   -0.7790  -17.1180 C.3    13  HIS13       0.0745
     23  CG        24.3910   -1.1480  -16.1330 C.ar   13  HIS13       0.0817
     24  ND1       23.3360   -0.3070  -15.8480 N.ar   13  HIS13      -0.2268
     25  CD2       24.1830   -2.2940  -15.4040 C.ar   13  HIS13       0.1154
     26  CE1       22.5260   -0.8900  -14.9300 C.ar   13  HIS13       0.1986
     27  NE2       23.0180   -2.1010  -14.6540 N.ar   13  HIS13      -0.2212
     28  N         26.9280    3.8560  -17.5340 N.3    17  MET17      -0.1245
     29  CA        25.9680    3.3200  -16.5540 C.3    17  MET17       0.1570
     30  C         24.5600    3.1570  -17.1510 C.2    17  MET17       0.2261
     31  O         23.6090    2.8070  -16.4050 O.2    17  MET17      -0.2867
     32  CB        25.8700    4.1580  -15.2800 C.3    17  MET17       0.0387
     33  CG        27.2260    4.4960  -14.6870 C.3    17  MET17       0.0595
     34  SD        27.8330    2.9320  -14.0610 S.3    17  MET17      -0.1393
     35  CE        27.1450    3.0810  -12.3740 C.3    17  MET17       0.0692
     36  N         21.5450    1.1960  -18.7240 N.3    19  PHE19      -0.1241
     37  CA        21.1740   -0.2060  -18.8940 C.3    19  PHE19       0.1605
     38  C         21.2890   -0.5840  -20.3980 C.2    19  PHE19       0.2264
     39  O         20.7960    0.1230  -21.3010 O.2    19  PHE19      -0.2867
     40  CB        19.6950   -0.4400  -18.5250 C.3    19  PHE19       0.0534
     41  CG        19.4680   -0.5390  -17.0730 C.ar   19  PHE19      -0.0203
     42  CD1       19.5490   -1.7930  -16.3970 C.ar   19  PHE19      -0.0042
     43  CD2       19.1670    0.5930  -16.3180 C.ar   19  PHE19      -0.0042
     44  CE1       19.2770   -1.8460  -15.0060 C.ar   19  PHE19      -0.0003
     45  CE2       18.9250    0.5320  -14.9360 C.ar   19  PHE19      -0.0003
     46  CZ        18.9720   -0.7010  -14.2570 C.ar   19  PHE19      -0.0000
     47  N         13.2240   -8.6150  -12.8560 N.3    26  ILE26      -0.1245
     48  CA        13.0590   -7.3480  -12.1880 C.3    26  ILE26       0.1561
     49  C         11.5800   -6.9420  -12.1340 C.2    26  ILE26       0.2260
     50  O         11.1430   -6.1800  -11.2510 O.2    26  ILE26      -0.2867
     51  CB        13.9080   -6.2090  -12.8740 C.3    26  ILE26       0.0252
     52  CG1       14.0750   -4.9940  -11.9340 C.3    26  ILE26       0.0019
     53  CG2       13.3490   -5.8670  -14.2990 C.3    26  ILE26       0.0019
     54  CD1       14.8380   -3.8370  -12.5240 C.3    26  ILE26       0.0001
     55  N         21.8270    4.2540  -14.5370 N.3    42  ALA42      -0.1245
     56  CA        21.4910    3.8550  -13.1870 C.3    42  ALA42       0.1562
     57  C         21.2300    5.0690  -12.3230 C.2    42  ALA42       0.2260
     58  O         20.4380    5.0570  -11.4100 O.2    42  ALA42      -0.2867
     59  CB        22.7290    3.0910  -12.5980 C.3    42  ALA42       0.0290
     60  N         17.8010    6.4000  -11.1360 N.3    45  PHE45      -0.1227
     61  CA        16.9730    5.6130  -10.2510 C.3    45  PHE45       0.1736
     62  C         17.4030    5.6620   -8.7440 C.2    45  PHE45       0.2595
     63  O         16.6700    5.1310   -7.9070 O.2    45  PHE45      -0.2718
     64  CB        16.9740    4.1010  -10.7180 C.3    45  PHE45       0.0547
     65  CG        16.5130    3.9320  -12.1250 C.ar   45  PHE45      -0.0202
     66  CD1       15.1710    3.6810  -12.3780 C.ar   45  PHE45      -0.0042
     67  CD2       17.4380    3.9630  -13.1740 C.ar   45  PHE45      -0.0042
     68  CE1       14.7400    3.5390  -13.7490 C.ar   45  PHE45      -0.0003
     69  CE2       17.0390    3.8590  -14.5170 C.ar   45  PHE45      -0.0003
     70  CZ        15.6970    3.6230  -14.7840 C.ar   45  PHE45      -0.0000
     71  N         18.5640    6.2240   -8.4440 N.am   46  TYR46      -0.1976
     72  CA        19.0600    6.2300   -7.0240 C.3    46  TYR46       0.1639
     73  C         18.2780    7.2700   -6.2430 C.2    46  TYR46       0.2290
     74  O         18.0880    8.4490   -6.6970 O.2    46  TYR46      -0.2864
     75  CB        20.5470    6.6180   -7.0060 C.3    46  TYR46       0.0560
     76  CG        21.4370    5.6250   -7.7040 C.ar   46  TYR46      -0.0198
     77  CD1       21.2060    4.2390   -7.6170 C.ar   46  TYR46      -0.0009
     78  CD2       22.5420    6.0410   -8.4210 C.ar   46  TYR46      -0.0009
     79  CE1       22.0680    3.3100   -8.1850 C.ar   46  TYR46       0.0417
     80  CE2       23.3820    5.0970   -8.9990 C.ar   46  TYR46       0.0417
     81  CZ        23.1350    3.7630   -8.8820 C.ar   46  TYR46       0.1957
     82  OH        24.0370    2.8970   -9.4580 O.3    46  TYR46      -0.2866
     83  N         26.6240    6.4490   -4.0480 N.3    54  MET54      -0.1245
     84  CA        26.7250    5.6790   -5.2910 C.3    54  MET54       0.1570
     85  C         27.7670    6.2440   -6.2780 C.2    54  MET54       0.2261
     86  O         28.3550    5.4910   -7.0470 O.2    54  MET54      -0.2867
     87  CB        25.3530    5.5810   -6.0320 C.3    54  MET54       0.0387
     88  CG        24.2730    4.9400   -5.2060 C.3    54  MET54       0.0595
     89  SD        24.7520    3.3210   -4.5480 S.3    54  MET54      -0.1393
     90  CE        24.7700    2.2600   -5.9850 C.3    54  MET54       0.0692
     91  N         30.9540    4.9360   -5.2210 N.3    57  SER57      -0.1202
     92  CA        31.1080    3.4950   -5.5670 C.3    57  SER57       0.2020
     93  C         31.3860    3.2820   -6.9970 C.2    57  SER57       0.2618
     94  O         32.1250    2.3710   -7.3440 O.2    57  SER57      -0.2717
     95  CB        29.8490    2.7040   -5.2760 C.3    57  SER57       0.2103
     96  OG        29.8160    2.3540   -3.9450 O.3    57  SER57      -0.2182
     97  N         30.7610    4.0790   -7.8630 N.am   58  HIS58      -0.1975
     98  CA        31.0200    3.9850   -9.2980 C.3    58  HIS58       0.1656
     99  C         32.4760    4.3200   -9.5380 C.2    58  HIS58       0.2291
    100  O         33.1450    3.6460  -10.3060 O.2    58  HIS58      -0.2864
    101  CB        30.1600    4.9670  -10.0400 C.3    58  HIS58       0.0771
    102  CG        30.3700    4.9860  -11.5300 C.ar   58  HIS58       0.0820
    103  ND1       29.8140    5.9510  -12.3310 N.ar   58  HIS58      -0.2267
    104  CD2       31.0840    4.1130  -12.3940 C.ar   58  HIS58       0.1154
    105  CE1       30.1540    5.6900  -13.6440 C.ar   58  HIS58       0.1986
    106  NE2       30.9240    4.5690  -13.6680 N.ar   58  HIS58      -0.2212
    107  N         34.5070    1.3640   -8.6320 N.3    61  LEU61      -0.1245
    108  CA        34.3560    0.2720   -9.6410 C.3    61  LEU61       0.1561
    109  C         35.2640    0.4850  -10.8100 C.2    61  LEU61       0.2260
    110  O         35.8360   -0.4570  -11.3860 O.2    61  LEU61      -0.2867
    111  CB        32.8750    0.1900  -10.1400 C.3    61  LEU61       0.0270
    112  CG        32.4380   -0.8600  -11.1630 C.3    61  LEU61       0.0019
    113  CD1       32.6490   -2.2980  -10.7210 C.3    61  LEU61       0.0001
    114  CD2       30.9300   -0.6380  -11.3660 C.3    61  LEU61       0.0001
    115  N         33.2800   -4.1810   -7.3200 N.3    67  VAL67      -0.1245
    116  CA        32.8520   -3.5500   -6.0410 C.3    67  VAL67       0.1561
    117  C         31.4550   -4.0190   -5.6700 C.2    67  VAL67       0.2260
    118  O         30.6220   -4.2920   -6.5360 O.2    67  VAL67      -0.2867
    119  CB        32.8970   -2.0030   -6.1540 C.3    67  VAL67       0.0252
    120  CG1       32.0700   -1.5330   -7.3340 C.3    67  VAL67       0.0019
    121  CG2       32.4430   -1.2950   -4.8740 C.3    67  VAL67       0.0019
    122  N         28.1180   -2.6900   -3.7980 N.3    69  SER69      -0.1217
    123  CA        27.5090   -1.3800   -3.5520 C.3    69  SER69       0.1889
    124  C         27.3100   -1.0430   -2.0810 C.2    69  SER69       0.2288
    125  O         27.2510    0.1530   -1.7100 O.2    69  SER69      -0.2866
    126  CB        26.1160   -1.3070   -4.2270 C.3    69  SER69       0.2089
    127  OG        25.2150   -2.2000   -3.5970 O.3    69  SER69      -0.2183
    128  N         21.4330    0.2950   -0.8860 N.3    72  TYR72      -0.1241
    129  CA        20.9390    1.5090   -1.5500 C.3    72  TYR72       0.1605
    130  C         19.4840    1.2850   -2.0410 C.2    72  TYR72       0.2264
    131  O         18.9900    0.1420   -2.1240 O.2    72  TYR72      -0.2867
    132  CB        21.9020    1.9950   -2.6910 C.3    72  TYR72       0.0534
    133  CG        21.8790    1.1200   -3.9390 C.ar   72  TYR72      -0.0201
    134  CD1       22.6570   -0.0340   -4.0300 C.ar   72  TYR72      -0.0009
    135  CD2       21.0020    1.4300   -5.0160 C.ar   72  TYR72      -0.0009
    136  CE1       22.6090   -0.8470   -5.1600 C.ar   72  TYR72       0.0417
    137  CE2       20.9700    0.6320   -6.1390 C.ar   72  TYR72       0.0417
    138  CZ        21.7380   -0.5140   -6.2150 C.ar   72  TYR72       0.1957
    139  OH        21.6670   -1.3290   -7.3000 O.3    72  TYR72      -0.2866
    140  N         16.5190    1.7710   -5.0030 N.3    74  MET74      -0.1245
    141  CA        16.1050    2.0470   -6.3660 C.3    74  MET74       0.1570
    142  C         14.6480    2.5250   -6.4130 C.2    74  MET74       0.2261
    143  O         13.7600    1.8800   -5.8270 O.2    74  MET74      -0.2867
    144  CB        16.2030    0.7490   -7.2070 C.3    74  MET74       0.0387
    145  CG        15.9150    0.9970   -8.7060 C.3    74  MET74       0.0595
    146  SD        15.9080   -0.5130   -9.6580 S.3    74  MET74      -0.1393
    147  CE        15.9330    0.1910  -11.2890 C.3    74  MET74       0.0692
    148  N         18.2910   -2.4710   -2.3840 N.3    84  LEU84      -0.1245
    149  CA        19.0380   -3.4560   -3.1370 C.3    84  LEU84       0.1561
    150  C         20.4480   -3.4450   -2.6020 C.2    84  LEU84       0.2260
    151  O         20.8860   -2.4920   -2.0430 O.2    84  LEU84      -0.2867
    152  CB        19.1510   -3.0000   -4.6560 C.3    84  LEU84       0.0270
    153  CG        18.0680   -2.9860   -5.7070 C.3    84  LEU84       0.0019
    154  CD1       18.7940   -2.9210   -7.0340 C.3    84  LEU84       0.0001
    155  CD2       17.2690   -4.2760   -5.7350 C.3    84  LEU84       0.0001
    156  N         24.1050   -4.4990   -4.7870 N.3    86  THR86      -0.1218
    157  CA        24.5900   -4.9380   -6.0900 C.3    86  THR86       0.1862
    158  C         26.0910   -5.2860   -6.0460 C.2    86  THR86       0.2287
    159  O         26.9100   -4.5140   -5.4660 O.2    86  THR86      -0.2866
    160  CB        24.3830   -3.7680   -7.0780 C.3    86  THR86       0.1770
    161  OG1       22.9820   -3.6680   -7.3210 O.3    86  THR86      -0.2211
    162  CG2       25.1070   -4.0020   -8.4050 C.3    86  THR86       0.0375
    163  N         28.9620   -5.2470   -8.6870 N.3    88  GLY88      -0.1225
    164  CA        29.3620   -4.7690  -10.0210 C.3    88  GLY88       0.1811
    165  C         30.7080   -5.3440  -10.4950 C.2    88  GLY88       0.2280
    166  O         31.6960   -5.3520   -9.7480 O.2    88  GLY88      -0.2866
    167  N         29.5550   -3.2040  -17.8870 N.3    98  ILE98      -0.1245
    168  CA        29.5210   -3.5320  -16.5140 C.3    98  ILE98       0.1561
    169  C         28.4350   -4.5560  -16.3080 C.2    98  ILE98       0.2260
    170  O         27.3130   -4.3680  -16.8280 O.2    98  ILE98      -0.2867
    171  CB        29.1710   -2.3070  -15.6950 C.3    98  ILE98       0.0252
    172  CG1       30.3000   -1.2730  -15.8650 C.3    98  ILE98       0.0019
    173  CG2       29.0520   -2.6950  -14.2380 C.3    98  ILE98       0.0019
    174  CD1       29.9270    0.1040  -15.3870 C.3    98  ILE98       0.0001
    175  N         26.1470   -6.6380  -13.5090 N.3   100  CYS100     -0.1235
    176  CA        25.6180   -6.3910  -12.1810 C.3   100  CYS100      0.1677
    177  C         24.8190   -7.5680  -11.7300 C.2   100  CYS100      0.2270
    178  O         23.9000   -8.0050  -12.4080 O.2   100  CYS100     -0.2867
    179  CB        24.7560   -5.0820  -12.0730 C.3   100  CYS100      0.0956
    180  SG        25.7910   -3.6180  -12.1670 S.3   100  CYS100     -0.0801
    181  N         22.1470   -8.1690   -8.8270 N.3   102  ASN102     -0.1240
    182  CA        21.3680   -7.3130   -7.9550 C.3   102  ASN102      0.1653
    183  C         20.4920   -8.1850   -7.0820 C.2   102  ASN102      0.2266
    184  O         19.7930   -9.0560   -7.5600 O.2   102  ASN102     -0.2867
    185  CB        20.4760   -6.4180   -8.8410 C.3   102  ASN102      0.1155
    186  CG        21.3140   -5.6740   -9.8760 C.2   102  ASN102      0.2627
    187  OD1       22.1430   -4.8480   -9.5550 O.2   102  ASN102     -0.2716
    188  ND2       21.1320   -5.9940  -11.1220 N.am  102  ASN102     -0.0877
@<TRIPOS>BOND
     1    39    38    2
     2    38    37    1
     3    20    21    2
     4    20    19    1
     5    37    36    1
     6    37    40    1
     7    40    41    1
     8    19    18    1
     9    19    22    1
    10   167   168    1
    11    28    29    1
    12    30    29    1
    13    30    31    2
    14    22    23    1
    15    41    42   ar
    16    41    43   ar
    17   170   169    2
    18    29    32    1
    19   168   169    1
    20   168   171    1
    21    42    44   ar
    22    43    45   ar
    23    23    24   ar
    24    23    25   ar
    25    14    15    2
    26    14    13    1
    27   172   171    1
    28   172   174    1
    29    24    26   ar
    30   171   173    1
    31    25    27   ar
    32    13    16    1
    33    13    12    1
    34    32    33    1
    35    44    46   ar
    36    45    46   ar
    37    26    27   ar
    38    16    17    1
    39    70    69   ar
    40    70    68   ar
    41    33    34    1
    42    55    56    1
    43    69    67   ar
    44    53    51    1
    45    34    35    1
    46    68    66   ar
    47   106   105   ar
    48   106   104   ar
    49   105   103   ar
    50   175   176    1
    51    56    59    1
    52    56    57    1
    53    67    65   ar
    54    51    48    1
    55    51    52    1
    56    47    48    1
    57    54    52    1
    58   178   177    2
    59   104   102   ar
    60    66    65   ar
    61   103   102   ar
    62    57    58    2
    63    48    49    1
    64   176   179    1
    65   176   177    1
    66   180   179    1
    67    49    50    2
    68    65    64    1
    69     7     9   ar
    70     7     6   ar
    71     3     2    1
    72     3     4    2
    73   102   101    1
    74     5     2    1
    75     5     6    1
    76     9    11   ar
    77   110   109    2
    78   114   112    1
    79   147   146    1
    80   112   113    1
    81   112   111    1
    82    60    61    1
    83     2     1    1
    84   188   186   am
    85     6     8   ar
    86   109   108    1
    87    64    61    1
    88   165   164    1
    89   165   166    2
    90   100    99    2
    91    61    62    1
    92    11    10   ar
    93   111   108    1
    94   101    98    1
    95   164   163    1
    96   186   187    2
    97   186   185    1
    98     8    10   ar
    99   146   145    1
   100   108   107    1
   101    99    98    1
   102    82    81    1
   103    98    97    1
   104    80    81   ar
   105    80    78   ar
   106    81    79   ar
   107   185   182    1
   108   181   182    1
   109    62    71   am
   110    62    63    2
   111   145   144    1
   112    71    72    1
   113    78    76   ar
   114   162   160    1
   115    79    77   ar
   116   182   183    1
   117    97    93   am
   118    76    77   ar
   119    76    75    1
   120   184   183    2
   121    94    93    2
   122   120   119    1
   123   161   160    1
   124   115   116    1
   125   139   138    1
   126   144   141    1
   127   160   157    1
   128    86    85    2
   129   154   153    1
   130    72    75    1
   131    72    73    1
   132    93    92    1
   133    74    73    2
   134   118   117    2
   135   142   141    1
   136   142   143    2
   137   141   140    1
   138    85    84    1
   139   138   137   ar
   140   138   136   ar
   141   119   116    1
   142   119   121    1
   143   137   135   ar
   144   157   158    1
   145   157   156    1
   146   158   159    2
   147   116   117    1
   148    87    84    1
   149    87    88    1
   150    90    89    1
   151   155   153    1
   152   153   152    1
   153    92    95    1
   154    92    91    1
   155    84    83    1
   156    95    96    1
   157    88    89    1
   158   136   134   ar
   159   135   133   ar
   160   152   149    1
   161   126   127    1
   162   126   123    1
   163   134   133   ar
   164   133   132    1
   165   122   123    1
   166   123   124    1
   167   149   150    1
   168   149   148    1
   169   132   129    1
   170   150   151    2
   171   131   130    2
   172   124   125    2
   173   130   129    1
   174   129   128    1
