@<TRIPOS>MOLECULE
tmp/6d0oD00.pdb
 134 127 0 0 0
SMALL
GASTEIGER

@<TRIPOS>ATOM
      1  N        -13.9890   15.5700  -14.1490 N.3    73  LEU73      -0.1245
      2  CA       -13.0950   15.0440  -13.0800 C.3    73  LEU73       0.1561
      3  C        -13.7550   14.0050  -12.1360 C.2    73  LEU73       0.2260
      4  O        -14.9060   14.1760  -11.6540 O.2    73  LEU73      -0.2867
      5  CB       -12.4710   16.2150  -12.2370 C.3    73  LEU73       0.0270
      6  CG       -11.6010   17.2810  -12.9540 C.3    73  LEU73       0.0019
      7  CD1      -11.1200   18.3500  -11.9970 C.3    73  LEU73       0.0001
      8  CD2      -10.4330   16.6130  -13.6890 C.3    73  LEU73       0.0001
      9  N         -7.3670   16.2920   -8.8270 N.3    85  ILE85      -0.1245
     10  CA        -6.3930   16.4330   -9.8980 C.3    85  ILE85       0.1561
     11  C         -5.2400   15.5090   -9.5800 C.2    85  ILE85       0.2260
     12  O         -4.5580   15.7310   -8.5910 O.2    85  ILE85      -0.2867
     13  CB        -5.9310   17.9040  -10.0520 C.3    85  ILE85       0.0252
     14  CG1       -7.0940   18.7640  -10.5720 C.3    85  ILE85       0.0019
     15  CG2       -4.7400   18.0450  -11.0260 C.3    85  ILE85       0.0019
     16  CD1       -7.6300   18.4050  -11.9610 C.3    85  ILE85       0.0001
     17  N         -3.6650   16.9470  -17.8070 N.3    96  ILE96      -0.1231
     18  CA        -4.8390   17.7830  -17.6190 C.3    96  ILE96       0.1692
     19  C         -4.3340   19.2460  -17.5490 C.2    96  ILE96       0.2592
     20  O         -3.4310   19.5740  -16.7540 O.2    96  ILE96      -0.2718
     21  CB        -5.6580   17.4160  -16.3370 C.3    96  ILE96       0.0266
     22  CG1       -6.2330   15.9830  -16.4150 C.3    96  ILE96       0.0019
     23  CG2       -6.7620   18.4630  -16.0630 C.3    96  ILE96       0.0020
     24  CD1       -6.5570   15.3650  -15.0650 C.3    96  ILE96       0.0001
     25  N         -4.8950   20.0770  -18.4400 N.am   97  GLY97      -0.1957
     26  CA        -4.7300   21.4970  -18.4690 C.3    97  GLY97       0.1869
     27  C         -3.4460   22.1630  -18.9340 C.2    97  GLY97       0.2309
     28  O         -3.1950   23.2770  -18.4930 O.2    97  GLY97      -0.2863
     29  N         -6.1450   28.0230  -20.4060 N.3   101  HIS101     -0.1241
     30  CA        -7.6030   27.8780  -20.4590 C.3   101  HIS101      0.1621
     31  C         -8.1910   28.3640  -19.1650 C.2   101  HIS101      0.2264
     32  O         -7.4610   28.6660  -18.2010 O.2   101  HIS101     -0.2867
     33  CB        -7.9910   26.4240  -20.6600 C.3   101  HIS101      0.0745
     34  CG        -7.6400   25.5440  -19.5120 C.ar  101  HIS101      0.0817
     35  ND1       -6.3510   25.1570  -19.2450 N.ar  101  HIS101     -0.2268
     36  CD2       -8.3960   25.0240  -18.5230 C.ar  101  HIS101      0.1154
     37  CE1       -6.3310   24.4150  -18.1510 C.ar  101  HIS101      0.1986
     38  NE2       -7.5600   24.3000  -17.7020 N.ar  101  HIS101     -0.2212
     39  N        -11.7890   27.0190  -16.8130 N.3   103  ASP103     -0.1239
     40  CA       -12.4270   25.6970  -16.7750 C.3   103  ASP103      0.1674
     41  C        -13.8450   25.7080  -17.2850 C.2   103  ASP103      0.2266
     42  O        -14.6310   26.5810  -16.9380 O.2   103  ASP103     -0.2867
     43  CB       -12.4370   25.1270  -15.3660 C.3   103  ASP103      0.1410
     44  CG       -11.0740   24.6240  -14.9230 C.2   103  ASP103      0.3668
     45  OD1      -10.1030   24.5580  -15.7080 O.co2 103  ASP103     -0.2456
     46  OD2      -11.0000   24.2790  -13.7440 O.co2 103  ASP103     -0.2456
     47  N         -8.5160   24.7750   -4.6290 N.3   116  MET116     -0.1245
     48  CA        -7.7070   23.6040   -4.8350 C.3   116  MET116      0.1570
     49  C         -6.6920   23.5250   -3.7180 C.2   116  MET116      0.2261
     50  O         -6.1790   24.5550   -3.2690 O.2   116  MET116     -0.2867
     51  CB        -7.0110   23.7250   -6.1820 C.3   116  MET116      0.0387
     52  CG        -6.3770   22.4310   -6.6380 C.3   116  MET116      0.0595
     53  SD        -5.7700   22.1890   -8.3290 S.3   116  MET116     -0.1393
     54  CE        -7.3760   21.7270   -8.9450 C.3   116  MET116      0.0692
     55  N          4.3340   23.5390  -10.8430 N.3   127  ASP127     -0.1225
     56  CA         3.7530   24.8670  -10.7140 C.3   127  ASP127      0.1805
     57  C          2.4870   24.9970  -11.5900 C.2   127  ASP127      0.2598
     58  O          2.2460   24.2000  -12.5050 O.2   127  ASP127     -0.2718
     59  CB         4.7350   25.9590  -11.1040 C.3   127  ASP127      0.1424
     60  CG         5.9400   26.0640  -10.1570 C.2   127  ASP127      0.3668
     61  OD1        6.0200   25.2910   -9.1440 O.co2 127  ASP127     -0.2456
     62  OD2        6.8410   26.9280  -10.4540 O.co2 127  ASP127     -0.2456
     63  N          1.6910   26.0090  -11.2940 N.am  128  THR128     -0.1953
     64  CA         0.5720   26.3740  -12.1140 C.3   128  THR128      0.1897
     65  C          0.7280   27.8250  -12.5080 C.2   128  THR128      0.2313
     66  O          0.9190   28.7050  -11.6600 O.2   128  THR128     -0.2863
     67  CB        -0.7710   26.2190  -11.3770 C.3   128  THR128      0.1794
     68  OG1       -0.8370   24.9130  -10.7980 O.3   128  THR128     -0.2208
     69  CG2       -1.9300   26.4340  -12.3510 C.3   128  THR128      0.0378
     70  N          3.3750   25.1170   -5.5750 N.3   245  TRP245     -0.1241
     71  CA         2.5770   24.4360   -4.5420 C.3   245  TRP245      0.1605
     72  C          3.4610   23.7950   -3.4400 C.2   245  TRP245      0.2264
     73  O          4.4500   23.1220   -3.7040 O.2   245  TRP245     -0.2867
     74  CB         1.7180   23.3620   -5.1590 C.3   245  TRP245      0.0550
     75  CG         0.7590   23.8130   -6.1650 C.ar  245  TRP245      0.0003
     76  CD1        1.0130   23.9660   -7.4710 C.ar  245  TRP245      0.0946
     77  CD2       -0.6250   24.0550   -5.9940 C.ar  245  TRP245      0.0152
     78  NE1       -0.1160   24.3150   -8.1410 N.ar  245  TRP245     -0.2442
     79  CE2       -1.1470   24.3650   -7.2450 C.ar  245  TRP245      0.0810
     80  CE3       -1.4920   23.9910   -4.9090 C.ar  245  TRP245      0.0012
     81  CZ2       -2.4930   24.6930   -7.4430 C.ar  245  TRP245      0.0191
     82  CZ3       -2.8320   24.2760   -5.1130 C.ar  245  TRP245      0.0001
     83  CH2       -3.3220   24.6150   -6.3770 C.ar  245  TRP245      0.0015
     84  N         -8.8210   30.4310   -7.3630 N.3   253  TRP253     -0.1241
     85  CA        -8.7610   31.2610   -8.5600 C.3   253  TRP253      0.1605
     86  C        -10.1260   31.6270   -9.0740 C.2   253  TRP253      0.2264
     87  O        -11.0480   30.8400   -9.0000 O.2   253  TRP253     -0.2867
     88  CB        -7.8580   30.6550   -9.6840 C.3   253  TRP253      0.0550
     89  CG        -8.4200   29.5750  -10.4800 C.ar  253  TRP253      0.0003
     90  CD1       -9.3480   29.6860  -11.4610 C.ar  253  TRP253      0.0946
     91  CD2       -8.0780   28.1890  -10.3930 C.ar  253  TRP253      0.0152
     92  NE1       -9.6320   28.4190  -11.9870 N.ar  253  TRP253     -0.2442
     93  CE2       -8.8280   27.5070  -11.3610 C.ar  253  TRP253      0.0810
     94  CE3       -7.2260   27.4550   -9.5640 C.ar  253  TRP253      0.0012
     95  CZ2       -8.7210   26.1310  -11.5600 C.ar  253  TRP253      0.0191
     96  CZ3       -7.0970   26.0740   -9.7980 C.ar  253  TRP253      0.0001
     97  CH2       -7.8490   25.4340  -10.7700 C.ar  253  TRP253      0.0015
     98  N         -5.4390   29.6310  -16.6440 N.3   260  HIS260     -0.1241
     99  CA        -4.3730   28.8970  -16.0000 C.3   260  HIS260      0.1621
    100  C         -3.7570   27.8690  -16.8910 C.2   260  HIS260      0.2264
    101  O         -4.2740   27.5990  -17.9830 O.2   260  HIS260     -0.2867
    102  CB        -4.8260   28.2860  -14.6630 C.3   260  HIS260      0.0745
    103  CG        -6.0000   27.3750  -14.7600 C.ar  260  HIS260      0.0817
    104  ND1       -7.3060   27.8260  -14.7430 N.ar  260  HIS260     -0.2268
    105  CD2       -6.0600   26.0310  -14.8350 C.ar  260  HIS260      0.1154
    106  CE1       -8.1150   26.7910  -14.8590 C.ar  260  HIS260      0.1986
    107  NE2       -7.3870   25.6920  -14.8940 N.ar  260  HIS260     -0.2212
    108  N         -1.2150   24.2300  -16.5760 N.3   262  ALA262     -0.1245
    109  CA        -0.5620   23.1820  -15.7590 C.3   262  ALA262      0.1562
    110  C          0.7980   22.8710  -16.2920 C.2   262  ALA262      0.2260
    111  O          0.9310   22.4970  -17.4690 O.2   262  ALA262     -0.2867
    112  CB        -1.4080   21.8920  -15.7490 C.3   262  ALA262      0.0290
    113  N          1.6740   13.5020   -8.0670 N.3   271  ARG271     -0.1245
    114  CA         1.0740   14.7880   -7.7670 C.3   271  ARG271      0.1563
    115  C         -0.4030   14.6230   -7.5840 C.2   271  ARG271      0.2260
    116  O         -1.1050   14.2260   -8.5230 O.2   271  ARG271     -0.2867
    117  CB         1.3650   15.7540   -8.8960 C.3   271  ARG271      0.0307
    118  CG         0.8790   17.1710   -8.6570 C.3   271  ARG271      0.0489
    119  CD         1.4670   18.1210   -9.6790 C.3   271  ARG271      0.2205
    120  NE         1.0780   19.5200   -9.4890 N.pl3 271  ARG271     -0.0865
    121  CZ         0.0150   20.1140  -10.0440 C.cat 271  ARG271      0.5346
    122  NH1       -0.8740   19.4300  -10.7940 N.pl3 271  ARG271      0.1354
    123  NH2       -0.1990   21.4210   -9.8290 N.pl3 271  ARG271      0.1354
    124  N         -9.9560   19.3210   -5.0520 N.3   275  ARG275     -0.1245
    125  CA       -10.4950   20.5170   -5.6630 C.3   275  ARG275      0.1563
    126  C        -11.9740   20.6060   -5.4750 C.2   275  ARG275      0.2260
    127  O        -12.6620   19.6310   -5.6940 O.2   275  ARG275     -0.2867
    128  CB       -10.1420   20.3390   -7.1290 C.3   275  ARG275      0.0307
    129  CG       -10.7540   21.2870   -8.0690 C.3   275  ARG275      0.0489
    130  CD       -10.5120   20.8450   -9.5360 C.3   275  ARG275      0.2205
    131  NE       -11.6130   21.4860  -10.2630 N.pl3 275  ARG275     -0.0865
    132  CZ       -11.5210   22.2770  -11.3070 C.cat 275  ARG275      0.5346
    133  NH1      -10.3390   22.5060  -11.8910 N.pl3 275  ARG275      0.1354
    134  NH2      -12.6360   22.8180  -11.7720 N.pl3 275  ARG275      0.1354
@<TRIPOS>BOND
     1    33    30    1
     2    33    34    1
     3    30    29    1
     4    30    31    1
     5    34    35   ar
     6    34    36   ar
     7    35    37   ar
     8    31    32    2
     9    27    28    2
    10    27    26    1
    11    36    38   ar
    12    26    25    1
    13    25    19   am
    14    37    38   ar
    15   101   100    2
    16    17    18    1
    17    18    19    1
    18    18    21    1
    19    19    20    2
    20   111   110    2
    21    41    42    2
    22    41    40    1
    23   100    99    1
    24    39    40    1
    25    40    43    1
    26    98    99    1
    27   108   109    1
    28    22    21    1
    29    22    24    1
    30    21    23    1
    31   110   109    1
    32    99   102    1
    33   109   112    1
    34    45    44   ar
    35    43    44    1
    36    44    46   ar
    37   107   106   ar
    38   107   105   ar
    39   106   104   ar
    40   105   103   ar
    41   103   104   ar
    42   103   102    1
    43     1     2    1
    44     8     6    1
    45     2     5    1
    46     2     3    1
    47     6     5    1
    48     6     7    1
    49    65    64    1
    50    65    66    2
    51    58    57    2
    52    69    67    1
    53     3     4    2
    54    64    67    1
    55    64    63    1
    56    92    90   ar
    57    92    93   ar
    58    16    14    1
    59   133   132    1
    60   134   132    1
    61    57    63   am
    62    57    56    1
    63    95    93   ar
    64    95    97   ar
    65    90    89   ar
    66    67    68    1
    67    93    91   ar
    68   132   131    2
    69    59    56    1
    70    59    60    1
    71    15    13    1
    72    55    56    1
    73   122   121    1
    74    97    96   ar
    75    14    13    1
    76    89    91   ar
    77    89    88    1
    78    62    60   ar
    79    91    94   ar
    80   131   130    1
    81    60    61   ar
    82    13    10    1
    83   121   123    1
    84   121   120    2
    85    10    11    1
    86    10     9    1
    87    96    94   ar
    88    88    85    1
    89   119   120    1
    90   119   118    1
    91    11    12    2
    92   130   129    1
    93    86    87    2
    94    86    85    1
    95    54    53    1
    96   117   118    1
    97   117   114    1
    98    85    84    1
    99   116   115    2
   100    53    52    1
   101    78    76   ar
   102    78    79   ar
   103   129   128    1
   104   113   114    1
   105   114   115    1
   106    76    75   ar
   107    81    79   ar
   108    81    83   ar
   109    79    77   ar
   110   128   125    1
   111    52    51    1
   112    83    82   ar
   113    51    48    1
   114    75    77   ar
   115    75    74    1
   116    77    80   ar
   117   127   126    2
   118   125   126    1
   119   125   124    1
   120    70    71    1
   121    74    71    1
   122    82    80   ar
   123    48    47    1
   124    48    49    1
   125    71    72    1
   126    49    50    2
   127    73    72    2
