@<TRIPOS>MOLECULE
tmp/6d0oB00.pdb
 126 119 0 0 0
SMALL
GASTEIGER

@<TRIPOS>ATOM
      1  N        -17.9920   13.7580  -65.3380 N.3    85  ILE85      -0.1245
      2  CA       -17.5900   14.6770  -64.2720 C.3    85  ILE85       0.1561
      3  C        -18.5510   15.8270  -64.4850 C.2    85  ILE85       0.2260
      4  O        -18.5640   16.4940  -65.5180 O.2    85  ILE85      -0.2867
      5  CB       -16.1520   15.1780  -64.4150 C.3    85  ILE85       0.0252
      6  CG1      -15.1570   14.0140  -64.2590 C.3    85  ILE85       0.0019
      7  CG2      -15.8540   16.2590  -63.3950 C.3    85  ILE85       0.0019
      8  CD1      -15.1260   13.3100  -62.9110 C.3    85  ILE85       0.0001
      9  N        -11.9080   20.4120  -54.5900 N.3    88  GLY88      -0.1225
     10  CA       -11.7110   21.1330  -55.8660 C.3    88  GLY88       0.1811
     11  C        -11.0540   22.5290  -55.7880 C.2    88  GLY88       0.2280
     12  O        -10.0800   22.8330  -56.5260 O.2    88  GLY88      -0.2866
     13  N         -4.5000   21.3910  -55.3320 N.3    92  HIS92      -0.1241
     14  CA        -4.2100   19.9640  -55.0300 C.3    92  HIS92       0.1621
     15  C         -3.8070   19.2760  -56.2810 C.2    92  HIS92       0.2264
     16  O         -3.8820   19.8600  -57.3890 O.2    92  HIS92      -0.2867
     17  CB        -5.4370   19.2760  -54.4380 C.3    92  HIS92       0.0745
     18  CG        -6.5710   19.1790  -55.4000 C.ar   92  HIS92       0.0817
     19  ND1       -7.3510   20.2740  -55.7530 N.ar   92  HIS92      -0.2268
     20  CD2       -7.0080   18.1410  -56.1580 C.ar   92  HIS92       0.1154
     21  CE1       -8.2430   19.9020  -56.6630 C.ar   92  HIS92       0.1986
     22  NE2       -8.0710   18.6140  -56.9070 N.ar   92  HIS92      -0.2212
     23  N         -4.4410   15.0370  -57.7510 N.3    94  ASP94      -0.1239
     24  CA        -5.5290   14.0980  -57.3870 C.3    94  ASP94       0.1674
     25  C         -5.0120   12.8530  -56.6860 C.2    94  ASP94       0.2266
     26  O         -4.0320   12.2550  -57.1130 O.2    94  ASP94      -0.2867
     27  CB        -6.3110   13.6620  -58.6190 C.3    94  ASP94       0.1410
     28  CG        -7.2530   14.7390  -59.1310 C.2    94  ASP94       0.3668
     29  OD1       -7.4650   15.8220  -58.4680 O.co2  94  ASP94      -0.2456
     30  OD2       -7.8020   14.4880  -60.2340 O.co2  94  ASP94      -0.2456
     31  N         -9.0890   14.8790  -69.9770 N.3   107  MET107     -0.1245
     32  CA       -10.4070   15.3740  -69.7180 C.3   107  MET107      0.1570
     33  C        -10.8960   16.0010  -71.0300 C.2   107  MET107      0.2261
     34  O        -10.1410   16.6620  -71.7330 O.2   107  MET107     -0.2867
     35  CB       -10.3540   16.3910  -68.6330 C.3   107  MET107      0.0387
     36  CG       -11.6910   16.7300  -68.0710 C.3   107  MET107      0.0595
     37  SD       -11.9430   15.7470  -66.6280 S.3   107  MET107     -0.1393
     38  CE       -11.0670   16.4530  -65.2760 C.3   107  MET107      0.0692
     39  N        -13.1570   27.9910  -65.4220 N.3   118  ASP118     -0.1225
     40  CA       -11.7640   27.7810  -65.6940 C.3   118  ASP118      0.1805
     41  C        -11.1330   26.8300  -64.6620 C.2   118  ASP118      0.2598
     42  O        -11.6760   26.5820  -63.5990 O.2   118  ASP118     -0.2718
     43  CB       -10.9730   29.0930  -65.7080 C.3   118  ASP118      0.1424
     44  CG       -11.3560   30.0300  -66.8370 C.2   118  ASP118      0.3668
     45  OD1      -12.1910   29.6640  -67.6860 O.co2 118  ASP118     -0.2456
     46  OD2      -10.8210   31.1790  -66.8430 O.co2 118  ASP118     -0.2456
     47  N         -9.9780   26.2970  -65.0220 N.am  119  THR119     -0.1953
     48  CA        -9.1760   25.5270  -64.1040 C.3   119  THR119      0.1897
     49  C         -7.8160   26.1710  -64.0310 C.2   119  THR119      0.2313
     50  O         -7.1530   26.3890  -65.0800 O.2   119  THR119     -0.2863
     51  CB        -9.0160   24.0830  -64.5910 C.3   119  THR119      0.1794
     52  OG1      -10.3040   23.5180  -64.8720 O.3   119  THR119     -0.2208
     53  CG2       -8.3830   23.2730  -63.4730 C.3   119  THR119      0.0378
     54  N        -12.1660   26.3320  -70.6650 N.3   225  TRP225     -0.1241
     55  CA       -12.7290   25.1980  -71.3720 C.3   225  TRP225      0.1605
     56  C        -13.7100   25.5500  -72.5110 C.2   225  TRP225      0.2264
     57  O        -14.6100   26.3720  -72.3000 O.2   225  TRP225     -0.2867
     58  CB       -13.4110   24.2550  -70.4030 C.3   225  TRP225      0.0550
     59  CG       -12.5660   23.6900  -69.3580 C.ar  225  TRP225      0.0003
     60  CD1      -12.2650   24.2600  -68.1770 C.ar  225  TRP225      0.0946
     61  CD2      -11.9370   22.4120  -69.3540 C.ar  225  TRP225      0.0152
     62  NE1      -11.4660   23.4550  -67.4440 N.ar  225  TRP225     -0.2442
     63  CE2      -11.2370   22.3050  -68.1390 C.ar  225  TRP225      0.0810
     64  CE3      -11.8440   21.3740  -70.2810 C.ar  225  TRP225      0.0012
     65  CZ2      -10.5180   21.1590  -67.7880 C.ar  225  TRP225      0.0191
     66  CZ3      -11.1400   20.2710  -69.9490 C.ar  225  TRP225      0.0001
     67  CH2      -10.4500   20.1700  -68.7390 C.ar  225  TRP225      0.0015
     68  N         -3.4380   16.7730  -68.1540 N.3   233  TRP233     -0.1241
     69  CA        -2.5080   17.2860  -67.1450 C.3   233  TRP233      0.1605
     70  C         -1.6870   16.2010  -66.4880 C.2   233  TRP233      0.2264
     71  O         -2.1770   15.0940  -66.2660 O.2   233  TRP233     -0.2867
     72  CB        -3.2050   18.1940  -66.0840 C.3   233  TRP233      0.0550
     73  CG        -3.9320   17.5400  -64.9920 C.ar  233  TRP233      0.0003
     74  CD1       -3.4040   16.9240  -63.9010 C.ar  233  TRP233      0.0946
     75  CD2       -5.3390   17.4980  -64.8260 C.ar  233  TRP233      0.0152
     76  NE1       -4.4130   16.4540  -63.0730 N.ar  233  TRP233     -0.2442
     77  CE2       -5.6090   16.7920  -63.6190 C.ar  233  TRP233      0.0810
     78  CE3       -6.4070   17.9390  -65.6000 C.ar  233  TRP233      0.0012
     79  CZ2       -6.8950   16.5400  -63.1480 C.ar  233  TRP233      0.0191
     80  CZ3       -7.7190   17.6690  -65.1380 C.ar  233  TRP233      0.0001
     81  CH2       -7.9470   16.9810  -63.9550 C.ar  233  TRP233      0.0015
     82  N         -3.7710   21.6880  -59.4070 N.3   240  HIS240     -0.1241
     83  CA        -4.8470   22.3790  -60.0380 C.3   240  HIS240      0.1621
     84  C         -5.8550   22.8990  -59.0620 C.2   240  HIS240      0.2264
     85  O         -5.8310   22.5680  -57.8570 O.2   240  HIS240     -0.2867
     86  CB        -5.5040   21.5010  -61.1550 C.3   240  HIS240      0.0745
     87  CG        -6.0430   20.2000  -60.6590 C.ar  240  HIS240      0.0817
     88  ND1       -5.2660   19.0630  -60.6290 N.ar  240  HIS240     -0.2268
     89  CD2       -7.2770   19.8340  -60.2530 C.ar  240  HIS240      0.1154
     90  CE1       -6.0090   18.0490  -60.1640 C.ar  240  HIS240      0.1986
     91  NE2       -7.2280   18.4960  -59.9310 N.ar  240  HIS240     -0.2212
     92  N        -10.0380   24.2500  -59.0910 N.3   242  ALA242     -0.1245
     93  CA       -11.3250   24.3440  -59.7920 C.3   242  ALA242      0.1562
     94  C        -11.9850   25.6620  -59.4430 C.2   242  ALA242      0.2260
     95  O        -12.2410   25.9290  -58.2570 O.2   242  ALA242     -0.2867
     96  CB       -12.2480   23.1830  -59.3860 C.3   242  ALA242      0.0290
     97  N        -22.2360   21.9700  -66.5040 N.3   251  ARG251     -0.1245
     98  CA       -20.8340   21.7490  -66.8750 C.3   251  ARG251      0.1563
     99  C        -20.6030   20.2580  -66.8440 C.2   251  ARG251      0.2260
    100  O        -20.6000   19.6330  -65.7770 O.2   251  ARG251     -0.2867
    101  CB       -19.9250   22.4510  -65.8740 C.3   251  ARG251      0.0307
    102  CG       -18.4640   22.3820  -66.2720 C.3   251  ARG251      0.0489
    103  CD       -17.6000   23.3050  -65.3950 C.3   251  ARG251      0.2205
    104  NE       -16.1660   23.2260  -65.7420 N.pl3 251  ARG251     -0.0865
    105  CZ       -15.2860   22.3900  -65.1700 C.cat 251  ARG251      0.5346
    106  NH1      -15.6540   21.5210  -64.2300 N.pl3 251  ARG251      0.1354
    107  NH2      -14.0160   22.4030  -65.5370 N.pl3 251  ARG251      0.1354
    108  N        -18.0930   17.1580  -68.3030 N.3   253  LEU253     -0.1245
    109  CA       -16.8800   16.6790  -68.9490 C.3   253  LEU253      0.1561
    110  C        -16.7780   15.1660  -68.7930 C.2   253  LEU253      0.2260
    111  O        -17.4360   14.5540  -67.9540 O.2   253  LEU253     -0.2867
    112  CB       -15.6650   17.3680  -68.3610 C.3   253  LEU253      0.0270
    113  CG       -15.7210   18.9050  -68.4230 C.3   253  LEU253      0.0019
    114  CD1      -16.1740   19.4570  -67.0810 C.3   253  LEU253      0.0001
    115  CD2      -14.3950   19.5240  -68.7790 C.3   253  LEU253      0.0001
    116  N        -13.7590   12.0870  -68.3800 N.3   255  ARG255     -0.1197
    117  CA       -12.4440   11.9450  -67.8530 C.3   255  ARG255      0.1779
    118  C        -11.9480   10.5150  -67.9840 C.2   255  ARG255      0.2305
    119  O        -12.6710    9.6120  -67.6400 O.2   255  ARG255     -0.2863
    120  CB       -12.5690   12.2650  -66.3550 C.2   255  ARG255     -0.0007
    121  CG       -11.3280   11.9820  -65.5120 C.2   255  ARG255      0.0176
    122  CD       -11.4360   12.2970  -64.0840 C.3   255  ARG255      0.2464
    123  NE       -10.3210   11.6560  -63.4660 N.pl3 255  ARG255     -0.0815
    124  CZ        -9.5430   12.1690  -62.4910 C.cat 255  ARG255      0.5349
    125  NH1       -9.6960   13.3930  -62.0160 N.pl3 255  ARG255      0.1354
    126  NH2       -8.5830   11.3960  -61.9780 N.pl3 255  ARG255      0.1354
@<TRIPOS>BOND
     1    56    57    2
     2    56    55    1
     3    34    33    2
     4    55    54    1
     5    55    58    1
     6    33    32    1
     7    58    59    1
     8    64    66   ar
     9    64    61   ar
    10    31    32    1
    11    66    67   ar
    12    32    35    1
    13    59    61   ar
    14    59    60   ar
    15    61    63   ar
    16   109   110    1
    17   109   112    1
    18   109   108    1
    19   110   111    2
    20   115   113    1
    21    67    65   ar
    22    35    36    1
    23   113   112    1
    24   113   114    1
    25   116   117    1
    26    60    62   ar
    27    68    69    1
    28    63    65   ar
    29    63    62   ar
    30    36    37    1
    31   118   117    1
    32   118   119    2
    33   117   120    1
    34    45    44   ar
    35    69    70    1
    36    69    72    1
    37    98    99    1
    38    98    97    1
    39    98   101    1
    40    99   100    2
    41    46    44   ar
    42    44    43    1
    43    37    38    1
    44    70    71    2
    45   120   121    2
    46   102   101    1
    47   102   103    1
    48    72    73    1
    49   104   103    1
    50   104   105    2
    51    43    40    1
    52    40    39    1
    53    40    41    1
    54    78    80   ar
    55    78    75   ar
    56   107   105    1
    57     4     3    2
    58   121   122    1
    59     1     2    1
    60   105   106    1
    61    80    81   ar
    62    50    49    2
    63    47    41   am
    64    47    48    1
    65    73    75   ar
    66    73    74   ar
    67    52    51    1
    68    75    77   ar
    69    41    42    2
    70    51    48    1
    71    51    53    1
    72     3     2    1
    73     5     2    1
    74     5     6    1
    75     5     7    1
    76     6     8    1
    77    48    49    1
    78   122   123    1
    79    81    79   ar
    80    74    76   ar
    81    77    79   ar
    82    77    76   ar
    83   123   124    2
    84   124   125    1
    85   124   126    1
    86    86    87    1
    87    86    83    1
    88    87    88   ar
    89    87    89   ar
    90    88    90   ar
    91    89    91   ar
    92    30    28   ar
    93    90    91   ar
    94    83    82    1
    95    83    84    1
    96    93    94    1
    97    93    96    1
    98    93    92    1
    99    94    95    2
   100    28    27    1
   101    28    29   ar
   102    84    85    2
   103    27    24    1
   104    23    24    1
   105    16    15    2
   106    24    25    1
   107    26    25    2
   108    22    21   ar
   109    22    20   ar
   110    21    19   ar
   111    12    11    2
   112    15    14    1
   113    20    18   ar
   114    10    11    1
   115    10     9    1
   116    19    18   ar
   117    18    17    1
   118    13    14    1
   119    14    17    1
