@<TRIPOS>MOLECULE
tmp/6d0pD00.pdb
 107 101 0 0 0
SMALL
GASTEIGER

@<TRIPOS>ATOM
      1  N        -39.5510   35.1920   28.3410 N.3    15  VAL15      -0.1245
      2  CA       -38.7390   35.0770   27.1380 C.3    15  VAL15       0.1561
      3  C        -37.8580   36.3330   27.1600 C.2    15  VAL15       0.2260
      4  O        -38.3600   37.4680   27.0890 O.2    15  VAL15      -0.2867
      5  CB       -39.5890   34.9280   25.8640 C.3    15  VAL15       0.0252
      6  CG1      -38.7400   35.0250   24.6020 C.3    15  VAL15       0.0019
      7  CG2      -40.3700   33.6280   25.8830 C.3    15  VAL15       0.0019
      8  N        -40.5770   39.6710   27.8390 N.3    19  PHE19      -0.1241
      9  CA       -41.8450   39.0390   27.4880 C.3    19  PHE19       0.1605
     10  C        -42.2740   38.0510   28.5700 C.2    19  PHE19       0.2264
     11  O        -41.8290   36.9080   28.5620 O.2    19  PHE19      -0.2867
     12  CB       -41.7060   38.3460   26.1240 C.3    19  PHE19       0.0534
     13  CG       -41.3140   39.2840   25.0160 C.ar   19  PHE19      -0.0203
     14  CD1      -42.2590   40.0780   24.3920 C.ar   19  PHE19      -0.0042
     15  CD2      -39.9920   39.3970   24.6130 C.ar   19  PHE19      -0.0042
     16  CE1      -41.9000   40.9510   23.3790 C.ar   19  PHE19      -0.0003
     17  CE2      -39.6310   40.2780   23.6040 C.ar   19  PHE19      -0.0003
     18  CZ       -40.5840   41.0560   22.9880 C.ar   19  PHE19      -0.0000
     19  N        -44.6820   35.6960   29.5520 N.3    21  VAL21      -0.1245
     20  CA       -45.7320   35.0280   28.8050 C.3    21  VAL21       0.1561
     21  C        -46.2410   33.7490   29.4730 C.2    21  VAL21       0.2260
     22  O        -45.5480   33.0800   30.2560 O.2    21  VAL21      -0.2867
     23  CB       -45.2190   34.7040   27.3890 C.3    21  VAL21       0.0252
     24  CG1      -44.9470   35.9590   26.5950 C.3    21  VAL21       0.0019
     25  CG2      -43.9860   33.8010   27.4020 C.3    21  VAL21       0.0019
     26  N        -47.6730   27.3800   18.0130 N.3    39  LEU39      -0.1245
     27  CA       -47.4030   27.8920   19.3420 C.3    39  LEU39       0.1561
     28  C        -48.1540   29.2000   19.5840 C.2    39  LEU39       0.2260
     29  O        -48.3190   30.0240   18.6750 O.2    39  LEU39      -0.2867
     30  CB       -45.8900   28.1180   19.4460 C.3    39  LEU39       0.0270
     31  CG       -45.3820   28.5570   20.8150 C.3    39  LEU39       0.0019
     32  CD1      -44.2600   27.6650   21.2890 C.3    39  LEU39       0.0001
     33  CD2      -44.9640   30.0070   20.7970 C.3    39  LEU39       0.0001
     34  N        -48.1000   32.1870   22.6780 N.3    41  ASP41      -0.1239
     35  CA       -47.6020   32.7580   23.9080 C.3    41  ASP41       0.1674
     36  C        -48.4370   34.0030   24.1930 C.2    41  ASP41       0.2266
     37  O        -48.5950   34.8550   23.3080 O.2    41  ASP41      -0.2867
     38  CB       -46.1230   33.1310   23.7800 C.3    41  ASP41       0.1410
     39  CG       -45.1550   31.9830   24.0160 C.2    41  ASP41       0.3668
     40  OD1      -45.5900   30.9280   24.5600 O.co2  41  ASP41      -0.2456
     41  OD2      -43.9540   32.1610   23.6870 O.co2  41  ASP41      -0.2456
     42  N        -35.6510   40.2590   23.8480 N.3    57  VAL57      -0.1245
     43  CA       -34.8810   39.0440   23.6530 C.3    57  VAL57       0.1561
     44  C        -33.7890   39.3710   22.6220 C.2    57  VAL57       0.2260
     45  O        -34.0120   40.1740   21.7150 O.2    57  VAL57      -0.2867
     46  CB       -35.8100   37.8860   23.2180 C.3    57  VAL57       0.0252
     47  CG1      -36.4010   38.1280   21.8420 C.3    57  VAL57       0.0019
     48  CG2      -35.1270   36.5310   23.2550 C.3    57  VAL57       0.0019
     49  N        -31.8770   35.9240   17.5740 N.3    60  HIS60      -0.1241
     50  CA       -32.2130   34.5060   17.5000 C.3    60  HIS60       0.1621
     51  C        -32.7460   34.2040   16.0970 C.2    60  HIS60       0.2264
     52  O        -33.3300   35.0740   15.4470 O.2    60  HIS60      -0.2867
     53  CB       -33.2280   34.1100   18.5730 C.3    60  HIS60       0.0745
     54  CG       -34.5380   34.8080   18.4320 C.ar   60  HIS60       0.0817
     55  ND1      -34.7540   36.0640   18.9430 N.ar   60  HIS60      -0.2268
     56  CD2      -35.6960   34.4330   17.8450 C.ar   60  HIS60       0.1154
     57  CE1      -35.9870   36.4420   18.6690 C.ar   60  HIS60       0.1986
     58  NE2      -36.5860   35.4600   17.9920 N.ar   60  HIS60      -0.2212
     59  N        -34.9310   31.9340   13.0760 N.3    62  HIS62      -0.1241
     60  CA       -36.1620   31.2040   12.8200 C.3    62  HIS62       0.1621
     61  C        -36.0700   30.6520   11.3980 C.2    62  HIS62       0.2264
     62  O        -35.5090   31.3150   10.5390 O.2    62  HIS62      -0.2867
     63  CB       -37.4220   32.0820   12.8780 C.3    62  HIS62       0.0745
     64  CG       -37.7830   32.6310   14.2130 C.ar   62  HIS62       0.0817
     65  ND1      -38.1550   31.8200   15.2650 N.ar   62  HIS62      -0.2268
     66  CD2      -37.9370   33.9050   14.6400 C.ar   62  HIS62       0.1154
     67  CE1      -38.4730   32.5760   16.2980 C.ar   62  HIS62       0.1986
     68  NE2      -38.3570   33.8530   15.9330 N.ar   62  HIS62      -0.2212
     69  N        -36.2490   41.1190   19.2190 N.3   105  GLU105     -0.1245
     70  CA       -37.5540   41.6790   19.5020 C.3   105  GLU105      0.1567
     71  C        -37.5150   42.2840   20.9100 C.2   105  GLU105      0.2260
     72  O        -37.0120   41.6690   21.8480 O.2   105  GLU105     -0.2867
     73  CB       -38.6510   40.6240   19.3820 C.3   105  GLU105      0.0388
     74  CG       -38.7330   39.9860   18.0130 C.3   105  GLU105      0.1160
     75  CD       -39.5370   38.6930   18.0220 C.2   105  GLU105      0.3649
     76  OE1      -38.9520   37.6220   18.3540 O.co2 105  GLU105     -0.2457
     77  OE2      -40.7450   38.7760   17.7320 O.co2 105  GLU105     -0.2457
     78  N        -48.0130   36.2940   20.7820 N.3   121  GLN121     -0.1245
     79  CA       -47.1910   35.8340   19.6690 C.3   121  GLN121      0.1566
     80  C        -47.6920   34.4320   19.3010 C.2   121  GLN121      0.2260
     81  O        -47.8280   33.5510   20.1590 O.2   121  GLN121     -0.2867
     82  CB       -45.6790   35.8520   19.9200 C.3   121  GLN121      0.0367
     83  CG       -44.8980   35.4330   18.6640 C.3   121  GLN121      0.0905
     84  CD       -43.4390   35.8260   18.6020 C.2   121  GLN121      0.2608
     85  OE1      -42.5490   34.9670   18.6400 O.2   121  GLN121     -0.2717
     86  NE2      -43.1760   37.1310   18.4910 N.am  121  GLN121     -0.0878
     87  N        -47.2700   31.2550   16.4680 N.3   123  TRP123     -0.1241
     88  CA       -46.4750   30.6460   15.4120 C.3   123  TRP123      0.1605
     89  C        -47.4210   29.8560   14.5030 C.2   123  TRP123      0.2264
     90  O        -48.2230   29.0500   14.9960 O.2   123  TRP123     -0.2867
     91  CB       -45.3910   29.7360   15.9840 C.3   123  TRP123      0.0550
     92  CG       -44.2820   30.4200   16.7190 C.ar  123  TRP123      0.0003
     93  CD1      -44.2260   31.7150   17.1510 C.ar  123  TRP123      0.0946
     94  CD2      -43.0900   29.7890   17.2080 C.ar  123  TRP123      0.0152
     95  NE1      -43.0550   31.9360   17.8350 N.ar  123  TRP123     -0.2442
     96  CE2      -42.3490   30.7720   17.8990 C.ar  123  TRP123      0.0810
     97  CE3      -42.5680   28.4980   17.1160 C.ar  123  TRP123      0.0012
     98  CZ2      -41.1100   30.5030   18.4750 C.ar  123  TRP123      0.0191
     99  CZ3      -41.3520   28.2260   17.7010 C.ar  123  TRP123      0.0001
    100  CH2      -40.6330   29.2140   18.3680 C.ar  123  TRP123      0.0015
    101  N        -36.0740   27.4030   17.8300 N.3   258  PRO258     -0.2116
    102  CA       -36.7420   28.3230   16.9040 C.3   258  PRO258      0.1372
    103  C        -36.8450   27.8240   15.4510 C.2   258  PRO258      0.2244
    104  O        -37.1170   28.6310   14.5620 O.2   258  PRO258     -0.2868
    105  CB       -35.8460   29.5660   17.0120 C.3   258  PRO258      0.0268
    106  CG       -34.4520   28.9940   17.1100 C.3   258  PRO258      0.0207
    107  CD       -34.6230   27.6680   17.8250 C.3   258  PRO258      0.0892
@<TRIPOS>BOND
     1    62    61    2
     2    61    60    1
     3    60    63    1
     4    60    59    1
     5    63    64    1
     6    64    66   ar
     7    64    65   ar
     8    89    90    2
     9    89    88    1
    10   104   103    2
    11    66    68   ar
    12    65    67   ar
    13    88    91    1
    14    88    87    1
    15    52    51    2
    16   103   102    1
    17    68    67   ar
    18    91    92    1
    19    51    50    1
    20    92    93   ar
    21    92    94   ar
    22   102   105    1
    23   102   101    1
    24   105   106    1
    25   106   107    1
    26    97    94   ar
    27    97    99   ar
    28    93    95   ar
    29    94    96   ar
    30    50    49    1
    31    50    53    1
    32    99   100   ar
    33    77    75   ar
    34   107   101    1
    35    95    96   ar
    36    56    58   ar
    37    56    54   ar
    38    96    98   ar
    39    58    57   ar
    40    26    27    1
    41    74    75    1
    42    74    73    1
    43    75    76   ar
    44   100    98   ar
    45    54    53    1
    46    54    55   ar
    47    86    84   am
    48    84    85    2
    49    84    83    1
    50    83    82    1
    51    57    55   ar
    52    29    28    2
    53    69    70    1
    54    80    79    1
    55    80    81    2
    56    27    30    1
    57    27    28    1
    58    73    70    1
    59    30    31    1
    60    70    71    1
    61    79    82    1
    62    79    78    1
    63    33    31    1
    64    31    32    1
    65    71    72    2
    66    45    44    2
    67    47    46    1
    68    44    43    1
    69    34    35    1
    70    18    16   ar
    71    18    17   ar
    72    46    48    1
    73    46    43    1
    74    37    36    2
    75    16    14   ar
    76    17    15   ar
    77    43    42    1
    78    41    39   ar
    79    38    35    1
    80    38    39    1
    81    35    36    1
    82    39    40   ar
    83    14    13   ar
    84     6     5    1
    85    15    13   ar
    86    13    12    1
    87     5     7    1
    88     5     2    1
    89    12     9    1
    90    24    23    1
    91     4     3    2
    92     2     3    1
    93     2     1    1
    94    23    25    1
    95    23    20    1
    96     9     8    1
    97     9    10    1
    98    11    10    2
    99    20    21    1
   100    20    19    1
   101    21    22    2
