@<TRIPOS>MOLECULE
tmp/6d0pA02.pdb
 96 92 0 0 0
SMALL
GASTEIGER

@<TRIPOS>ATOM
      1  N        -24.2610  -10.6120   73.2720 N.3    13  HIS13      -0.1241
      2  CA       -24.6460   -9.3590   73.9330 C.3    13  HIS13       0.1621
      3  C        -26.1680   -9.4040   74.1020 C.2    13  HIS13       0.2264
      4  O        -26.8670  -10.1220   73.3620 O.2    13  HIS13      -0.2867
      5  CB       -24.1620   -8.1010   73.1920 C.3    13  HIS13       0.0745
      6  CG       -24.9440   -7.7680   71.9740 C.ar   13  HIS13       0.0817
      7  ND1      -24.6440   -8.2900   70.7300 N.ar   13  HIS13      -0.2268
      8  CD2      -25.9950   -6.9390   71.7950 C.ar   13  HIS13       0.1154
      9  CE1      -25.5150   -7.8360   69.8540 C.ar   13  HIS13       0.1986
     10  NE2      -26.3440   -6.9920   70.4820 N.ar   13  HIS13      -0.2212
     11  N        -29.8840   -7.6810   74.0500 N.3    15  VAL15      -0.1245
     12  CA       -30.8200   -6.6800   73.5900 C.3    15  VAL15       0.1561
     13  C        -31.9720   -6.7530   74.6010 C.2    15  VAL15       0.2260
     14  O        -32.7000   -7.7590   74.6700 O.2    15  VAL15      -0.2867
     15  CB       -31.2520   -6.9230   72.1310 C.3    15  VAL15       0.0252
     16  CG1      -32.3530   -5.9650   71.7050 C.3    15  VAL15       0.0019
     17  CG2      -30.0640   -6.8220   71.1870 C.3    15  VAL15       0.0019
     18  N        -24.4080  -11.1580   67.2450 N.3    23  ASN23      -0.1240
     19  CA       -24.4990  -10.3750   66.0350 C.3    23  ASN23       0.1653
     20  C        -23.6460  -11.0800   64.9880 C.2    23  ASN23       0.2266
     21  O        -22.4430  -11.1880   65.1910 O.2    23  ASN23      -0.2867
     22  CB       -23.9930   -8.9440   66.2100 C.3    23  ASN23       0.1155
     23  CG       -24.0540   -8.1960   64.8990 C.2    23  ASN23       0.2627
     24  OD1      -23.0260   -7.9370   64.2830 O.2    23  ASN23      -0.2716
     25  ND2      -25.2550   -7.9670   64.4100 N.am   23  ASN23      -0.0877
     26  N        -23.2310   -6.8670   60.5520 N.3    26  SER26      -0.1202
     27  CA       -23.7270   -5.5210   60.6790 C.3    26  SER26       0.2020
     28  C        -23.2040   -4.6440   59.5310 C.2    26  SER26       0.2619
     29  O        -22.0440   -4.7420   59.1550 O.2    26  SER26      -0.2717
     30  CB       -23.3420   -4.9360   62.0170 C.3    26  SER26       0.2103
     31  OG       -23.7170   -3.5660   62.0710 O.3    26  SER26      -0.2182
     32  N        -24.0430   -3.7080   59.0900 N.am   27  TYR27      -0.1961
     33  CA       -23.7110   -2.7400   58.0330 C.3    27  TYR27       0.1771
     34  C        -22.5790   -1.8190   58.5120 C.2    27  TYR27       0.2620
     35  O        -21.8800   -1.2240   57.7090 O.2    27  TYR27      -0.2715
     36  CB       -24.9230   -1.8760   57.6700 C.3    27  TYR27       0.0574
     37  CG       -25.3620   -0.9130   58.7350 C.ar   27  TYR27      -0.0198
     38  CD1      -24.8180    0.3620   58.8060 C.ar   27  TYR27      -0.0009
     39  CD2      -26.3250   -1.2590   59.6610 C.ar   27  TYR27      -0.0009
     40  CE1      -25.1910    1.2510   59.8010 C.ar   27  TYR27       0.0417
     41  CE2      -26.7380   -0.3730   60.6380 C.ar   27  TYR27       0.0417
     42  CZ       -26.1540    0.8810   60.7210 C.ar   27  TYR27       0.1957
     43  OH       -26.5540    1.7570   61.6890 O.3    27  TYR27      -0.2866
     44  N        -22.4450   -1.7090   59.8220 N.am   28  ASP28      -0.1957
     45  CA       -21.4710   -0.8160   60.4270 C.3    28  ASP28       0.1840
     46  C        -20.0560   -1.3680   60.2270 C.2    28  ASP28       0.2621
     47  O        -19.1150   -0.6130   60.2610 O.2    28  ASP28      -0.2715
     48  CB       -21.7410   -0.6200   61.9230 C.3    28  ASP28       0.1450
     49  CG       -21.0550    0.6140   62.4860 C.2    28  ASP28       0.3671
     50  OD1      -21.2650    1.7120   61.9210 O.co2  28  ASP28      -0.2456
     51  OD2      -20.3060    0.4680   63.4740 O.co2  28  ASP28      -0.2456
     52  N        -19.9370   -2.6760   60.0140 N.am   29  ARG29      -0.1977
     53  CA       -18.6370   -3.3230   59.7990 C.3    29  ARG29       0.1597
     54  C        -18.4760   -3.7030   58.3270 C.2    29  ARG29       0.2287
     55  O        -17.4120   -3.5000   57.7780 O.2    29  ARG29      -0.2864
     56  CB       -18.4920   -4.5810   60.6670 C.3    29  ARG29       0.0334
     57  CG       -18.6610   -4.3220   62.1600 C.3    29  ARG29       0.0492
     58  CD       -18.2630   -5.5010   63.0320 C.3    29  ARG29       0.2205
     59  NE       -19.0230   -6.7270   62.7880 N.pl3  29  ARG29      -0.0865
     60  CZ       -20.1470   -7.0600   63.4170 C.cat  29  ARG29       0.5346
     61  NH1      -20.7010   -6.2190   64.2770 N.pl3  29  ARG29       0.1354
     62  NH2      -20.6970   -8.2450   63.2040 N.pl3  29  ARG29       0.1354
     63  N        -28.2550   -6.1710   58.9810 N.3    39  LEU39      -0.1245
     64  CA       -27.9180   -6.6930   60.2970 C.3    39  LEU39       0.1561
     65  C        -28.5560   -8.0620   60.5010 C.2    39  LEU39       0.2260
     66  O        -29.6690   -8.2950   60.0630 O.2    39  LEU39      -0.2867
     67  CB       -28.4550   -5.7160   61.3420 C.3    39  LEU39       0.0270
     68  CG       -28.0760   -6.0320   62.7810 C.3    39  LEU39       0.0019
     69  CD1      -27.2380   -4.9190   63.3770 C.3    39  LEU39       0.0001
     70  CD2      -29.2950   -6.3220   63.6050 C.3    39  LEU39       0.0001
     71  N        -28.9500  -10.6530   63.8930 N.3    41  ASP41      -0.1239
     72  CA       -28.7510  -11.0210   65.2970 C.3    41  ASP41       0.1674
     73  C        -29.3660  -12.4040   65.5170 C.2    41  ASP41       0.2266
     74  O        -30.5490  -12.6250   65.2000 O.2    41  ASP41      -0.2867
     75  CB       -29.4080  -10.0430   66.2620 C.3    41  ASP41       0.1410
     76  CG       -28.6120   -8.7820   66.5350 C.2    41  ASP41       0.3668
     77  OD1      -27.3950   -8.7660   66.2240 O.co2  41  ASP41      -0.2456
     78  OD2      -29.2250   -7.8340   67.1050 O.co2  41  ASP41      -0.2456
     79  N        -32.3350   -7.3260   59.6660 N.3   123  TRP123     -0.1241
     80  CA       -32.7230   -6.0340   59.1510 C.3   123  TRP123      0.1605
     81  C        -32.4390   -6.0220   57.6430 C.2   123  TRP123      0.2264
     82  O        -31.3390   -6.3970   57.2370 O.2   123  TRP123     -0.2867
     83  CB       -31.9460   -4.9260   59.8290 C.3   123  TRP123      0.0550
     84  CG       -32.2390   -4.7090   61.2780 C.ar  123  TRP123      0.0003
     85  CD1      -32.9520   -5.5020   62.1380 C.ar  123  TRP123      0.0946
     86  CD2      -31.7130   -3.6320   62.0660 C.ar  123  TRP123      0.0152
     87  NE1      -32.9630   -4.9420   63.3850 N.ar  123  TRP123     -0.2442
     88  CE2      -32.2100   -3.7970   63.3750 C.ar  123  TRP123      0.0810
     89  CE3      -30.9390   -2.5040   61.7700 C.ar  123  TRP123      0.0012
     90  CZ2      -31.9080   -2.8950   64.3930 C.ar  123  TRP123      0.0191
     91  CZ3      -30.6520   -1.6040   62.7740 C.ar  123  TRP123      0.0001
     92  CH2      -31.1140   -1.8110   64.0720 C.ar  123  TRP123      0.0015
     93  N        -27.9500    4.1310   65.2970 N.3   257  GLY257     -0.1225
     94  CA       -28.8430    3.3850   66.1970 C.3   257  GLY257      0.1811
     95  C        -29.9340    2.6020   65.4770 C.2   257  GLY257      0.2280
     96  O        -29.6550    1.7030   64.6920 O.2   257  GLY257     -0.2866
@<TRIPOS>BOND
     1    82    81    2
     2    81    80    1
     3    36    33    1
     4    36    37    1
     5    35    34    2
     6    55    54    2
     7    33    34    1
     8    33    32    1
     9    54    53    1
    10    34    44   am
    11    37    38   ar
    12    37    39   ar
    13    38    40   ar
    14    63    64    1
    15    32    28   am
    16    80    79    1
    17    80    83    1
    18    29    28    2
    19    28    27    1
    20    39    41   ar
    21    53    52    1
    22    53    56    1
    23    40    42   ar
    24    44    45    1
    25    83    84    1
    26    52    46   am
    27    66    65    2
    28    46    47    2
    29    46    45    1
    30    64    65    1
    31    64    67    1
    32    45    48    1
    33    26    27    1
    34    41    42   ar
    35    56    57    1
    36    27    30    1
    37    42    43    1
    38    84    86   ar
    39    84    85   ar
    40    67    68    1
    41    89    86   ar
    42    89    91   ar
    43    50    49   ar
    44    48    49    1
    45    30    31    1
    46    86    88   ar
    47    85    87   ar
    48    57    58    1
    49    49    51   ar
    50    91    92   ar
    51    68    69    1
    52    68    70    1
    53    59    58    1
    54    59    60    2
    55    62    60    1
    56    88    87   ar
    57    88    90   ar
    58    60    61    1
    59    71    72    1
    60    92    90   ar
    61    24    23    2
    62    25    23   am
    63    96    95    2
    64    23    22    1
    65    20    21    2
    66    20    19    1
    67    74    73    2
    68    93    94    1
    69    72    73    1
    70    72    75    1
    71    95    94    1
    72    19    22    1
    73    19    18    1
    74    77    76   ar
    75    75    76    1
    76    76    78   ar
    77     9    10   ar
    78     9     7   ar
    79    10     8   ar
    80     7     6   ar
    81    17    15    1
    82    16    15    1
    83     8     6   ar
    84     6     5    1
    85    15    12    1
    86     5     2    1
    87     1     2    1
    88     4     3    2
    89    12    11    1
    90    12    13    1
    91     2     3    1
    92    13    14    2
