@<TRIPOS>MOLECULE
tmp/6d0pA00.pdb
 100 94 0 0 0
SMALL
GASTEIGER

@<TRIPOS>ATOM
      1  N        -29.8840   -7.6810   74.0500 N.3    15  VAL15      -0.1245
      2  CA       -30.8200   -6.6800   73.5900 C.3    15  VAL15       0.1561
      3  C        -31.9720   -6.7530   74.6010 C.2    15  VAL15       0.2260
      4  O        -32.7000   -7.7590   74.6700 O.2    15  VAL15      -0.2867
      5  CB       -31.2520   -6.9230   72.1310 C.3    15  VAL15       0.0252
      6  CG1      -32.3530   -5.9650   71.7050 C.3    15  VAL15       0.0019
      7  CG2      -30.0640   -6.8220   71.1870 C.3    15  VAL15       0.0019
      8  N        -33.3540  -10.8310   74.9160 N.3    19  PHE19      -0.1241
      9  CA       -32.7550  -11.3130   73.6570 C.3    19  PHE19       0.1605
     10  C        -31.2310  -11.4300   73.7860 C.2    19  PHE19       0.2264
     11  O        -30.5370  -10.4700   73.5590 O.2    19  PHE19      -0.2867
     12  CB       -33.1280  -10.3940   72.4900 C.3    19  PHE19       0.0534
     13  CG       -34.6140  -10.2310   72.2980 C.ar   19  PHE19      -0.0203
     14  CD1      -35.3490  -11.1560   71.5810 C.ar   19  PHE19      -0.0042
     15  CD2      -35.2800   -9.1530   72.8450 C.ar   19  PHE19      -0.0042
     16  CE1      -36.7210  -11.0020   71.4170 C.ar   19  PHE19      -0.0003
     17  CE2      -36.6490   -9.0020   72.6870 C.ar   19  PHE19      -0.0003
     18  CZ       -37.3710   -9.9350   71.9860 C.ar   19  PHE19      -0.0000
     19  N        -28.2010  -12.3490   72.1310 N.3    21  VAL21      -0.1245
     20  CA       -27.9130  -12.5520   70.7190 C.3    21  VAL21       0.1561
     21  C        -26.4110  -12.5090   70.4060 C.2    21  VAL21       0.2260
     22  O        -25.6030  -11.8960   71.0980 O.2    21  VAL21      -0.2867
     23  CB       -28.6390  -11.4900   69.8730 C.3    21  VAL21       0.0252
     24  CG1      -30.1530  -11.6140   69.9750 C.3    21  VAL21       0.0019
     25  CG2      -28.1980  -10.0800   70.2430 C.3    21  VAL21       0.0019
     26  N        -28.2550   -6.1710   58.9810 N.3    39  LEU39      -0.1245
     27  CA       -27.9180   -6.6930   60.2970 C.3    39  LEU39       0.1561
     28  C        -28.5560   -8.0620   60.5010 C.2    39  LEU39       0.2260
     29  O        -29.6690   -8.2950   60.0630 O.2    39  LEU39      -0.2867
     30  CB       -28.4550   -5.7160   61.3420 C.3    39  LEU39       0.0270
     31  CG       -28.0760   -6.0320   62.7810 C.3    39  LEU39       0.0019
     32  CD1      -27.2380   -4.9190   63.3770 C.3    39  LEU39       0.0001
     33  CD2      -29.2950   -6.3220   63.6050 C.3    39  LEU39       0.0001
     34  N        -28.9500  -10.6530   63.8930 N.3    41  ASP41      -0.1239
     35  CA       -28.7510  -11.0210   65.2970 C.3    41  ASP41       0.1674
     36  C        -29.3660  -12.4040   65.5170 C.2    41  ASP41       0.2266
     37  O        -30.5490  -12.6250   65.2000 O.2    41  ASP41      -0.2867
     38  CB       -29.4080  -10.0430   66.2620 C.3    41  ASP41       0.1410
     39  CG       -28.6120   -8.7820   66.5350 C.2    41  ASP41       0.3668
     40  OD1      -27.3950   -8.7660   66.2240 O.co2  41  ASP41      -0.2456
     41  OD2      -29.2250   -7.8340   67.1050 O.co2  41  ASP41      -0.2456
     42  N        -37.4710   -6.1330   75.1120 N.3    57  VAL57      -0.1245
     43  CA       -36.9760   -4.7840   74.9770 C.3    57  VAL57       0.1561
     44  C        -38.1670   -3.8180   74.9230 C.2    57  VAL57       0.2260
     45  O        -39.1690   -4.0670   74.2510 O.2    57  VAL57      -0.2867
     46  CB       -36.0540   -4.6830   73.7450 C.3    57  VAL57       0.0252
     47  CG1      -36.8300   -4.8250   72.4460 C.3    57  VAL57       0.0019
     48  CG2      -35.2400   -3.4030   73.7410 C.3    57  VAL57       0.0019
     49  N        -38.9470    1.4270   71.4410 N.3    60  HIS60      -0.1241
     50  CA       -37.8320    1.9450   70.6790 C.3    60  HIS60       0.1621
     51  C        -38.3130    2.2240   69.2500 C.2    60  HIS60       0.2264
     52  O        -39.2470    1.6040   68.7720 O.2    60  HIS60      -0.2867
     53  CB       -36.6430    0.9730   70.6710 C.3    60  HIS60       0.0745
     54  CG       -36.9530   -0.3450   70.0450 C.ar   60  HIS60       0.0817
     55  ND1      -37.5500   -1.3650   70.7510 N.ar   60  HIS60      -0.2268
     56  CD2      -36.7420   -0.8200   68.7930 C.ar   60  HIS60       0.1154
     57  CE1      -37.7050   -2.4110   69.9600 C.ar   60  HIS60       0.1986
     58  NE2      -37.2230   -2.1000   68.7510 N.ar   60  HIS60      -0.2212
     59  N        -37.8150    2.8150   64.9410 N.3    62  HIS62      -0.1241
     60  CA       -37.1280    2.4020   63.7170 C.3    62  HIS62       0.1621
     61  C        -37.6020    3.2980   62.5800 C.2    62  HIS62       0.2264
     62  O        -38.7950    3.6840   62.5420 O.2    62  HIS62      -0.2867
     63  CB       -37.4150    0.9450   63.3060 C.3    62  HIS62       0.0745
     64  CG       -36.9690   -0.0970   64.2680 C.ar   62  HIS62       0.0817
     65  ND1      -35.6280   -0.3120   64.5390 N.ar   62  HIS62      -0.2268
     66  CD2      -37.6630   -1.0370   64.9520 C.ar   62  HIS62       0.1154
     67  CE1      -35.5230   -1.3190   65.4020 C.ar   62  HIS62       0.1986
     68  NE2      -36.7600   -1.7970   65.6500 N.ar   62  HIS62      -0.2212
     69  N        -40.8680   -5.2760   71.9250 N.3   105  GLU105     -0.1245
     70  CA       -40.7600   -6.6910   71.5560 C.3   105  GLU105      0.1567
     71  C        -40.4070   -7.4630   72.8310 C.2   105  GLU105      0.2260
     72  O        -39.3930   -7.1990   73.4690 O.2   105  GLU105     -0.2867
     73  CB       -39.6930   -6.9130   70.4670 C.3   105  GLU105      0.0388
     74  CG       -39.9650   -6.1820   69.1580 C.3   105  GLU105      0.1160
     75  CD       -38.8090   -6.0790   68.1560 C.2   105  GLU105      0.3649
     76  OE1      -37.9730   -5.1180   68.2580 O.co2 105  GLU105     -0.2457
     77  OE2      -38.7710   -6.9270   67.2410 O.co2 105  GLU105     -0.2457
     78  N        -33.2570  -12.1560   64.1800 N.3   121  GLN121     -0.1245
     79  CA       -33.7620  -10.8670   63.6980 C.3   121  GLN121      0.1566
     80  C        -32.8090  -10.3640   62.6050 C.2   121  GLN121      0.2260
     81  O        -31.5830  -10.2540   62.8060 O.2   121  GLN121     -0.2867
     82  CB       -33.9910   -9.8040   64.7810 C.3   121  GLN121      0.0367
     83  CG       -34.5830   -8.5170   64.1730 C.3   121  GLN121      0.0905
     84  CD       -35.1880   -7.5360   65.1550 C.2   121  GLN121      0.2608
     85  OE1      -34.6500   -6.4380   65.3690 O.2   121  GLN121     -0.2717
     86  NE2      -36.3070   -7.9300   65.7700 N.am  121  GLN121     -0.0878
     87  N        -32.3350   -7.3260   59.6660 N.3   123  TRP123     -0.1241
     88  CA       -32.7230   -6.0340   59.1510 C.3   123  TRP123      0.1605
     89  C        -32.4390   -6.0220   57.6430 C.2   123  TRP123      0.2264
     90  O        -31.3390   -6.3970   57.2370 O.2   123  TRP123     -0.2867
     91  CB       -31.9460   -4.9260   59.8290 C.3   123  TRP123      0.0550
     92  CG       -32.2390   -4.7090   61.2780 C.ar  123  TRP123      0.0003
     93  CD1      -32.9520   -5.5020   62.1380 C.ar  123  TRP123      0.0946
     94  CD2      -31.7130   -3.6320   62.0660 C.ar  123  TRP123      0.0152
     95  NE1      -32.9630   -4.9420   63.3850 N.ar  123  TRP123     -0.2442
     96  CE2      -32.2100   -3.7970   63.3750 C.ar  123  TRP123      0.0810
     97  CE3      -30.9390   -2.5040   61.7700 C.ar  123  TRP123      0.0012
     98  CZ2      -31.9080   -2.8950   64.3930 C.ar  123  TRP123      0.0191
     99  CZ3      -30.6520   -1.6040   62.7740 C.ar  123  TRP123      0.0001
    100  CH2      -31.1140   -1.8110   64.0720 C.ar  123  TRP123      0.0015
@<TRIPOS>BOND
     1    90    89    2
     2    89    88    1
     3    26    27    1
     4    88    87    1
     5    88    91    1
     6    91    92    1
     7    29    28    2
     8    27    28    1
     9    27    30    1
    10    92    94   ar
    11    92    93   ar
    12    30    31    1
    13    97    94   ar
    14    97    99   ar
    15    94    96   ar
    16    93    95   ar
    17    62    61    2
    18    61    60    1
    19    80    81    2
    20    80    79    1
    21    99   100   ar
    22    31    32    1
    23    31    33    1
    24    63    60    1
    25    63    64    1
    26    96    95   ar
    27    96    98   ar
    28    79    78    1
    29    79    82    1
    30    60    59    1
    31    34    35    1
    32   100    98   ar
    33    83    82    1
    34    83    84    1
    35    64    65   ar
    36    64    66   ar
    37    65    67   ar
    38    66    68   ar
    39    84    85    2
    40    84    86   am
    41    37    36    2
    42    35    36    1
    43    35    38    1
    44    67    68   ar
    45    40    39   ar
    46    38    39    1
    47    39    41   ar
    48    77    75   ar
    49    75    76   ar
    50    75    74    1
    51    58    56   ar
    52    58    57   ar
    53    52    51    2
    54    56    54   ar
    55    74    73    1
    56    51    50    1
    57    23    24    1
    58    23    25    1
    59    23    20    1
    60    57    55   ar
    61    54    53    1
    62    54    55   ar
    63    21    20    1
    64    21    22    2
    65    73    70    1
    66    53    50    1
    67    50    49    1
    68    20    19    1
    69     7     5    1
    70    16    14   ar
    71    16    18   ar
    72    70    69    1
    73    70    71    1
    74    14    13   ar
    75     6     5    1
    76    18    17   ar
    77     5     2    1
    78    13    12    1
    79    13    15   ar
    80    47    46    1
    81    12     9    1
    82    17    15   ar
    83    71    72    2
    84    11    10    2
    85     2     1    1
    86     2     3    1
    87     9    10    1
    88     9     8    1
    89    48    46    1
    90    46    43    1
    91    45    44    2
    92     3     4    2
    93    44    43    1
    94    43    42    1
