@<TRIPOS>MOLECULE
tmp/6d0pD01.pdb
 124 118 0 0 0
SMALL
GASTEIGER

@<TRIPOS>ATOM
      1  N        -50.0260   43.3090   19.1420 N.3    71  ALA71      -0.1231
      2  CA       -49.8180   44.2060   20.2850 C.3    71  ALA71       0.1694
      3  C        -51.1630   44.7100   20.8140 C.2    71  ALA71       0.2592
      4  O        -51.9540   45.2720   20.0500 O.2    71  ALA71      -0.2718
      5  CB       -48.9390   45.3590   19.8480 C.3    71  ALA71       0.0304
      6  N        -51.4190   44.5210   22.1090 N.am   72  TYR72      -0.1962
      7  CA       -52.6620   44.9600   22.7130 C.3    72  TYR72       0.1771
      8  C        -52.4240   46.1620   23.6280 C.2    72  TYR72       0.2619
      9  O        -53.2430   47.0750   23.6580 O.2    72  TYR72      -0.2715
     10  CB       -53.3210   43.8310   23.5020 C.3    72  TYR72       0.0574
     11  CG       -53.8590   42.7110   22.6530 C.ar   72  TYR72      -0.0198
     12  CD1      -54.7570   42.9690   21.6290 C.ar   72  TYR72      -0.0009
     13  CD2      -53.5200   41.3900   22.9010 C.ar   72  TYR72      -0.0009
     14  CE1      -55.2890   41.9430   20.8600 C.ar   72  TYR72       0.0417
     15  CE2      -54.0470   40.3550   22.1400 C.ar   72  TYR72       0.0417
     16  CZ       -54.9490   40.6290   21.1290 C.ar   72  TYR72       0.1957
     17  OH       -55.4710   39.6160   20.3700 O.3    72  TYR72      -0.2866
     18  N        -51.3540   46.1220   24.4120 N.am   73  GLN73      -0.1977
     19  CA       -50.9630   47.2500   25.2320 C.3    73  GLN73       0.1601
     20  C        -49.4450   47.3770   25.1180 C.2    73  GLN73       0.2287
     21  O        -48.7400   46.3660   25.1760 O.2    73  GLN73      -0.2864
     22  CB       -51.3930   47.0940   26.6940 C.3    73  GLN73       0.0394
     23  CG       -52.8970   46.9040   26.8750 C.3    73  GLN73       0.0908
     24  CD       -53.3170   47.0010   28.3240 C.2    73  GLN73       0.2608
     25  OE1      -53.2470   48.0640   28.9320 O.2    73  GLN73      -0.2717
     26  NE2      -53.7910   45.9000   28.8830 N.am   73  GLN73      -0.0878
     27  N        -49.7720   49.6620   19.4540 N.3    90  THR90      -0.1203
     28  CA       -50.9790   49.0760   20.0010 C.3    90  THR90       0.1994
     29  C        -52.0180   48.9480   18.8850 C.2    90  THR90       0.2618
     30  O        -52.2990   49.9210   18.1780 O.2    90  THR90      -0.2717
     31  CB       -51.5070   49.9180   21.1730 C.3    90  THR90       0.1784
     32  OG1      -50.6010   49.7650   22.2670 O.3    90  THR90      -0.2211
     33  CG2      -52.8980   49.5220   21.6190 C.3    90  THR90       0.0376
     34  N        -52.5720   47.7570   18.7220 N.am   91  GLY91      -0.1956
     35  CA       -53.5760   47.4910   17.7040 C.3    91  GLY91       0.1869
     36  C        -52.9730   46.9970   16.3920 C.2    91  GLY91       0.2309
     37  O        -53.7110   46.5240   15.5360 O.2    91  GLY91      -0.2863
     38  N        -49.0640   44.1670   26.9610 N.3   119  GLU119     -0.1245
     39  CA       -49.9270   43.0120   26.7090 C.3   119  GLU119      0.1567
     40  C        -49.7820   42.6430   25.2320 C.2   119  GLU119      0.2260
     41  O        -49.9020   43.5230   24.3520 O.2   119  GLU119     -0.2867
     42  CB       -51.3870   43.3070   27.0580 C.3   119  GLU119      0.0388
     43  CG       -52.2990   42.0910   26.9540 C.3   119  GLU119      0.1160
     44  CD       -53.7870   42.3640   27.1530 C.2   119  GLU119      0.3649
     45  OE1      -54.1680   43.5580   27.2280 O.co2 119  GLU119     -0.2457
     46  OE2      -54.5760   41.3690   27.2630 O.co2 119  GLU119     -0.2457
     47  N        -62.8770   45.4680   11.3860 N.3   146  ASP146     -0.1239
     48  CA       -63.5000   45.2980   12.7050 C.3   146  ASP146      0.1674
     49  C        -65.0020   45.1070   12.4800 C.2   146  ASP146      0.2266
     50  O        -65.6090   45.8830   11.7660 O.2   146  ASP146     -0.2867
     51  CB       -63.2320   46.5210   13.6000 C.3   146  ASP146      0.1410
     52  CG       -63.1860   46.2520   15.1050 C.2   146  ASP146      0.3668
     53  OD1      -63.6160   45.1580   15.5420 O.co2 146  ASP146     -0.2456
     54  OD2      -62.7140   47.1430   15.8400 O.co2 146  ASP146     -0.2456
     55  N        -67.1020   42.6920   19.5940 N.3   155  HIS155     -0.1241
     56  CA       -66.5590   42.9430   18.2640 C.3   155  HIS155      0.1621
     57  C        -65.4940   41.8950   17.9370 C.2   155  HIS155      0.2264
     58  O        -64.9580   41.2370   18.8350 O.2   155  HIS155     -0.2867
     59  CB       -66.0140   44.3780   18.1620 C.3   155  HIS155      0.0745
     60  CG       -64.7600   44.5860   18.9370 C.ar  155  HIS155      0.0817
     61  ND1      -63.5100   44.5410   18.3420 N.ar  155  HIS155     -0.2268
     62  CD2      -64.5480   44.7670   20.2570 C.ar  155  HIS155      0.1154
     63  CE1      -62.5830   44.7100   19.2630 C.ar  155  HIS155      0.1986
     64  NE2      -63.1930   44.8570   20.4430 N.ar  155  HIS155     -0.2212
     65  N        -62.1280   41.3350   15.0920 N.3   157  ARG157     -0.1245
     66  CA       -61.1980   41.8320   14.0910 C.3   157  ARG157      0.1563
     67  C        -60.7560   40.6510   13.2250 C.2   157  ARG157      0.2260
     68  O        -60.4400   39.5890   13.7550 O.2   157  ARG157     -0.2867
     69  CB       -59.9470   42.4660   14.7120 C.3   157  ARG157      0.0307
     70  CG       -60.1980   43.6600   15.6240 C.3   157  ARG157      0.0489
     71  CD       -58.9150   44.4520   15.8490 C.3   157  ARG157      0.2205
     72  NE       -57.8270   43.6240   16.3770 N.pl3 157  ARG157     -0.0865
     73  CZ       -56.5510   43.9910   16.4190 C.cat 157  ARG157      0.5346
     74  NH1      -55.6510   43.1770   16.9430 N.pl3 157  ARG157      0.1354
     75  NH2      -56.1850   45.1690   15.9440 N.pl3 157  ARG157      0.1354
     76  N        -59.6650   38.0850   16.4060 N.3   180  ASP180     -0.1225
     77  CA       -59.5930   38.3970   17.8260 C.3   180  ASP180      0.1805
     78  C        -60.7070   39.3820   18.1290 C.2   180  ASP180      0.2598
     79  O        -61.2650   40.0120   17.2270 O.2   180  ASP180     -0.2718
     80  CB       -58.2070   38.8610   18.2770 C.3   180  ASP180      0.1424
     81  CG       -57.8030   40.2710   17.8820 C.2   180  ASP180      0.3668
     82  OD1      -58.5930   40.9490   17.2020 O.co2 180  ASP180     -0.2456
     83  OD2      -56.6770   40.6760   18.2590 O.co2 180  ASP180     -0.2456
     84  N        -61.0380   39.4980   19.3970 N.am  181  GLY181     -0.1942
     85  CA       -62.0730   40.4270   19.7230 C.3   181  GLY181      0.2014
     86  C        -62.3930   40.4140   21.1920 C.2   181  GLY181      0.2638
     87  O        -61.6340   39.8920   22.0100 O.2   181  GLY181     -0.2714
     88  N        -63.5260   41.0170   21.4850 N.am  182  LYS182     -0.1977
     89  CA       -64.0250   41.0860   22.8190 C.3   182  LYS182      0.1596
     90  C        -65.5180   40.7730   22.8070 C.2   182  LYS182      0.2287
     91  O        -66.2240   41.2110   21.9080 O.2   182  LYS182     -0.2864
     92  CB       -63.8180   42.4870   23.3980 C.3   182  LYS182      0.0298
     93  CG       -64.5250   42.7260   24.7230 C.3   182  LYS182      0.0038
     94  CD       -64.5010   44.1650   25.1650 C.3   182  LYS182      0.0206
     95  CE       -65.3960   44.4280   26.3550 C.3   182  LYS182      0.1093
     96  NZ       -65.5140   45.8800   26.6160 N.3   182  LYS182     -0.1314
     97  N        -58.2920   34.6640   26.3870 N.3   204  LEU204     -0.1245
     98  CA       -57.1870   35.3260   27.0070 C.3   204  LEU204      0.1561
     99  C        -57.5630   35.7130   28.4310 C.2   204  LEU204      0.2260
    100  O        -56.7900   35.4650   29.3550 O.2   204  LEU204     -0.2867
    101  CB       -56.8040   36.5590   26.1880 C.3   204  LEU204      0.0270
    102  CG       -56.3200   36.2580   24.7770 C.3   204  LEU204      0.0019
    103  CD1      -55.9780   37.5550   24.0400 C.3   204  LEU204      0.0001
    104  CD2      -55.1220   35.3440   24.8090 C.3   204  LEU204      0.0001
    105  N        -61.8910   38.6280   26.4070 N.3   240  LYS240     -0.1231
    106  CA       -60.9510   38.8470   25.3200 C.3   240  LYS240      0.1693
    107  C        -60.6460   37.4800   24.7110 C.2   240  LYS240      0.2592
    108  O        -60.2380   36.5550   25.4500 O.2   240  LYS240     -0.2718
    109  CB       -59.6200   39.4210   25.8120 C.3   240  LYS240      0.0285
    110  CG       -59.6470   40.7430   26.5710 C.3   240  LYS240      0.0035
    111  CD       -58.3000   40.9860   27.2530 C.3   240  LYS240      0.0206
    112  CE       -58.1320   42.3230   27.9420 C.3   240  LYS240      0.1093
    113  NZ       -56.8100   42.4060   28.6260 N.3   240  LYS240     -0.1314
    114  N        -60.8020   37.3350   23.4010 N.am  241  PHE241     -0.1976
    115  CA       -60.6320   36.0200   22.7940 C.3   241  PHE241      0.1639
    116  C        -59.9040   36.0990   21.4500 C.2   241  PHE241      0.2290
    117  O        -59.7070   37.1830   20.8690 O.2   241  PHE241     -0.2864
    118  CB       -62.0010   35.3740   22.5410 C.3   241  PHE241      0.0560
    119  CG       -62.8390   36.0620   21.4870 C.ar  241  PHE241     -0.0200
    120  CD1      -63.6650   37.1320   21.8070 C.ar  241  PHE241     -0.0042
    121  CD2      -62.7960   35.6510   20.1650 C.ar  241  PHE241     -0.0042
    122  CE1      -64.4220   37.7660   20.8350 C.ar  241  PHE241     -0.0003
    123  CE2      -63.5470   36.2930   19.1910 C.ar  241  PHE241     -0.0003
    124  CZ       -64.3580   37.3540   19.5260 C.ar  241  PHE241     -0.0000
@<TRIPOS>BOND
     1    47    48    1
     2    50    49    2
     3    49    48    1
     4    48    51    1
     5    67    68    2
     6    67    66    1
     7    51    52    1
     8    66    69    1
     9    66    65    1
    10    69    70    1
    11    52    53   ar
    12    52    54   ar
    13    37    36    2
    14    70    71    1
    15    71    72    1
    16    75    73    1
    17    72    73    2
    18    36    35    1
    19    76    77    1
    20    73    74    1
    21    82    81   ar
    22    79    78    2
    23    35    34    1
    24    77    78    1
    25    77    80    1
    26    81    83   ar
    27    81    80    1
    28    57    56    1
    29    57    58    2
    30    78    84   am
    31    59    56    1
    32    59    60    1
    33    30    29    2
    34    56    55    1
    35    61    60   ar
    36    61    63   ar
    37    34    29   am
    38    29    28    1
    39    60    62   ar
    40     1     2    1
    41   123   124   ar
    42   123   121   ar
    43    63    64   ar
    44    84    85    1
    45    27    28    1
    46   124   122   ar
    47    85    86    1
    48     5     2    1
    49    28    31    1
    50     4     3    2
    51   121   119   ar
    52    62    64   ar
    53     2     3    1
    54    17    16    1
    55     3     6   am
    56   122   120   ar
    57    14    16   ar
    58    14    12   ar
    59   117   116    2
    60    16    15   ar
    61    31    33    1
    62    31    32    1
    63    86    88   am
    64    86    87    2
    65   116   115    1
    66    88    89    1
    67   119   120   ar
    68   119   118    1
    69    12    11   ar
    70    91    90    2
    71     6     7    1
    72    15    13   ar
    73   118   115    1
    74    11    13   ar
    75    11    10    1
    76     7    10    1
    77     7     8    1
    78   115   114    1
    79    90    89    1
    80    89    92    1
    81    92    93    1
    82   114   107   am
    83     8     9    2
    84     8    18   am
    85   103   102    1
    86    41    40    2
    87    18    19    1
    88   107   106    1
    89   107   108    2
    90    93    94    1
    91   102   104    1
    92   102   101    1
    93    20    21    2
    94    20    19    1
    95    94    95    1
    96    19    22    1
    97    40    39    1
    98   106   109    1
    99   106   105    1
   100   109   110    1
   101   101    98    1
   102    95    96    1
   103    97    98    1
   104   110   111    1
   105    22    23    1
   106    39    38    1
   107    39    42    1
   108    23    24    1
   109    43    42    1
   110    43    44    1
   111    98    99    1
   112    44    45   ar
   113    44    46   ar
   114   111   112    1
   115   112   113    1
   116    24    26   am
   117    24    25    2
   118    99   100    2
