@<TRIPOS>MOLECULE
tmp/6d1mA01.pdb
 100 103 0 0 0
SMALL
GASTEIGER

@<TRIPOS>ATOM
      1  N         15.9530    7.5470   78.0350 N.3     1  SER1       -0.1217
      2  CA        14.5420    7.2840   77.6440 C.3     1  SER1        0.1889
      3  C         13.9950    6.1080   78.4420 C.2     1  SER1        0.2288
      4  O         14.7440    5.3200   78.9690 O.2     1  SER1       -0.2866
      5  CB        14.4760    6.9770   76.1550 C.3     1  SER1        0.2089
      6  OG        15.0680    5.7700   75.8170 O.3     1  SER1       -0.2183
      7  N         12.8880    2.6130   79.1120 N.3     3  HIS3       -0.1226
      8  CA        13.1700    1.2860   78.5600 C.3     3  HIS3        0.1752
      9  C         12.6870    0.1650   79.4760 C.2     3  HIS3        0.2596
     10  O         13.0840   -0.9930   79.3170 O.2     3  HIS3       -0.2718
     11  CB        14.6770    1.1110   78.2900 C.3     3  HIS3        0.0759
     12  CG        15.1460    1.7350   77.0130 C.ar    3  HIS3        0.0818
     13  ND1       16.4780    1.9860   76.7570 N.ar    3  HIS3       -0.2268
     14  CD2       14.4650    2.1860   75.9340 C.ar    3  HIS3        0.1154
     15  CE1       16.5990    2.5490   75.5680 C.ar    3  HIS3        0.1986
     16  NE2       15.3910    2.6860   75.0500 N.ar    3  HIS3       -0.2212
     17  N         11.8230    0.4950   80.4240 N.am    4  TRP4       -0.1976
     18  CA        11.2280   -0.4970   81.2970 C.3     4  TRP4        0.1640
     19  C         10.1980   -1.3230   80.5310 C.2     4  TRP4        0.2290
     20  O          9.6250   -0.8790   79.5390 O.2     4  TRP4       -0.2864
     21  CB        10.5900    0.1670   82.5200 C.3     4  TRP4        0.0576
     22  CG         9.4170    1.0230   82.2080 C.ar    4  TRP4        0.0006
     23  CD1        9.4320    2.3650   81.9440 C.ar    4  TRP4        0.0946
     24  CD2        8.0590    0.6050   82.1310 C.ar    4  TRP4        0.0152
     25  NE1        8.1590    2.8010   81.6970 N.ar    4  TRP4       -0.2442
     26  CE2        7.2930    1.7380   81.8030 C.ar    4  TRP4        0.0810
     27  CE3        7.4090   -0.6180   82.3210 C.ar    4  TRP4        0.0012
     28  CZ2        5.9010    1.6770   81.6570 C.ar    4  TRP4        0.0191
     29  CZ3        6.0250   -0.6920   82.1680 C.ar    4  TRP4        0.0001
     30  CH2        5.2920    0.4620   81.8370 C.ar    4  TRP4        0.0015
     31  N         14.6760   -8.9250   81.5260 N.3     9  HIS9       -0.1226
     32  CA        15.7520   -7.9310   81.5290 C.3     9  HIS9        0.1752
     33  C         15.3050   -6.5060   81.7590 C.2     9  HIS9        0.2596
     34  O         16.1460   -5.6280   81.8860 O.2     9  HIS9       -0.2718
     35  CB        16.5760   -8.0740   80.2390 C.3     9  HIS9        0.0759
     36  CG        17.1280   -9.4570   80.0780 C.ar    9  HIS9        0.0818
     37  ND1       18.1290   -9.9430   80.8930 N.ar    9  HIS9       -0.2268
     38  CD2       16.7800  -10.4830   79.2580 C.ar    9  HIS9        0.1154
     39  CE1       18.3910  -11.1990   80.5670 C.ar    9  HIS9        0.1986
     40  NE2       17.5860  -11.5500   79.5800 N.ar    9  HIS9       -0.2212
     41  N         14.0030   -6.2470   81.8310 N.am   10  ASN10      -0.1974
     42  CA        13.5360   -4.8800   82.0640 C.3    10  ASN10       0.1688
     43  C         12.2550   -4.8320   82.8870 C.2    10  ASN10       0.2292
     44  O         11.5820   -3.7940   82.9320 O.2    10  ASN10      -0.2864
     45  CB        13.3950   -4.1160   80.7530 C.3    10  ASN10       0.1181
     46  CG        12.3010   -4.6550   79.8600 C.2    10  ASN10       0.2629
     47  OD1       11.7060   -5.6900   80.1350 O.2    10  ASN10      -0.2716
     48  ND2       12.0430   -3.9390   78.7460 N.am   10  ASN10      -0.0877
     49  N         13.6620   -4.9460   87.9280 N.3    14  HIS14      -0.1226
     50  CA        14.6320   -3.9290   87.5130 C.3    14  HIS14       0.1752
     51  C         14.1780   -2.4950   87.7430 C.2    14  HIS14       0.2596
     52  O         15.0030   -1.5580   87.7320 O.2    14  HIS14      -0.2718
     53  CB        14.9460   -4.0680   86.0170 C.3    14  HIS14       0.0759
     54  CG        15.7230   -5.3000   85.6660 C.ar   14  HIS14       0.0818
     55  ND1       17.1070   -5.3220   85.6890 N.ar   14  HIS14      -0.2268
     56  CD2       15.3220   -6.5290   85.2620 C.ar   14  HIS14       0.1154
     57  CE1       17.5240   -6.5170   85.3130 C.ar   14  HIS14       0.1986
     58  NE2       16.4630   -7.2740   85.0670 N.ar   14  HIS14      -0.2212
     59  N         12.8570   -2.2700   87.8770 N.am   15  TRP15      -0.1976
     60  CA        12.2830   -0.9230   87.8220 C.3    15  TRP15       0.1640
     61  C         12.9110    0.0160   88.8520 C.2    15  TRP15       0.2290
     62  O         13.0720    1.2110   88.5630 O.2    15  TRP15      -0.2864
     63  CB        10.7630   -0.9600   87.9970 C.3    15  TRP15       0.0576
     64  CG        10.0370   -1.6500   86.8930 C.ar   15  TRP15       0.0006
     65  CD1       10.5420   -2.0440   85.6740 C.ar   15  TRP15       0.0946
     66  CD2        8.6370   -1.9720   86.8710 C.ar   15  TRP15       0.0152
     67  NE1        9.5420   -2.6000   84.9140 N.ar   15  TRP15      -0.2442
     68  CE2        8.3600   -2.5400   85.6110 C.ar   15  TRP15       0.0810
     69  CE3        7.5890   -1.8160   87.7870 C.ar   15  TRP15       0.0012
     70  CZ2        7.0870   -2.9940   85.2700 C.ar   15  TRP15       0.0191
     71  CZ3        6.3300   -2.2380   87.4320 C.ar   15  TRP15       0.0001
     72  CH2        6.0810   -2.8050   86.1890 C.ar   15  TRP15       0.0015
     73  N         15.7770    0.6420   89.8540 N.3    17  LYS17      -0.1231
     74  CA        17.0040    1.3240   89.4820 C.3    17  LYS17       0.1693
     75  C         16.7910    2.6760   88.8050 C.2    17  LYS17       0.2592
     76  O         17.6350    3.5500   88.9110 O.2    17  LYS17      -0.2718
     77  CB        17.8800    0.4260   88.6090 C.3    17  LYS17       0.0285
     78  CG        18.4510   -0.7790   89.3470 C.3    17  LYS17       0.0035
     79  CD        19.2520   -1.7480   88.4780 C.3    17  LYS17       0.0206
     80  CE        18.3180   -2.5880   87.6540 C.3    17  LYS17       0.1093
     81  NZ        19.0210   -3.3690   86.5940 N.3    17  LYS17      -0.1314
     82  N         15.6700    2.7930   88.0930 N.am   18  ASP18      -0.1960
     83  CA        15.2870    4.0570   87.4650 C.3    18  ASP18       0.1840
     84  C         14.1220    4.7610   88.1340 C.2    18  ASP18       0.2622
     85  O         13.8900    5.9420   87.8710 O.2    18  ASP18      -0.2715
     86  CB        15.0850    3.8980   85.9520 C.3    18  ASP18       0.1450
     87  CG        16.3840    3.6240   85.2480 C.2    18  ASP18       0.3671
     88  OD1       17.0600    4.6250   84.9390 O.co2  18  ASP18      -0.2456
     89  OD2       16.8060    2.4650   85.1310 O.co2  18  ASP18      -0.2456
     90  N         13.4100    4.0630   89.0040 N.am   19  PHE19      -0.1974
     91  CA        12.2110    4.5870   89.6720 C.3    19  PHE19       0.1639
     92  C         12.3080    4.0940   91.1130 C.2    19  PHE19       0.2290
     93  O         11.6490    3.1010   91.4780 O.2    19  PHE19      -0.2864
     94  CB        10.9310    4.1010   88.9700 C.3    19  PHE19       0.0560
     95  CG        10.9060    4.4220   87.5080 C.ar   19  PHE19      -0.0200
     96  CD1       10.4730    5.6510   87.0610 C.ar   19  PHE19      -0.0042
     97  CD2       11.3840    3.5160   86.5660 C.ar   19  PHE19      -0.0042
     98  CE1       10.5050    5.9680   85.7060 C.ar   19  PHE19      -0.0003
     99  CE2       11.4020    3.8240   85.2160 C.ar   19  PHE19      -0.0003
    100  CZ        10.9820    5.0680   84.7930 C.ar   19  PHE19      -0.0000
@<TRIPOS>BOND
     1    16    15   ar
     2    16    14   ar
     3    15    13   ar
     4     6     5    1
     5    14    12   ar
     6     5     2    1
     7    13    12   ar
     8    12    11    1
     9     2     1    1
    10     2     3    1
    11    11     8    1
    12     3     4    2
    13     8     7    1
    14     8     9    1
    15    48    46   am
    16    38    40   ar
    17    38    36   ar
    18    10     9    2
    19     9    17   am
    20    20    19    2
    21    40    39   ar
    22    46    47    2
    23    46    45    1
    24    36    35    1
    25    36    37   ar
    26    35    32    1
    27    17    18    1
    28    19    18    1
    29    39    37   ar
    30    45    42    1
    31    18    21    1
    32    31    32    1
    33    32    33    1
    34    28    26   ar
    35    28    30   ar
    36    25    26   ar
    37    25    23   ar
    38    33    41   am
    39    33    34    2
    40    26    24   ar
    41    41    42    1
    42    30    29   ar
    43    23    22   ar
    44    42    43    1
    45    24    22   ar
    46    24    27   ar
    47    29    27   ar
    48    22    21    1
    49    43    44    2
    50   100    99   ar
    51   100    98   ar
    52    67    68   ar
    53    67    65   ar
    54    88    87   ar
    55    58    56   ar
    56    58    57   ar
    57    89    87   ar
    58    99    97   ar
    59    87    86    1
    60    56    54   ar
    61    70    68   ar
    62    70    72   ar
    63    57    55   ar
    64    68    66   ar
    65    54    55   ar
    66    54    53    1
    67    65    64   ar
    68    98    96   ar
    69    86    83    1
    70    53    50    1
    71    72    71   ar
    72    97    95   ar
    73    81    80    1
    74    66    64   ar
    75    66    69   ar
    76    64    63    1
    77    96    95   ar
    78    71    69   ar
    79    83    82    1
    80    83    84    1
    81    95    94    1
    82    50    51    1
    83    50    49    1
    84    80    79    1
    85    52    51    2
    86    51    59   am
    87    60    59    1
    88    60    63    1
    89    60    61    1
    90    85    84    2
    91    82    75   am
    92    84    90   am
    93    79    78    1
    94    62    61    2
    95    77    78    1
    96    77    74    1
    97    75    76    2
    98    75    74    1
    99    94    91    1
   100    90    91    1
   101    74    73    1
   102    91    92    1
   103    92    93    2
