@<TRIPOS>MOLECULE
tmp/6d1mA00.pdb
 154 149 0 0 0
SMALL
GASTEIGER

@<TRIPOS>ATOM
      1  N         12.6780    6.0140   78.5260 N.3     2  HIS2       -0.1241
      2  CA        12.0480    4.8830   79.2020 C.3     2  HIS2        0.1621
      3  C         12.3040    3.5950   78.4190 C.2     2  HIS2        0.2264
      4  O         12.0090    3.5230   77.2230 O.2     2  HIS2       -0.2867
      5  CB        10.5450    5.1110   79.4070 C.3     2  HIS2        0.0745
      6  CG        10.2260    6.0980   80.4910 C.ar    2  HIS2        0.0817
      7  ND1        8.9460    6.3030   80.9570 N.ar    2  HIS2       -0.2268
      8  CD2       11.0260    6.9040   81.2280 C.ar    2  HIS2        0.1154
      9  CE1        8.9650    7.2170   81.9120 C.ar    2  HIS2        0.1986
     10  NE2       10.2160    7.6010   82.0940 N.ar    2  HIS2       -0.2212
     11  N         -4.9690    1.3570   75.8960 N.3    66  ASN66      -0.1240
     12  CA        -5.8440    2.2940   76.5940 C.3    66  ASN66       0.1653
     13  C         -7.0430    2.6780   75.7460 C.2    66  ASN66       0.2266
     14  O         -6.8780    3.0410   74.5810 O.2    66  ASN66      -0.2867
     15  CB        -5.1250    3.5960   76.9200 C.3    66  ASN66       0.1155
     16  CG        -4.0250    3.4250   77.9420 C.2    66  ASN66       0.2627
     17  OD1       -3.9620    2.4170   78.6330 O.2    66  ASN66      -0.2716
     18  ND2       -3.1660    4.4250   78.0550 N.am   66  ASN66      -0.0877
     19  N         -9.2590    7.1230   81.2080 N.3    91  GLN91      -0.1245
     20  CA        -8.9610    5.9910   80.3560 C.3    91  GLN91       0.1566
     21  C         -9.2160    4.7220   81.1440 C.2    91  GLN91       0.2260
     22  O         -9.2700    4.7730   82.3930 O.2    91  GLN91      -0.2867
     23  CB        -7.4960    6.0300   79.8740 C.3    91  GLN91       0.0367
     24  CG        -6.4670    6.1510   81.0090 C.3    91  GLN91       0.0905
     25  CD        -5.6270    4.9120   81.1930 C.2    91  GLN91       0.2608
     26  OE1       -6.1340    3.7780   81.2240 O.2    91  GLN91      -0.2717
     27  NE2       -4.3320    5.1050   81.3500 N.am   91  GLN91      -0.0878
     28  N         -7.7260    0.4400   80.9370 N.3    93  HIS93      -0.1241
     29  CA        -6.8180   -0.5180   80.3470 C.3    93  HIS93       0.1621
     30  C         -6.8870   -1.7740   81.1970 C.2    93  HIS93       0.2264
     31  O         -7.5030   -1.7780   82.2570 O.2    93  HIS93      -0.2867
     32  CB        -5.3880    0.0060   80.2900 C.3    93  HIS93       0.0745
     33  CG        -4.8390    0.2900   81.6320 C.ar   93  HIS93       0.0817
     34  ND1       -4.9850    1.5150   82.2540 N.ar   93  HIS93      -0.2268
     35  CD2       -4.1980   -0.5060   82.5190 C.ar   93  HIS93       0.1154
     36  CE1       -4.4620    1.4510   83.4690 C.ar   93  HIS93       0.1986
     37  NE2       -3.9640    0.2400   83.6560 N.ar   93  HIS93      -0.2212
     38  N         -4.5540   -5.5140   82.5230 N.3    95  HIS95      -0.1241
     39  CA        -3.3380   -6.3130   82.6830 C.3    95  HIS95       0.1621
     40  C         -3.7890   -7.7590   82.5860 C.2    95  HIS95       0.2264
     41  O         -4.8540   -8.1240   83.0910 O.2    95  HIS95      -0.2867
     42  CB        -2.6770   -6.0600   84.0240 C.3    95  HIS95       0.0745
     43  CG        -2.3750   -4.6060   84.2770 C.ar   95  HIS95       0.0817
     44  ND1       -1.1410   -4.0330   84.0590 N.ar   95  HIS95      -0.2268
     45  CD2       -3.1960   -3.5790   84.6580 C.ar   95  HIS95       0.1154
     46  CE1       -1.2090   -2.7310   84.3430 C.ar   95  HIS95       0.1986
     47  NE2       -2.4590   -2.4080   84.6580 N.ar   95  HIS95      -0.2212
     48  N         -8.5050   -1.7210   84.9020 N.3   118  HIS118     -0.1241
     49  CA        -8.2550   -0.4740   85.6320 C.3   118  HIS118      0.1621
     50  C         -8.9330    0.7030   84.9550 C.2   118  HIS118      0.2264
     51  O         -8.5730    1.0460   83.8300 O.2   118  HIS118     -0.2867
     52  CB        -6.7640   -0.2110   85.7020 C.3   118  HIS118      0.0745
     53  CG        -6.0550   -1.1690   86.6030 C.ar  118  HIS118      0.0817
     54  ND1       -4.6950   -1.3810   86.5800 N.ar  118  HIS118     -0.2268
     55  CD2       -6.5510   -1.9920   87.5550 C.ar  118  HIS118      0.1154
     56  CE1       -4.3760   -2.2630   87.5090 C.ar  118  HIS118      0.1986
     57  NE2       -5.4950   -2.6800   88.0930 N.ar  118  HIS118     -0.2212
     58  N         -9.3200    4.5030   85.2290 N.3   120  VAL120     -0.1245
     59  CA        -8.4450    5.5040   85.8430 C.3   120  VAL120      0.1561
     60  C         -9.1510    6.8510   85.8630 C.2   120  VAL120      0.2260
     61  O         -9.6600    7.3020   84.8230 O.2   120  VAL120     -0.2867
     62  CB        -7.1460    5.6230   85.0420 C.3   120  VAL120      0.0252
     63  CG1       -6.1960    6.6340   85.6730 C.3   120  VAL120      0.0019
     64  CG2       -6.4750    4.2640   84.8770 C.3   120  VAL120      0.0019
     65  N         -4.6860   16.0760   84.7070 N.3   129  PHE129     -0.1241
     66  CA        -4.1260   14.7810   85.0730 C.3   129  PHE129      0.1605
     67  C         -2.6650   14.8710   85.5030 C.2   129  PHE129      0.2264
     68  O         -2.2700   14.2570   86.4930 O.2   129  PHE129     -0.2867
     69  CB        -4.3020   13.8270   83.8960 C.3   129  PHE129      0.0534
     70  CG        -3.7580   12.4460   84.1290 C.ar  129  PHE129     -0.0203
     71  CD1       -4.5180   11.4930   84.7970 C.ar  129  PHE129     -0.0042
     72  CD2       -2.5180   12.0660   83.6410 C.ar  129  PHE129     -0.0042
     73  CE1       -4.0330   10.2060   85.0100 C.ar  129  PHE129     -0.0003
     74  CE2       -2.0430   10.7730   83.8530 C.ar  129  PHE129     -0.0003
     75  CZ        -2.8170    9.8420   84.5110 C.ar  129  PHE129     -0.0000
     76  N         -1.3540   13.6050   89.3110 N.3   133  VAL133     -0.1245
     77  CA        -0.4570   12.4960   89.6300 C.3   133  VAL133      0.1561
     78  C          0.6450   12.8990   90.6050 C.2   133  VAL133      0.2260
     79  O          1.3230   12.0010   91.1160 O.2   133  VAL133     -0.2867
     80  CB         0.1580   11.7820   88.3900 C.3   133  VAL133      0.0252
     81  CG1       -0.9500   11.1830   87.5300 C.3   133  VAL133      0.0019
     82  CG2        1.0820   12.7170   87.6100 C.3   133  VAL133      0.0019
     83  N         -8.3350    4.6940   91.0740 N.3   141  VAL141     -0.1245
     84  CA        -8.4110    3.6070   90.1000 C.3   141  VAL141      0.1561
     85  C         -9.3890    2.5440   90.5880 C.2   141  VAL141      0.2260
     86  O         -9.2580    2.0590   91.7050 O.2   141  VAL141     -0.2867
     87  CB        -7.0350    3.0370   89.7120 C.3   141  VAL141      0.0252
     88  CG1       -7.2260    1.9350   88.6450 C.3   141  VAL141      0.0019
     89  CG2       -6.1060    4.1490   89.2490 C.3   141  VAL141      0.0019
     90  N          0.5820    4.0280   91.2920 N.3   196  LEU196     -0.1231
     91  CA         0.5580    3.4820   89.9460 C.3   196  LEU196      0.1693
     92  C          1.2970    2.1460   89.9830 C.2   196  LEU196      0.2593
     93  O          2.3070    1.9830   90.7000 O.2   196  LEU196     -0.2718
     94  CB         1.2870    4.3860   88.9690 C.3   196  LEU196      0.0284
     95  CG         0.8000    5.8150   88.8630 C.3   196  LEU196      0.0019
     96  CD1        1.7110    6.6060   87.9370 C.3   196  LEU196      0.0001
     97  CD2       -0.6450    5.8750   88.3840 C.3   196  LEU196      0.0001
     98  N          0.8630    1.1850   89.1710 N.am  197  THR197     -0.1939
     99  CA         1.5040   -0.1510   89.1250 C.3   197  THR197      0.2028
    100  C          2.5100   -0.2710   87.9800 C.2   197  THR197      0.2643
    101  O          3.1300   -1.3350   87.8270 O.2   197  THR197     -0.2714
    102  CB         0.4880   -1.2650   88.9700 C.3   197  THR197      0.1808
    103  OG1       -0.0990   -1.1640   87.6680 O.3   197  THR197     -0.2208
    104  CG2       -0.5380   -1.2280   90.0780 C.3   197  THR197      0.0379
    105  N          2.7100    0.8190   87.2320 N.am  198  THR198     -0.1937
    106  CA         3.7900    0.9170   86.2570 C.3   198  THR198      0.2013
    107  C          4.6490    2.1160   86.5740 C.2   198  THR198      0.2484
    108  O          4.1670    3.0840   87.1710 O.2   198  THR198     -0.2729
    109  CB         3.2970    1.0680   84.8070 C.3   198  THR198      0.1807
    110  OG1        2.7660    2.3800   84.5900 O.3   198  THR198     -0.2208
    111  CG2        2.2550    0.0560   84.4590 C.3   198  THR198      0.0379
    112  N          5.9170    2.0990   86.1200 N.am  199  PRO199     -0.2715
    113  CA         6.6790    3.3380   86.1520 C.3   199  PRO199      0.1521
    114  C          5.8280    4.4890   85.6130 C.2   199  PRO199      0.2440
    115  O          5.1420    4.2940   84.5970 O.2   199  PRO199     -0.2731
    116  CB         7.8900    3.0210   85.2930 C.3   199  PRO199      0.0310
    117  CG         8.0910    1.5430   85.5230 C.3   199  PRO199      0.0237
    118  CD         6.7090    0.9720   85.5690 C.3   199  PRO199      0.0939
    119  N          5.8680    5.6730   86.2300 N.am  200  PRO200     -0.2727
    120  CA         6.7880    6.0850   87.2900 C.3   200  PRO200      0.1402
    121  C          6.4080    5.6890   88.7320 C.2   200  PRO200      0.2269
    122  O          7.0770    6.1480   89.6690 O.2   200  PRO200     -0.2865
    123  CB         6.7950    7.6190   87.1210 C.3   200  PRO200      0.0296
    124  CG         5.4140    7.9380   86.6040 C.3   200  PRO200      0.0237
    125  CD         5.0870    6.7980   85.6900 C.3   200  PRO200      0.0939
    126  N          4.1690    6.3800   90.8830 N.3   202  LEU202     -0.1245
    127  CA         3.8560    7.4990   91.7570 C.3   202  LEU202      0.1561
    128  C          2.8100    7.1070   92.7890 C.2   202  LEU202      0.2260
    129  O          1.8390    6.3860   92.4770 O.2   202  LEU202     -0.2867
    130  CB         3.3770    8.7170   90.9530 C.3   202  LEU202      0.0270
    131  CG         4.4340    9.3170   89.9930 C.3   202  LEU202      0.0019
    132  CD1        3.7960   10.3590   89.0750 C.3   202  LEU202      0.0001
    133  CD2        5.5990    9.9220   90.7590 C.3   202  LEU202      0.0001
    134  N         -2.4860    7.1600   94.2160 N.3   205  VAL205     -0.1245
    135  CA        -3.7240    6.4620   93.8910 C.3   205  VAL205      0.1561
    136  C         -4.4960    6.0250   95.1270 C.2   205  VAL205      0.2260
    137  O         -3.9270    5.3470   96.0070 O.2   205  VAL205     -0.2867
    138  CB        -3.4410    5.2190   93.0150 C.3   205  VAL205      0.0252
    139  CG1       -4.7330    4.5030   92.6210 C.3   205  VAL205      0.0019
    140  CG2       -2.6510    5.5950   91.7700 C.3   205  VAL205      0.0019
    141  N         -6.9410    3.2460   95.6270 N.3   207  TRP207     -0.1241
    142  CA        -7.4060    2.0190   94.9860 C.3   207  TRP207      0.1605
    143  C         -8.7740    1.5910   95.5000 C.2   207  TRP207      0.2264
    144  O         -9.0020    1.5410   96.7170 O.2   207  TRP207     -0.2867
    145  CB        -6.3960    0.8590   95.1760 C.3   207  TRP207      0.0550
    146  CG        -5.2640    0.9790   94.1980 C.ar  207  TRP207      0.0003
    147  CD1       -4.0450    1.5750   94.3900 C.ar  207  TRP207      0.0946
    148  CD2       -5.3080    0.5970   92.8250 C.ar  207  TRP207      0.0152
    149  NE1       -3.3320    1.5620   93.2170 N.ar  207  TRP207     -0.2442
    150  CE2       -4.0770    0.9590   92.2400 C.ar  207  TRP207      0.0810
    151  CE3       -6.2650   -0.0680   92.0380 C.ar  207  TRP207      0.0012
    152  CZ2       -3.7960    0.7210   90.9070 C.ar  207  TRP207      0.0191
    153  CZ3       -5.9880   -0.3170   90.7300 C.ar  207  TRP207      0.0001
    154  CH2       -4.7580    0.0570   90.1740 C.ar  207  TRP207      0.0015
@<TRIPOS>BOND
     1    14    13    2
     2    13    12    1
     3    11    12    1
     4    12    15    1
     5    15    16    1
     6     4     3    2
     7    16    18   am
     8    16    17    2
     9     3     2    1
    10     1     2    1
    11     2     5    1
    12     5     6    1
    13    23    20    1
    14    23    24    1
    15    32    29    1
    16    32    33    1
    17    29    28    1
    18    29    30    1
    19    20    21    1
    20    20    19    1
    21     6     7   ar
    22     6     8   ar
    23     7     9   ar
    24    24    25    1
    25    21    22    2
    26    25    26    2
    27    25    27   am
    28    30    31    2
    29     8    10   ar
    30    33    34   ar
    31    33    35   ar
    32     9    10   ar
    33    34    36   ar
    34    35    37   ar
    35    38    39    1
    36    40    39    1
    37    40    41    2
    38    39    42    1
    39    36    37   ar
    40    72    74   ar
    41    72    70   ar
    42    51    50    2
    43    74    75   ar
    44    69    70    1
    45    69    66    1
    46    42    43    1
    47    44    43   ar
    48    44    46   ar
    49    70    71   ar
    50    43    45   ar
    51    46    47   ar
    52   111   109    1
    53    75    73   ar
    54   110   109    1
    55   115   114    2
    56    47    45   ar
    57    65    66    1
    58    71    73   ar
    59   109   106    1
    60    61    60    2
    61    64    62    1
    62    48    49    1
    63    50    49    1
    64    62    63    1
    65    62    59    1
    66    66    67    1
    67    58    59    1
    68   116   117    1
    69   116   113    1
    70    67    68    2
    71   117   118    1
    72   118   112    1
    73   114   113    1
    74   114   119   am
    75    49    52    1
    76   125   119    1
    77   125   124    1
    78    52    53    1
    79    59    60    1
    80   112   113    1
    81   112   107   am
    82   119   120    1
    83   106   107    1
    84   106   105    1
    85   107   108    2
    86    54    53   ar
    87    54    56   ar
    88    53    55   ar
    89   124   123    1
    90   123   120    1
    91   105   100   am
    92   120   121    1
    93    56    57   ar
    94    81    80    1
    95    55    57   ar
    96    82    80    1
    97   103   102    1
    98   101   100    2
    99    96    95    1
   100   100    99    1
   101    97    95    1
   102    80    77    1
   103    88    87    1
   104   121   122    2
   105    95    94    1
   106    94    91    1
   107   102    99    1
   108   102   104    1
   109   132   131    1
   110    99    98    1
   111    98    92   am
   112    89    87    1
   113    76    77    1
   114    77    78    1
   115    87    84    1
   116    91    92    1
   117    91    90    1
   118    92    93    2
   119   131   133    1
   120   131   130    1
   121    84    85    1
   122    84    83    1
   123   154   153   ar
   124   154   152   ar
   125    85    86    2
   126    78    79    2
   127   153   151   ar
   128   126   127    1
   129   152   150   ar
   130   130   127    1
   131   127   128    1
   132   140   138    1
   133   151   148   ar
   134   150   148   ar
   135   150   149   ar
   136   129   128    2
   137   139   138    1
   138   148   146   ar
   139   138   135    1
   140   149   147   ar
   141   135   134    1
   142   135   136    1
   143   146   147   ar
   144   146   145    1
   145   142   145    1
   146   142   143    1
   147   142   141    1
   148   136   137    2
   149   143   144    2
