@<TRIPOS>MOLECULE
tmp/6d1vB00.pdb
 227 214 0 0 0
SMALL
GASTEIGER

@<TRIPOS>ATOM
      1  N        -65.7990  -63.3990    5.2690 N.3     9  ARG9       -0.1245
      2  CA       -66.8990  -62.7990    6.0140 C.3     9  ARG9        0.1563
      3  C        -67.5700  -61.7180    5.1690 C.2     9  ARG9        0.2260
      4  O        -66.8820  -60.8220    4.6580 O.2     9  ARG9       -0.2867
      5  CB       -66.3890  -62.2070    7.3290 C.3     9  ARG9        0.0307
      6  CG       -67.4940  -61.7930    8.2930 C.3     9  ARG9        0.0489
      7  CD       -66.9010  -61.2700    9.5900 C.3     9  ARG9        0.2205
      8  NE       -66.3070  -59.9540    9.3870 N.pl3   9  ARG9       -0.0865
      9  CZ       -66.2750  -58.9880   10.2990 C.cat   9  ARG9        0.5346
     10  NH1      -66.8110  -59.1810   11.5050 N.pl3   9  ARG9        0.1354
     11  NH2      -65.7110  -57.8210    9.9950 N.pl3   9  ARG9        0.1354
     12  N        -69.3200  -58.2690    4.4140 N.3    11  ASN11      -0.1240
     13  CA       -68.7760  -57.0560    5.0170 C.3    11  ASN11       0.1653
     14  C        -69.2460  -55.8650    4.1950 C.2    11  ASN11       0.2266
     15  O        -69.5010  -55.9990    2.9960 O.2    11  ASN11      -0.2867
     16  CB       -67.2400  -57.1760    5.0870 C.3    11  ASN11       0.1155
     17  CG       -66.5560  -55.9500    5.6660 C.2    11  ASN11       0.2627
     18  OD1      -66.5430  -54.8820    5.0450 O.2    11  ASN11      -0.2716
     19  ND2      -65.9380  -56.1130    6.8420 N.am   11  ASN11      -0.0877
     20  N        -57.1060  -45.7200   12.8580 N.3    28  ARG28      -0.1245
     21  CA       -57.3630  -46.9060   13.6670 C.3    28  ARG28       0.1563
     22  C        -56.9770  -46.6530   15.1240 C.2    28  ARG28       0.2260
     23  O        -55.8970  -46.1180   15.4170 O.2    28  ARG28      -0.2867
     24  CB       -56.5990  -48.0940   13.0890 C.3    28  ARG28       0.0307
     25  CG       -57.1350  -48.5350   11.7010 C.3    28  ARG28       0.0489
     26  CD       -56.2080  -49.5270   11.0140 C.3    28  ARG28       0.2205
     27  NE       -55.9270  -50.6790   11.8670 N.pl3  28  ARG28      -0.0865
     28  CZ       -56.7300  -51.7260   11.9920 C.cat  28  ARG28       0.5346
     29  NH1      -57.8630  -51.7840   11.3060 N.pl3  28  ARG28       0.1354
     30  NH2      -56.4060  -52.7180   12.8050 N.pl3  28  ARG28       0.1354
     31  N        -53.4790  -46.5540   16.9220 N.3    31  GLN31      -0.1245
     32  CA       -52.5190  -46.8780   15.8770 C.3    31  GLN31       0.1566
     33  C        -52.2580  -45.6170   15.0710 C.2    31  GLN31       0.2260
     34  O        -52.9020  -44.5810   15.2650 O.2    31  GLN31      -0.2867
     35  CB       -53.0180  -48.0270   14.9830 C.3    31  GLN31       0.0367
     36  CG       -53.1710  -49.3680   15.7030 C.3    31  GLN31       0.0905
     37  CD       -53.7440  -50.4820   14.8150 C.2    31  GLN31       0.2608
     38  OE1      -53.2650  -50.7230   13.7020 O.2    31  GLN31      -0.2717
     39  NE2      -54.7700  -51.1670   15.3130 N.am   31  GLN31      -0.0878
     40  N        -52.1890  -45.9650   11.6430 N.3    33  SER33      -0.1202
     41  CA       -52.6740  -46.3540   10.3290 C.3    33  SER33       0.2020
     42  C        -54.1360  -45.9490   10.1580 C.2    33  SER33       0.2619
     43  O        -54.8870  -45.8190   11.1320 O.2    33  SER33      -0.2717
     44  CB       -52.5250  -47.8540   10.1210 C.3    33  SER33       0.2103
     45  OG       -53.0150  -48.5520   11.2370 O.3    33  SER33      -0.2182
     46  N        -54.5350  -45.7600    8.9010 N.am   34  TRP34      -0.1961
     47  CA       -55.8280  -45.1730    8.5790 C.3    34  TRP34       0.1771
     48  C        -56.5500  -46.0460    7.5610 C.2    34  TRP34       0.2619
     49  O        -55.9310  -46.8420    6.8450 O.2    34  TRP34      -0.2715
     50  CB       -55.6820  -43.7570    7.9950 C.3    34  TRP34       0.0590
     51  CG       -54.9890  -42.7880    8.9030 C.ar   34  TRP34       0.0006
     52  CD1      -53.7090  -42.8770    9.4040 C.ar   34  TRP34       0.0946
     53  CD2      -55.5310  -41.5790    9.4050 C.ar   34  TRP34       0.0152
     54  NE1      -53.4380  -41.7810   10.1990 N.ar   34  TRP34      -0.2442
     55  CE2      -54.5390  -40.9710   10.2180 C.ar   34  TRP34       0.0810
     56  CE3      -56.7670  -40.9510    9.2730 C.ar   34  TRP34       0.0012
     57  CZ2      -54.7530  -39.7650   10.8780 C.ar   34  TRP34       0.0191
     58  CZ3      -56.9750  -39.7350    9.9220 C.ar   34  TRP34       0.0001
     59  CH2      -55.9750  -39.1570   10.7190 C.ar   34  TRP34       0.0015
     60  N        -57.8670  -45.8570    7.4680 N.am   35  GLN35      -0.1977
     61  CA       -58.6500  -46.6500    6.5220 C.3    35  GLN35       0.1601
     62  C        -60.0360  -46.0290    6.4260 C.2    35  GLN35       0.2287
     63  O        -60.3930  -45.1350    7.1980 O.2    35  GLN35      -0.2864
     64  CB       -58.7620  -48.1000    6.9820 C.3    35  GLN35       0.0394
     65  CG       -59.6310  -48.1650    8.2740 C.3    35  GLN35       0.0908
     66  CD       -59.8520  -49.5830    8.7840 C.2    35  GLN35       0.2608
     67  OE1      -59.0750  -50.0950    9.5720 O.2    35  GLN35      -0.2717
     68  NE2      -60.9390  -50.1950    8.3630 N.am   35  GLN35      -0.0878
     69  N        -65.3980  -49.9020    7.7960 N.3    38  GLN38      -0.1231
     70  CA       -66.0240  -51.1230    7.2910 C.3    38  GLN38       0.1698
     71  C        -66.4200  -51.9960    8.4700 C.2    38  GLN38       0.2593
     72  O        -65.8760  -51.8700    9.5710 O.2    38  GLN38      -0.2718
     73  CB       -65.0860  -51.9240    6.3750 C.3    38  GLN38       0.0381
     74  CG       -63.8050  -52.3220    7.0490 C.3    38  GLN38       0.0905
     75  CD       -62.9260  -53.1510    6.1480 C.2    38  GLN38       0.2608
     76  OE1      -62.4940  -52.6880    5.0890 O.2    38  GLN38      -0.2717
     77  NE2      -62.6680  -54.3890    6.5530 N.am   38  GLN38      -0.0878
     78  N        -67.3250  -52.9460    8.2120 N.am   39  GLY39      -0.1942
     79  CA       -67.8280  -53.7760    9.2950 C.3    39  GLY39       0.2014
     80  C        -68.5370  -55.0150    8.7950 C.2    39  GLY39       0.2639
     81  O        -69.0340  -55.0550    7.6650 O.2    39  GLY39      -0.2714
     82  N        -68.5710  -56.0340    9.6580 N.am   40  GLY40      -0.1954
     83  CA       -69.1820  -57.3070    9.2910 C.3    40  GLY40       0.1869
     84  C        -70.7010  -57.2180    9.2560 C.2    40  GLY40       0.2309
     85  O        -71.3270  -56.5520   10.0850 O.2    40  GLY40      -0.2863
     86  N        -73.0240  -50.0060   11.2800 N.3    54  GLU54      -0.1245
     87  CA       -71.5920  -49.7770   11.4570 C.3    54  GLU54       0.1567
     88  C        -71.2510  -48.3020   11.2890 C.2    54  GLU54       0.2260
     89  O        -70.3260  -47.8030   11.9320 O.2    54  GLU54      -0.2867
     90  CB       -70.7890  -50.6390   10.4800 C.3    54  GLU54       0.0388
     91  CG       -70.8440  -52.1510   10.7590 C.3    54  GLU54       0.1160
     92  CD       -69.8530  -52.6380   11.8090 C.2    54  GLU54       0.3649
     93  OE1      -68.9060  -51.9000   12.1870 O.co2  54  GLU54      -0.2457
     94  OE2      -70.0250  -53.7910   12.2580 O.co2  54  GLU54      -0.2457
     95  N        -71.9860  -46.8120   14.5930 N.3    57  GLU57      -0.1231
     96  CA       -71.0550  -47.3890   15.5640 C.3    57  GLU57       0.1699
     97  C        -69.6410  -46.8160   15.4300 C.2    57  GLU57       0.2592
     98  O        -68.9730  -46.5410   16.4340 O.2    57  GLU57      -0.2718
     99  CB       -71.0300  -48.9020   15.3770 C.3    57  GLU57       0.0402
    100  CG       -69.9090  -49.6170   16.0950 C.3    57  GLU57       0.1161
    101  CD       -69.4430  -50.8540   15.3330 C.2    57  GLU57       0.3649
    102  OE1      -68.3240  -50.8110   14.7450 O.co2  57  GLU57      -0.2457
    103  OE2      -70.2180  -51.8560   15.3190 O.co2  57  GLU57      -0.2457
    104  N        -69.1650  -46.6330   14.2010 N.am   58  GLU58      -0.1979
    105  CA       -67.7740  -46.2610   13.9360 C.3    58  GLU58       0.1602
    106  C        -67.5720  -44.7700   13.7400 C.2    58  GLU58       0.2287
    107  O        -66.5120  -44.2470   14.1120 O.2    58  GLU58      -0.2864
    108  CB       -67.2620  -47.0060   12.6890 C.3    58  GLU58       0.0415
    109  CG       -67.3140  -48.5330   12.8790 C.3    58  GLU58       0.1163
    110  CD       -66.4310  -49.3020   11.9190 C.2    58  GLU58       0.3649
    111  OE1      -65.8320  -48.6870   11.0040 O.co2  58  GLU58      -0.2457
    112  OE2      -66.3290  -50.5260   12.0850 O.co2  58  GLU58      -0.2457
    113  N        -61.1860  -59.2150   -0.4910 N.3    78  TYR78      -0.1241
    114  CA       -59.7620  -59.1730   -0.2310 C.3    78  TYR78       0.1605
    115  C        -59.3890  -60.3080    0.7050 C.2    78  TYR78       0.2264
    116  O        -60.1640  -60.7000    1.5890 O.2    78  TYR78      -0.2867
    117  CB       -59.3070  -57.8200    0.3430 C.3    78  TYR78       0.0534
    118  CG       -59.7200  -57.4720    1.7620 C.ar   78  TYR78      -0.0201
    119  CD1      -58.9850  -57.9250    2.8500 C.ar   78  TYR78      -0.0009
    120  CD2      -60.7720  -56.5950    2.0060 C.ar   78  TYR78      -0.0009
    121  CE1      -59.3210  -57.5780    4.1400 C.ar   78  TYR78       0.0417
    122  CE2      -61.1080  -56.2300    3.2950 C.ar   78  TYR78       0.0417
    123  CZ       -60.3860  -56.7240    4.3620 C.ar   78  TYR78       0.1957
    124  OH       -60.7060  -56.3710    5.6580 O.3    78  TYR78      -0.2866
    125  N        -56.7880  -61.7730    3.5750 N.3    80  LEU80      -0.1245
    126  CA       -55.7970  -61.4110    4.5640 C.3    80  LEU80       0.1561
    127  C        -54.4480  -62.0000    4.1630 C.2    80  LEU80       0.2260
    128  O        -54.3870  -63.0720    3.5530 O.2    80  LEU80      -0.2867
    129  CB       -56.1810  -61.9300    5.9440 C.3    80  LEU80       0.0270
    130  CG       -57.2620  -61.2190    6.7460 C.3    80  LEU80       0.0019
    131  CD1      -57.3250  -61.8340    8.1310 C.3    80  LEU80       0.0001
    132  CD2      -56.9780  -59.7220    6.8320 C.3    80  LEU80       0.0001
    133  N        -51.7400  -62.9490    9.1170 N.3    84  LEU84      -0.1245
    134  CA       -52.8280  -62.3680    9.8890 C.3    84  LEU84       0.1561
    135  C        -53.9970  -63.3300   10.0890 C.2    84  LEU84       0.2260
    136  O        -54.9010  -63.0290   10.8780 O.2    84  LEU84      -0.2867
    137  CB       -53.3220  -61.0780    9.2070 C.3    84  LEU84       0.0270
    138  CG       -52.3460  -59.8890    9.2410 C.3    84  LEU84       0.0019
    139  CD1      -53.0200  -58.5970    8.7870 C.3    84  LEU84       0.0001
    140  CD2      -51.7070  -59.7080   10.6180 C.3    84  LEU84       0.0001
    141  N        -56.0950  -66.1450   11.6320 N.3    86  ARG86      -0.1245
    142  CA       -56.1520  -66.8510   12.9090 C.3    86  ARG86       0.1563
    143  C        -56.6590  -68.2630   12.6270 C.2    86  ARG86       0.2260
    144  O        -57.8650  -68.4960   12.5380 O.2    86  ARG86      -0.2867
    145  CB       -57.0460  -66.0990   13.8900 C.3    86  ARG86       0.0307
    146  CG       -56.9490  -66.5840   15.3150 C.3    86  ARG86       0.0489
    147  CD       -55.9340  -65.8080   16.1440 C.3    86  ARG86       0.2205
    148  NE       -55.5270  -66.5680   17.3260 N.pl3  86  ARG86      -0.0865
    149  CZ       -56.2930  -66.7610   18.4000 C.cat  86  ARG86       0.5346
    150  NH1      -57.5170  -66.2440   18.4560 N.pl3  86  ARG86       0.1354
    151  NH2      -55.8330  -67.4760   19.4210 N.pl3  86  ARG86       0.1354
    152  N        -59.3230  -70.4150   15.1170 N.3    89  THR89      -0.1218
    153  CA       -60.7270  -70.0480   15.2850 C.3    89  THR89       0.1862
    154  C        -61.5380  -70.6350   14.1350 C.2    89  THR89       0.2287
    155  O        -61.4410  -70.1700   12.9960 O.2    89  THR89      -0.2866
    156  CB       -60.8990  -68.5300   15.3440 C.3    89  THR89       0.1770
    157  OG1      -60.6470  -67.9620   14.0510 O.3    89  THR89      -0.2211
    158  CG2      -59.9600  -67.9110   16.3780 C.3    89  THR89       0.0375
    159  N        -61.5280  -67.3750    9.1260 N.3    93  CYS93      -0.1235
    160  CA       -61.7680  -66.2450    8.2380 C.3    93  CYS93       0.1677
    161  C        -60.4610  -65.8610    7.5560 C.2    93  CYS93       0.2270
    162  O        -59.4870  -65.5030    8.2270 O.2    93  CYS93      -0.2867
    163  CB       -62.3390  -65.0510    9.0000 C.3    93  CYS93       0.0956
    164  SG       -62.7590  -63.7050    7.8900 S.3    93  CYS93      -0.0801
    165  N        -62.3420  -60.7370    3.6240 N.3    96  GLN96      -0.1245
    166  CA       -63.6500  -60.1050    3.6610 C.3    96  GLN96       0.1566
    167  C        -64.2010  -60.0100    2.2530 C.2    96  GLN96       0.2260
    168  O        -63.4570  -59.7880    1.2880 O.2    96  GLN96      -0.2867
    169  CB       -63.6130  -58.7010    4.2890 C.3    96  GLN96       0.0367
    170  CG       -62.9150  -58.6370    5.6320 C.3    96  GLN96       0.0905
    171  CD       -63.7380  -59.2300    6.7620 C.2    96  GLN96       0.2608
    172  OE1      -64.8630  -58.7970    7.0410 O.2    96  GLN96      -0.2717
    173  NE2      -63.1780  -60.2300    7.4200 N.am   96  GLN96      -0.0878
    174  N        -63.5210  -48.3360   17.1070 N.3   121  GLU121     -0.1231
    175  CA       -62.4970  -48.8350   16.2000 C.3   121  GLU121      0.1699
    176  C        -61.5660  -47.7270   15.7300 C.2   121  GLU121      0.2592
    177  O        -60.4560  -48.0180   15.2790 O.2   121  GLU121     -0.2718
    178  CB       -63.1480  -49.5290   15.0030 C.3   121  GLU121      0.0402
    179  CG       -63.6670  -50.8990   15.3550 C.3   121  GLU121      0.1161
    180  CD       -64.5400  -51.4970   14.2810 C.2   121  GLU121      0.3649
    181  OE1      -64.0510  -51.6870   13.1230 O.co2 121  GLU121     -0.2457
    182  OE2      -65.7220  -51.7820   14.6060 O.co2 121  GLU121     -0.2457
    183  N        -61.9730  -46.4740   15.8630 N.am  122  PHE122     -0.1976
    184  CA       -61.1790  -45.3450   15.4060 C.3   122  PHE122      0.1639
    185  C        -61.0420  -44.2960   16.5010 C.2   122  PHE122      0.2290
    186  O        -61.9050  -44.1690   17.3780 O.2   122  PHE122     -0.2864
    187  CB       -61.8260  -44.6870   14.2080 C.3   122  PHE122      0.0560
    188  CG       -61.9970  -45.5780   13.0300 C.ar  122  PHE122     -0.0200
    189  CD1      -60.8960  -46.2280   12.4690 C.ar  122  PHE122     -0.0042
    190  CD2      -63.2500  -45.7590   12.4690 C.ar  122  PHE122     -0.0042
    191  CE1      -61.0550  -47.0580   11.3620 C.ar  122  PHE122     -0.0003
    192  CE2      -63.4140  -46.5910   11.3510 C.ar  122  PHE122     -0.0003
    193  CZ       -62.3190  -47.2340   10.8070 C.ar  122  PHE122     -0.0000
    194  N        -53.9430  -46.6940    1.7340 N.3   137  VAL137     -0.1231
    195  CA       -54.5460  -47.8990    2.3000 C.3   137  VAL137      0.1692
    196  C        -53.4790  -48.9850    2.5080 C.2   137  VAL137      0.2591
    197  O        -52.4820  -49.0600    1.7770 O.2   137  VAL137     -0.2718
    198  CB       -55.6710  -48.4090    1.3780 C.3   137  VAL137      0.0266
    199  CG1      -55.0900  -48.8690    0.0310 C.3   137  VAL137      0.0020
    200  CG2      -56.4670  -49.5120    2.0390 C.3   137  VAL137      0.0020
    201  N        -53.6890  -49.8320    3.5210 N.am  138  VAL138     -0.1980
    202  CA       -52.8170  -50.9900    3.7200 C.3   138  VAL138      0.1595
    203  C        -52.7810  -51.8510    2.4570 C.2   138  VAL138      0.2287
    204  O        -53.7680  -51.9680    1.7220 O.2   138  VAL138     -0.2864
    205  CB       -53.2900  -51.8020    4.9390 C.3   138  VAL138      0.0276
    206  CG1      -54.5850  -52.5390    4.6040 C.3   138  VAL138      0.0022
    207  CG2      -52.2230  -52.7900    5.3930 C.3   138  VAL138      0.0022
    208  N        -52.8730  -54.9690    1.5010 N.3   140  PHE140     -0.1227
    209  CA       -53.7630  -56.0560    1.0960 C.3   140  PHE140      0.1736
    210  C        -55.1710  -55.5690    0.7570 C.2   140  PHE140      0.2595
    211  O        -55.9250  -56.3180    0.1240 O.2   140  PHE140     -0.2718
    212  CB       -53.7940  -57.1820    2.1510 C.3   140  PHE140      0.0547
    213  CG       -54.1710  -56.7410    3.5460 C.ar  140  PHE140     -0.0202
    214  CD1      -55.4990  -56.6990    3.9450 C.ar  140  PHE140     -0.0042
    215  CD2      -53.1910  -56.3940    4.4620 C.ar  140  PHE140     -0.0042
    216  CE1      -55.8410  -56.3060    5.2420 C.ar  140  PHE140     -0.0003
    217  CE2      -53.5250  -56.0020    5.7470 C.ar  140  PHE140     -0.0003
    218  CZ       -54.8550  -55.9660    6.1340 C.ar  140  PHE140     -0.0000
    219  N        -55.5250  -54.3240    1.0880 N.am  141  LYS141     -0.1980
    220  CA       -56.8000  -53.7490    0.6520 C.3   141  LYS141      0.1596
    221  C        -56.7100  -52.8960   -0.6150 C.2   141  LYS141      0.2287
    222  O        -57.7530  -52.4390   -1.1230 O.2   141  LYS141     -0.2864
    223  CB       -57.4010  -52.9060    1.7850 C.3   141  LYS141      0.0298
    224  CG       -57.8300  -53.7140    2.9870 C.3   141  LYS141      0.0038
    225  CD       -58.2560  -52.7220    4.0790 C.3   141  LYS141      0.0206
    226  CE       -58.9380  -53.3770    5.2340 C.3   141  LYS141      0.1093
    227  NZ       -59.3260  -52.3130    6.2010 N.3   141  LYS141     -0.1314
@<TRIPOS>BOND
     1   222   221    2
     2   221   220    1
     3   113   114    1
     4   114   117    1
     5   114   115    1
     6   199   198    1
     7   211   210    2
     8   117   118    1
     9   220   219    1
    10   220   223    1
    11   115   116    2
    12   210   219   am
    13   210   209    1
    14   209   208    1
    15   209   212    1
    16   168   167    2
    17   198   200    1
    18   198   195    1
    19   204   203    2
    20   194   195    1
    21   118   120   ar
    22   118   119   ar
    23   197   196    2
    24   223   224    1
    25   120   122   ar
    26   212   213    1
    27   167   166    1
    28   195   196    1
    29   203   202    1
    30   196   201   am
    31   119   121   ar
    32   224   225    1
    33    15    14    2
    34   122   123   ar
    35   201   202    1
    36   213   214   ar
    37   213   215   ar
    38   128   127    2
    39   125   126    1
    40   165   166    1
    41   166   169    1
    42   202   205    1
    43   214   216   ar
    44   225   226    1
    45   121   123   ar
    46   127   126    1
    47    14    13    1
    48   169   170    1
    49   123   124    1
    50    12    13    1
    51   215   217   ar
    52   126   129    1
    53   206   205    1
    54     4     3    2
    55   205   207    1
    56    13    16    1
    57    18    17    2
    58    16    17    1
    59    76    75    2
    60     3     2    1
    61   226   227    1
    62   216   218   ar
    63     1     2    1
    64   170   171    1
    65    17    19   am
    66   217   218   ar
    67   129   130    1
    68     2     5    1
    69    75    77   am
    70    75    74    1
    71    73    74    1
    72    73    70    1
    73    62    61    1
    74    62    63    2
    75    61    64    1
    76    61    60    1
    77   130   132    1
    78   130   131    1
    79   171   172    2
    80   171   173   am
    81    49    48    2
    82    64    65    1
    83    70    69    1
    84    70    71    1
    85     5     6    1
    86    60    48   am
    87   161   162    2
    88   161   160    1
    89    48    47    1
    90    81    80    2
    91   164   163    1
    92    50    47    1
    93    50    51    1
    94    78    71   am
    95    78    79    1
    96   160   163    1
    97   160   159    1
    98    65    66    1
    99     6     7    1
   100    68    66   am
   101    71    72    2
   102    47    46    1
   103    66    67    2
   104   139   138    1
   105    80    79    1
   106    80    82   am
   107    46    42   am
   108    51    52   ar
   109    51    53   ar
   110   133   134    1
   111   137   138    1
   112   137   134    1
   113   138   140    1
   114    84    83    1
   115    84    85    2
   116    56    53   ar
   117    56    58   ar
   118    83    82    1
   119     8     7    1
   120     8     9    2
   121    52    54   ar
   122    53    55   ar
   123   134   135    1
   124    58    59   ar
   125    11     9    1
   126   135   136    2
   127    44    41    1
   128    44    45    1
   129    42    41    1
   130    42    43    2
   131    54    55   ar
   132    55    57   ar
   133     9    10    1
   134    41    40    1
   135    90    91    1
   136    90    87    1
   137    59    57   ar
   138    91    92    1
   139   193   192   ar
   140   193   191   ar
   141   111   110   ar
   142    26    25    1
   143    26    27    1
   144    86    87    1
   145    88    87    1
   146    88    89    2
   147    29    28    1
   148   192   190   ar
   149   191   189   ar
   150   141   142    1
   151    25    24    1
   152    92    93   ar
   153    92    94   ar
   154    27    28    2
   155   110   112   ar
   156   110   109    1
   157    28    30    1
   158   190   188   ar
   159   189   188   ar
   160   144   143    2
   161   143   142    1
   162   108   109    1
   163   108   105    1
   164    20    21    1
   165   142   145    1
   166   155   154    2
   167   188   187    1
   168    24    21    1
   169   181   180   ar
   170    21    22    1
   171    38    37    2
   172   106   105    1
   173   106   107    2
   174   145   146    1
   175   105   104    1
   176   157   156    1
   177   154   153    1
   178   104    97   am
   179   187   184    1
   180   180   182   ar
   181   180   179    1
   182    95    96    1
   183   102   101   ar
   184    37    39   am
   185    37    36    1
   186    35    36    1
   187    35    32    1
   188   178   179    1
   189   178   175    1
   190    33    34    2
   191    33    32    1
   192   152   153    1
   193    22    23    2
   194   177   176    2
   195   153   156    1
   196   146   147    1
   197   103   101   ar
   198   101   100    1
   199   156   158    1
   200    99    96    1
   201    99   100    1
   202   184   183    1
   203   184   185    1
   204    97    96    1
   205    97    98    2
   206   176   183   am
   207   176   175    1
   208    32    31    1
   209   147   148    1
   210   175   174    1
   211   185   186    2
   212   148   149    2
   213   149   150    1
   214   149   151    1
