@<TRIPOS>MOLECULE
tmp/6d1yA00.pdb
 175 164 0 0 0
SMALL
GASTEIGER

@<TRIPOS>ATOM
      1  N        -18.4800  -15.1000   19.6300 N.3     1  GLY1       -0.1210
      2  CA       -18.4190  -13.8730   18.8430 C.3     1  GLY1        0.1956
      3  C        -19.6640  -13.6380   18.0210 C.2     1  GLY1        0.2611
      4  O        -19.6000  -13.6300   16.7850 O.2     1  GLY1       -0.2717
      5  N        -20.8320  -13.4910   18.7090 N.am    2  LYS2       -0.1979
      6  CA       -22.1590  -13.2650   18.1120 C.3     2  LYS2        0.1596
      7  C        -22.1280  -12.0230   17.2010 C.2     2  LYS2        0.2287
      8  O        -21.7650  -10.9310   17.6530 O.2     2  LYS2       -0.2864
      9  CB       -23.2320  -13.1090   19.2110 C.3     2  LYS2        0.0298
     10  CG       -23.1760  -11.8200   19.9990 C.3     2  LYS2        0.0038
     11  CD       -24.3190  -11.7990   20.9900 C.3     2  LYS2        0.0206
     12  CE       -24.5990  -10.3880   21.4880 C.3     2  LYS2        0.1093
     13  NZ       -24.8010   -9.4410   20.3320 N.3     2  LYS2       -0.1314
     14  N        -19.9700  -11.2780   14.9270 N.3     4  SER4       -0.1202
     15  CA       -18.6410  -10.7770   14.5230 C.3     4  SER4        0.2020
     16  C        -18.4060  -11.0070   13.0270 C.2     4  SER4        0.2619
     17  O        -18.9770  -11.9500   12.4700 O.2     4  SER4       -0.2717
     18  CB       -17.5380  -11.4720   15.2970 C.3     4  SER4        0.2103
     19  OG       -17.3760  -12.8530   14.9960 O.3     4  SER4       -0.2182
     20  N        -17.5600  -10.1810   12.4100 N.am    5  GLY5       -0.1942
     21  CA       -17.1290  -10.4420   11.0380 C.3     5  GLY5        0.2014
     22  C        -16.3660  -11.7560   10.9190 C.2     5  GLY5        0.2638
     23  O        -16.4780  -12.4520    9.9100 O.2     5  GLY5       -0.2714
     24  N        -15.5900  -12.1420   11.9490 N.am    6  LEU6       -0.1977
     25  CA       -14.8240  -13.4150   11.9420 C.3     6  LEU6        0.1596
     26  C        -15.7480  -14.6370   11.7670 C.2     6  LEU6        0.2287
     27  O        -15.5620  -15.4110   10.8320 O.2     6  LEU6       -0.2864
     28  CB       -13.9860  -13.5420   13.2320 C.3     6  LEU6        0.0297
     29  CG       -12.7870  -12.6080   13.3970 C.3     6  LEU6        0.0022
     30  CD1      -12.2950  -12.5870   14.8550 C.3     6  LEU6        0.0001
     31  CD2      -11.6370  -12.9510   12.4110 C.3     6  LEU6        0.0001
     32  N         -6.1610  -11.0060   25.4610 N.3    61  LYS61      -0.1245
     33  CA        -7.5890  -11.0960   25.7010 C.3    61  LYS61       0.1561
     34  C         -7.8230  -12.3870   26.4910 C.2    61  LYS61       0.2260
     35  O         -7.4730  -13.4680   26.0050 O.2    61  LYS61      -0.2867
     36  CB        -8.3870  -11.1240   24.3670 C.3    61  LYS61       0.0271
     37  CG        -9.8870  -11.2590   24.6160 C.3    61  LYS61       0.0035
     38  CD       -10.6860  -11.3650   23.3360 C.3    61  LYS61       0.0206
     39  CE       -12.1540  -11.4640   23.6820 C.3    61  LYS61       0.1093
     40  NZ       -12.9610  -11.5230   22.4460 N.3    61  LYS61      -0.1314
     41  N        -12.3430  -18.5770   15.7590 N.3    77  GLU77      -0.1245
     42  CA       -11.8720  -17.1900   15.6080 C.3    77  GLU77       0.1567
     43  C        -10.3750  -17.1280   15.5500 C.2    77  GLU77       0.2260
     44  O         -9.8360  -16.3900   14.7300 O.2    77  GLU77      -0.2867
     45  CB       -12.3990  -16.3110   16.7490 C.3    77  GLU77       0.0388
     46  CG       -13.8940  -16.0300   16.6440 C.3    77  GLU77       0.1160
     47  CD       -14.5770  -15.8100   17.9840 C.2    77  GLU77       0.3649
     48  OE1      -15.8240  -15.9180   18.0540 O.co2  77  GLU77      -0.2457
     49  OE2      -13.8530  -15.6280   18.9870 O.co2  77  GLU77      -0.2457
     50  N         -7.9870  -15.5880   12.6390 N.3    81  LEU81      -0.1245
     51  CA        -7.1310  -14.4490   12.9940 C.3    81  LEU81       0.1561
     52  C         -5.6880  -14.7430   12.6300 C.2    81  LEU81       0.2260
     53  O         -4.9650  -13.8230   12.2540 O.2    81  LEU81      -0.2867
     54  CB        -7.2730  -14.0440   14.4680 C.3    81  LEU81       0.0270
     55  CG        -8.5680  -13.3350   14.8920 C.3    81  LEU81       0.0019
     56  CD1       -8.8300  -13.5340   16.3910 C.3    81  LEU81       0.0001
     57  CD2       -8.5380  -11.8330   14.5420 C.3    81  LEU81       0.0001
     58  N         -5.3400  -13.7430    8.9320 N.3    84  LEU84      -0.1245
     59  CA        -5.3710  -12.3090    8.5780 C.3    84  LEU84       0.1561
     60  C         -4.0280  -11.6470    8.8870 C.2    84  LEU84       0.2260
     61  O         -3.7350  -11.3180   10.0410 O.2    84  LEU84      -0.2867
     62  CB        -6.5670  -11.5730    9.2300 C.3    84  LEU84       0.0270
     63  CG        -7.9430  -12.2300    9.0130 C.3    84  LEU84       0.0019
     64  CD1       -9.0030  -11.5590    9.8360 C.3    84  LEU84       0.0001
     65  CD2       -8.3520  -12.2160    7.5560 C.3    84  LEU84       0.0001
     66  N         -3.4950   -4.6410    9.5030 N.3    89  ILE89      -0.1245
     67  CA        -4.3370   -5.5180   10.3130 C.3    89  ILE89       0.1561
     68  C         -3.5120   -5.8180   11.5530 C.2    89  ILE89       0.2260
     69  O         -2.3430   -6.1600   11.4270 O.2    89  ILE89      -0.2867
     70  CB        -4.8220   -6.8060    9.5790 C.3    89  ILE89       0.0252
     71  CG1       -5.6320   -6.4560    8.2890 C.3    89  ILE89       0.0019
     72  CG2       -5.6240   -7.7620   10.5590 C.3    89  ILE89       0.0019
     73  CD1       -7.0920   -5.8780    8.4580 C.3    89  ILE89       0.0001
     74  N         -6.0310  -15.0730   24.0810 N.3   104  MET104     -0.1245
     75  CA        -5.6850  -14.7380   22.6940 C.3   104  MET104      0.1570
     76  C         -4.6270  -13.6580   22.8280 C.2   104  MET104      0.2261
     77  O         -4.7570  -12.7740   23.6780 O.2   104  MET104     -0.2867
     78  CB        -6.8810  -14.2120   21.9320 C.3   104  MET104      0.0387
     79  CG        -7.6750  -15.3000   21.2650 C.3   104  MET104      0.0595
     80  SD        -9.1670  -14.5470   20.5590 S.3   104  MET104     -0.1393
     81  CE        -9.9100  -15.9970   19.7040 C.3   104  MET104      0.0692
     82  N         -2.2420  -10.7370   21.0220 N.3   106  PHE106     -0.1241
     83  CA        -2.1450   -9.7860   19.9210 C.3   106  PHE106      0.1605
     84  C         -0.9390   -8.8710   20.1070 C.2   106  PHE106      0.2264
     85  O         -0.4600   -8.7040   21.2350 O.2   106  PHE106     -0.2867
     86  CB        -3.4160   -8.9060   19.8830 C.3   106  PHE106      0.0534
     87  CG        -4.7280   -9.6310   19.6530 C.ar  106  PHE106     -0.0203
     88  CD1       -5.4530  -10.1550   20.7270 C.ar  106  PHE106     -0.0042
     89  CD2       -5.2720   -9.7320   18.3750 C.ar  106  PHE106     -0.0042
     90  CE1       -6.6660  -10.8170   20.5220 C.ar  106  PHE106     -0.0003
     91  CE2       -6.5160  -10.3570   18.1780 C.ar  106  PHE106     -0.0003
     92  CZ        -7.1950  -10.9000   19.2560 C.ar  106  PHE106     -0.0000
     93  N         -9.0070   -6.8630    3.1670 N.3   149  LEU149     -0.1245
     94  CA       -10.2030   -7.6420    3.5590 C.3   149  LEU149      0.1561
     95  C        -11.1630   -7.8870    2.4060 C.2   149  LEU149      0.2260
     96  O        -11.6300   -9.0140    2.2270 O.2   149  LEU149     -0.2867
     97  CB       -10.9180   -7.0360    4.7550 C.3   149  LEU149      0.0270
     98  CG       -10.1620   -6.9570    6.1030 C.3   149  LEU149      0.0019
     99  CD1      -11.0720   -6.3440    7.1720 C.3   149  LEU149      0.0001
    100  CD2       -9.5670   -8.3260    6.5540 C.3   149  LEU149      0.0001
    101  N        -13.8650  -10.7740    2.6870 N.3   154  PHE154     -0.1241
    102  CA       -14.1350  -10.7650    4.1350 C.3   154  PHE154      0.1605
    103  C        -14.9060   -9.4780    4.4540 C.2   154  PHE154      0.2264
    104  O        -14.3970   -8.3740    4.2150 O.2   154  PHE154     -0.2867
    105  CB       -12.8260  -10.8340    4.9460 C.3   154  PHE154      0.0534
    106  CG       -13.0090  -10.8160    6.4480 C.ar  154  PHE154     -0.0203
    107  CD1      -13.2860   -9.6270    7.1210 C.ar  154  PHE154     -0.0042
    108  CD2      -12.8480  -11.9710    7.1960 C.ar  154  PHE154     -0.0042
    109  CE1      -13.4470   -9.6060    8.5130 C.ar  154  PHE154     -0.0003
    110  CE2      -13.0020  -11.9490    8.5910 C.ar  154  PHE154     -0.0003
    111  CZ       -13.2940  -10.7720    9.2410 C.ar  154  PHE154     -0.0000
    112  N        -16.2860   -6.9880    7.1520 N.3   156  HIS156     -0.1241
    113  CA       -15.9860   -6.6030    8.5370 C.3   156  HIS156      0.1621
    114  C        -17.2340   -6.5870    9.4000 C.2   156  HIS156      0.2264
    115  O        -17.2420   -7.1950   10.4670 O.2   156  HIS156     -0.2867
    116  CB       -15.2700   -5.2290    8.6070 C.3   156  HIS156      0.0745
    117  CG       -14.6640   -4.9630    9.9510 C.ar  156  HIS156      0.0817
    118  ND1      -15.4410   -4.5670   11.0200 N.ar  156  HIS156     -0.2268
    119  CD2      -13.3630   -4.9870   10.3340 C.ar  156  HIS156      0.1154
    120  CE1      -14.6080   -4.4160   12.0430 C.ar  156  HIS156      0.1986
    121  NE2      -13.3410   -4.6580   11.6760 N.ar  156  HIS156     -0.2212
    122  N        -18.4260   -4.2280   11.2320 N.3   158  ASP158     -0.1239
    123  CA       -18.3970   -3.1900   12.2750 C.3   158  ASP158      0.1674
    124  C        -17.2120   -2.1960   12.1390 C.2   158  ASP158      0.2266
    125  O        -16.5600   -1.8240   13.1290 O.2   158  ASP158     -0.2867
    126  CB       -18.5250   -3.7920   13.6920 C.3   158  ASP158      0.1410
    127  CG       -18.9080   -2.8220   14.8210 C.2   158  ASP158      0.3668
    128  OD1      -19.3520   -1.6810   14.5160 O.co2 158  ASP158     -0.2456
    129  OD2      -18.7020   -3.1790   16.0060 O.co2 158  ASP158     -0.2456
    130  N         -6.4880   -2.1280   11.5080 N.3   174  ILE174     -0.1231
    131  CA        -7.8460   -2.5630   11.8520 C.3   174  ILE174      0.1692
    132  C         -7.6730   -3.7360   12.7970 C.2   174  ILE174      0.2593
    133  O         -6.8550   -4.6380   12.5520 O.2   174  ILE174     -0.2718
    134  CB        -8.6770   -2.9090   10.5890 C.3   174  ILE174      0.0266
    135  CG1       -8.7130   -1.6790    9.6310 C.3   174  ILE174      0.0019
    136  CG2      -10.1120   -3.3770   10.9590 C.3   174  ILE174      0.0020
    137  CD1       -9.2420   -1.9780    8.2970 C.3   174  ILE174      0.0001
    138  N         -8.4100   -3.6770   13.9000 N.am  175  GLY175     -0.1942
    139  CA        -8.3810   -4.7260   14.9160 C.3   175  GLY175      0.2014
    140  C         -9.1070   -4.3070   16.1630 C.2   175  GLY175      0.2639
    141  O         -9.1490   -3.1200   16.5170 O.2   175  GLY175     -0.2714
    142  N         -9.7480   -5.2830   16.8030 N.am  176  ASP176     -0.1957
    143  CA       -10.4790   -5.0630   18.0460 C.3   176  ASP176      0.1840
    144  C        -10.4230   -6.3490   18.8760 C.2   176  ASP176      0.2622
    145  O         -9.8690   -7.3700   18.4270 O.2   176  ASP176     -0.2715
    146  CB       -11.9280   -4.6090   17.7610 C.3   176  ASP176      0.1450
    147  CG       -12.8110   -5.6680   17.1030 C.2   176  ASP176      0.3671
    148  OD1      -13.4080   -6.4720   17.8300 O.co2 176  ASP176     -0.2456
    149  OD2      -12.9070   -5.6830   15.8480 O.co2 176  ASP176     -0.2456
    150  N        -11.0490   -6.3170   20.0420 N.am  177  PHE177     -0.1960
    151  CA       -11.0500   -7.4470   20.9830 C.3   177  PHE177      0.1771
    152  C        -12.4330   -8.0280   21.1570 C.2   177  PHE177      0.2620
    153  O        -12.6420   -8.8950   22.0010 O.2   177  PHE177     -0.2715
    154  CB       -10.4420   -6.9900   22.3270 C.3   177  PHE177      0.0574
    155  CG        -9.0340   -6.4690   22.2010 C.ar  177  PHE177     -0.0200
    156  CD1       -7.9570   -7.3430   22.0930 C.ar  177  PHE177     -0.0042
    157  CD2       -8.7800   -5.1010   22.1770 C.ar  177  PHE177     -0.0042
    158  CE1       -6.6550   -6.8510   21.9310 C.ar  177  PHE177     -0.0003
    159  CE2       -7.4780   -4.6160   22.0290 C.ar  177  PHE177     -0.0003
    160  CZ        -6.4270   -5.4900   21.9300 C.ar  177  PHE177     -0.0000
    161  N        -13.3730   -7.5520   20.3620 N.am  178  GLY178     -0.1954
    162  CA       -14.7430   -8.0270   20.4260 C.3   178  GLY178      0.1869
    163  C        -15.5340   -7.4890   21.6030 C.2   178  GLY178      0.2309
    164  O        -16.4990   -8.1230   22.0190 O.2   178  GLY178     -0.2863
    165  N        -19.1290   -3.3280   21.8430 N.3   181  ARG181     -0.1245
    166  CA       -20.5400   -3.2350   22.2450 C.3   181  ARG181      0.1563
    167  C        -20.6840   -2.9100   23.7500 C.2   181  ARG181      0.2260
    168  O        -21.6430   -2.2320   24.1260 O.2   181  ARG181     -0.2867
    169  CB       -21.2940   -4.5030   21.8700 C.3   181  ARG181      0.0307
    170  CG       -21.7920   -4.4730   20.4290 C.3   181  ARG181      0.0489
    171  CD       -22.1250   -5.8510   19.8730 C.3   181  ARG181      0.2205
    172  NE       -22.5750   -5.7550   18.4830 N.pl3 181  ARG181     -0.0865
    173  CZ       -21.7760   -5.8200   17.4230 C.cat 181  ARG181      0.5346
    174  NH1      -20.4710   -6.0030   17.5800 N.pl3 181  ARG181      0.1354
    175  NH2      -22.2720   -5.6880   16.1990 N.pl3 181  ARG181      0.1354
@<TRIPOS>BOND
     1    96    95    2
     2    95    94    1
     3   101   102    1
     4    93    94    1
     5    94    97    1
     6   102   103    1
     7   102   105    1
     8   104   103    2
     9    97    98    1
    10   105   106    1
    11    98   100    1
    12    98    99    1
    13   106   107   ar
    14   106   108   ar
    15   107   109   ar
    16   112   113    1
    17   108   110   ar
    18    65    63    1
    19    71    73    1
    20    71    70    1
    21   137   135    1
    22   109   111   ar
    23   113   116    1
    24   113   114    1
    25    59    60    1
    26    59    58    1
    27    59    62    1
    28   110   111   ar
    29   116   117    1
    30    60    61    2
    31    63    62    1
    32    63    64    1
    33   114   115    2
    34    66    67    1
    35    70    67    1
    36    70    72    1
    37   135   134    1
    38    23    22    2
    39   117   119   ar
    40   117   118   ar
    41    67    68    1
    42   119   121   ar
    43   134   136    1
    44   134   131    1
    45    27    26    2
    46    22    21    1
    47    22    24   am
    48   118   120   ar
    49    21    20    1
    50   122   123    1
    51    69    68    2
    52   130   131    1
    53   121   120   ar
    54    26    25    1
    55   131   132    1
    56    25    24    1
    57    25    28    1
    58   124   123    1
    59   124   125    2
    60    53    52    2
    61   123   126    1
    62    20    16   am
    63    31    29    1
    64    17    16    2
    65   133   132    2
    66    52    51    1
    67    50    51    1
    68   132   138   am
    69    51    54    1
    70    16    15    1
    71    28    29    1
    72    29    30    1
    73   126   127    1
    74   138   139    1
    75    54    55    1
    76   128   127   ar
    77    15    14    1
    78    15    18    1
    79    57    55    1
    80    44    43    2
    81   127   129   ar
    82    55    56    1
    83   139   140    1
    84    19    18    1
    85    43    42    1
    86    42    41    1
    87    42    45    1
    88   149   147   ar
    89   140   141    2
    90   140   142   am
    91   175   173    1
    92    46    45    1
    93    46    47    1
    94     4     3    2
    95   142   143    1
    96   147   146    1
    97   147   148   ar
    98     7     8    2
    99     7     6    1
   100   173   174    1
   101   173   172    2
   102   146   143    1
   103    47    48   ar
   104    47    49   ar
   105     3     5   am
   106     3     2    1
   107   143   144    1
   108     6     5    1
   109     6     9    1
   110    91    89   ar
   111    91    92   ar
   112    89    87   ar
   113   145   144    2
   114   172   171    1
   115     2     1    1
   116   144   150   am
   117     9    10    1
   118    92    90   ar
   119    87    86    1
   120    87    88   ar
   121    81    80    1
   122   171   170    1
   123    86    83    1
   124    83    84    1
   125    83    82    1
   126    10    11    1
   127   150   151    1
   128    84    85    2
   129    13    12    1
   130   161   162    1
   131   161   152   am
   132   162   163    1
   133   170   169    1
   134    90    88   ar
   135    80    79    1
   136   151   152    1
   137   151   154    1
   138    11    12    1
   139   152   153    2
   140    79    78    1
   141   163   164    2
   142   165   166    1
   143   169   166    1
   144   160   158   ar
   145   160   159   ar
   146   158   156   ar
   147    78    75    1
   148   159   157   ar
   149   156   155   ar
   150   157   155   ar
   151   155   154    1
   152   166   167    1
   153    40    39    1
   154    75    76    1
   155    75    74    1
   156    76    77    2
   157    38    39    1
   158    38    37    1
   159   167   168    2
   160    36    37    1
   161    36    33    1
   162    32    33    1
   163    33    34    1
   164    35    34    2
