@<TRIPOS>MOLECULE
tmp/6d1zA01.pdb
 201 191 0 0 0
SMALL
GASTEIGER

@<TRIPOS>ATOM
      1  N        -28.4790   -2.6690   -8.6160 N.3     1  GLY1       -0.1210
      2  CA       -27.2290   -3.1850   -8.0650 C.3     1  GLY1        0.1956
      3  C        -25.9910   -2.4090   -8.4810 C.2     1  GLY1        0.2613
      4  O        -24.8720   -2.9120   -8.3440 O.2     1  GLY1       -0.2717
      5  N        -26.1790   -1.1710   -8.9700 N.am    2  SER2       -0.1938
      6  CA       -25.0830   -0.2890   -9.4060 C.3     2  SER2        0.2055
      7  C        -24.2820    0.2250   -8.2380 C.2     2  SER2        0.2644
      8  O        -24.8100    0.3440   -7.1270 O.2     2  SER2       -0.2714
      9  CB       -25.6300    0.9030  -10.1880 C.3     2  SER2        0.2130
     10  OG       -26.2920    1.8600   -9.3770 O.3     2  SER2       -0.2179
     11  N        -23.0250    0.5790   -8.5000 N.am    3  GLY3       -0.1939
     12  CA       -22.1710    1.1810   -7.4810 C.3     3  GLY3        0.2014
     13  C        -22.7010    2.5490   -7.0910 C.2     3  GLY3        0.2638
     14  O        -22.6420    2.9150   -5.9190 O.2     3  GLY3       -0.2714
     15  N        -23.2810    3.2960   -8.0620 N.am    4  LEU4       -0.1977
     16  CA       -23.8740    4.6110   -7.7930 C.3     4  LEU4        0.1596
     17  C        -24.9640    4.4820   -6.7390 C.2     4  LEU4        0.2287
     18  O        -24.8790    5.1540   -5.7090 O.2     4  LEU4       -0.2864
     19  CB       -24.4310    5.2760   -9.0800 C.3     4  LEU4        0.0297
     20  CG       -23.3960    5.8660  -10.0550 C.3     4  LEU4        0.0022
     21  CD1      -24.0510    6.2010  -11.4020 C.3     4  LEU4        0.0001
     22  CD2      -22.7270    7.1260   -9.4930 C.3     4  LEU4        0.0001
     23  N        -33.1030   -0.9350  -19.6820 N.3    31  PHE31      -0.1241
     24  CA       -33.3890    0.3750  -19.0740 C.3    31  PHE31       0.1605
     25  C        -33.4420    1.5740  -20.0560 C.2    31  PHE31       0.2264
     26  O        -33.8560    2.6670  -19.6500 O.2    31  PHE31      -0.2867
     27  CB       -32.3760    0.6630  -17.9520 C.3    31  PHE31       0.0534
     28  CG       -32.4590   -0.2590  -16.7230 C.ar   31  PHE31      -0.0203
     29  CD1      -33.6320   -0.9250  -16.4400 C.ar   31  PHE31      -0.0042
     30  CD2      -31.3470   -0.3550  -15.8890 C.ar   31  PHE31      -0.0042
     31  CE1      -33.6690   -1.6990  -15.2980 C.ar   31  PHE31      -0.0003
     32  CE2      -31.4000   -1.1270  -14.7530 C.ar   31  PHE31      -0.0003
     33  CZ       -32.5800   -1.7960  -14.4710 C.ar   31  PHE31      -0.0000
     34  N        -27.4010    9.1860  -22.1780 N.3    54  LYS54      -0.1245
     35  CA       -28.0820    8.0160  -21.6190 C.3    54  LYS54       0.1561
     36  C        -29.5640    8.4020  -21.4840 C.2    54  LYS54       0.2260
     37  O        -29.8760    9.3480  -20.7690 O.2    54  LYS54      -0.2867
     38  CB       -27.5210    7.6950  -20.2270 C.3    54  LYS54       0.0271
     39  CG       -28.0740    6.4190  -19.5970 C.3    54  LYS54       0.0035
     40  CD       -27.4080    6.1750  -18.2330 C.3    54  LYS54       0.0206
     41  CE       -28.2780    5.4070  -17.2770 C.3    54  LYS54       0.1093
     42  NZ       -28.5380    4.0190  -17.7190 N.3    54  LYS54      -0.1314
     43  N        -28.7640    9.6140   -8.4460 N.3    70  GLU70      -0.1245
     44  CA       -27.6110    9.2270   -9.2850 C.3    70  GLU70       0.1567
     45  C        -26.9770   10.4640   -9.9170 C.2    70  GLU70       0.2260
     46  O        -25.7480   10.5700   -9.9470 O.2    70  GLU70      -0.2867
     47  CB       -28.0550    8.2610  -10.4040 C.3    70  GLU70       0.0388
     48  CG       -28.3460    6.8730   -9.8900 C.3    70  GLU70       0.1160
     49  CD       -29.0760    5.9530  -10.8430 C.2    70  GLU70       0.3649
     50  OE1      -29.2900    6.3290  -12.0180 O.co2  70  GLU70      -0.2457
     51  OE2      -29.4280    4.8390  -10.4050 O.co2  70  GLU70      -0.2457
     52  N        -23.1950   11.7650   -9.5130 N.3    74  LEU74      -0.1245
     53  CA       -22.3850   11.9400  -10.7270 C.3    74  LEU74       0.1561
     54  C        -21.8040   13.3520  -10.8210 C.2    74  LEU74       0.2260
     55  O        -20.6820   13.5140  -11.2800 O.2    74  LEU74      -0.2867
     56  CB       -23.1880   11.6120  -12.0100 C.3    74  LEU74       0.0270
     57  CG       -23.5280   10.1290  -12.2710 C.3    74  LEU74       0.0019
     58  CD1      -24.5210   10.0110  -13.4280 C.3    74  LEU74       0.0001
     59  CD2      -22.2680    9.3040  -12.5990 C.3    74  LEU74       0.0001
     60  N        -18.7180   13.4700   -8.5140 N.3    77  LEU77      -0.1245
     61  CA       -17.5470   12.7050   -8.9710 C.3    77  LEU77       0.1561
     62  C        -16.7730   13.5140  -10.0060 C.2    77  LEU77       0.2260
     63  O        -17.2180   13.6630  -11.1360 O.2    77  LEU77      -0.2867
     64  CB       -17.9400   11.3110   -9.5160 C.3    77  LEU77       0.0270
     65  CG       -18.6380   10.3390   -8.5550 C.3    77  LEU77       0.0019
     66  CD1      -18.9920    9.0450   -9.2680 C.3    77  LEU77       0.0001
     67  CD2      -17.7720   10.0210   -7.3240 C.3    77  LEU77       0.0001
     68  N        -12.2120    9.7600  -14.3410 N.3    82  ILE82      -0.1231
     69  CA       -13.6280    9.4760  -14.1880 C.3    82  ILE82       0.1692
     70  C        -14.3310   10.1690  -15.3550 C.2    82  ILE82       0.2591
     71  O        -14.0900   11.3520  -15.5890 O.2    82  ILE82      -0.2718
     72  CB       -14.2200    9.9120  -12.8080 C.3    82  ILE82       0.0266
     73  CG1      -13.5460    9.1610  -11.6160 C.3    82  ILE82       0.0019
     74  CG2      -15.7510    9.6870  -12.8150 C.3    82  ILE82       0.0020
     75  CD1      -13.8220    7.5670  -11.5040 C.3    82  ILE82       0.0001
     76  N        -15.2200    9.4410  -16.0810 N.am   83  VAL83      -0.1980
     77  CA       -15.9310   10.0030  -17.2490 C.3    83  VAL83       0.1595
     78  C        -16.7030   11.2720  -16.8260 C.2    83  VAL83       0.2287
     79  O        -17.3450   11.2620  -15.8000 O.2    83  VAL83      -0.2864
     80  CB       -16.8260    8.9430  -17.9270 C.3    83  VAL83       0.0276
     81  CG1      -17.7670    9.5740  -18.9680 C.3    83  VAL83       0.0022
     82  CG2      -15.9490    7.8350  -18.5570 C.3    83  VAL83       0.0022
     83  N        -19.4070   13.9980  -16.4020 N.3    85  PHE85      -0.1241
     84  CA       -20.8660   14.1250  -16.3840 C.3    85  PHE85       0.1605
     85  C        -21.2390   15.6040  -16.5320 C.2    85  PHE85       0.2264
     86  O        -20.8040   16.4150  -15.7230 O.2    85  PHE85      -0.2867
     87  CB       -21.4220   13.5760  -15.0700 C.3    85  PHE85       0.0534
     88  CG       -22.9120   13.7850  -14.9620 C.ar   85  PHE85      -0.0203
     89  CD1      -23.4480   14.5870  -13.9550 C.ar   85  PHE85      -0.0042
     90  CD2      -23.7880   13.1740  -15.8590 C.ar   85  PHE85      -0.0042
     91  CE1      -24.8320   14.7160  -13.8080 C.ar   85  PHE85      -0.0003
     92  CE2      -25.1800   13.3400  -15.7300 C.ar   85  PHE85      -0.0003
     93  CZ       -25.6900   14.1000  -14.6980 C.ar   85  PHE85      -0.0000
     94  N        -29.2830   11.8010  -19.3020 N.3    97  MET97      -0.1245
     95  CA       -28.0300   12.1100  -18.6050 C.3    97  MET97       0.1570
     96  C        -27.0070   12.3350  -19.6950 C.2    97  MET97       0.2261
     97  O        -26.8730   11.5030  -20.5900 O.2    97  MET97      -0.2867
     98  CB       -27.6030   10.9570  -17.7060 C.3    97  MET97       0.0387
     99  CG       -28.1450   11.0650  -16.2960 C.3    97  MET97       0.0595
    100  SD       -27.8930    9.4760  -15.5000 S.3    97  MET97      -0.1393
    101  CE       -28.6920    9.7700  -13.9200 C.3    97  MET97       0.0692
    102  N        -23.0930   12.9860  -20.8870 N.3    99  PHE99      -0.1241
    103  CA       -21.6950   12.7020  -20.5170 C.3    99  PHE99       0.1605
    104  C        -20.8090   13.1090  -21.6780 C.2    99  PHE99       0.2264
    105  O        -21.3040   13.2950  -22.8020 O.2    99  PHE99      -0.2867
    106  CB       -21.4860   11.1800  -20.2590 C.3    99  PHE99       0.0534
    107  CG       -22.3490   10.5830  -19.1720 C.ar   99  PHE99      -0.0203
    108  CD1      -23.6110   10.0720  -19.4640 C.ar   99  PHE99      -0.0042
    109  CD2      -21.9180   10.5670  -17.8480 C.ar   99  PHE99      -0.0042
    110  CE1      -24.4210    9.5380  -18.4550 C.ar   99  PHE99      -0.0003
    111  CE2      -22.7240   10.0290  -16.8380 C.ar   99  PHE99      -0.0003
    112  CZ       -23.9660    9.5070  -17.1490 C.ar   99  PHE99      -0.0000
    113  N        -12.0280    6.9070   -6.3050 N.3   139  LEU139     -0.1245
    114  CA       -13.2390    6.2880   -5.7550 C.3   139  LEU139      0.1561
    115  C        -13.0210    5.7470   -4.3400 C.2   139  LEU139      0.2260
    116  O        -13.8170    6.0860   -3.4680 O.2   139  LEU139     -0.2867
    117  CB       -13.8310    5.2000   -6.6920 C.3   139  LEU139      0.0270
    118  CG       -14.2480    5.7300   -8.1110 C.3   139  LEU139      0.0019
    119  CD1      -14.8860    4.5990   -8.9620 C.3   139  LEU139      0.0001
    120  CD2      -15.2500    6.9050   -8.0150 C.3   139  LEU139      0.0001
    121  N        -16.2370    4.9370   -2.0310 N.3   144  PHE144     -0.1241
    122  CA       -17.1390    4.5250   -3.1030 C.3   144  PHE144      0.1605
    123  C        -16.6900    3.1300   -3.5790 C.2   144  PHE144      0.2264
    124  O        -15.5310    2.9390   -3.9850 O.2   144  PHE144     -0.2867
    125  CB       -17.0820    5.5300   -4.2520 C.3   144  PHE144      0.0534
    126  CG       -18.0060    5.2390   -5.4110 C.ar  144  PHE144     -0.0203
    127  CD1      -17.6680    4.2890   -6.3740 C.ar  144  PHE144     -0.0042
    128  CD2      -19.1870    5.9520   -5.5750 C.ar  144  PHE144     -0.0042
    129  CE1      -18.5160    4.0300   -7.4620 C.ar  144  PHE144     -0.0003
    130  CE2      -20.0470    5.6780   -6.6480 C.ar  144  PHE144     -0.0003
    131  CZ       -19.7100    4.7060   -7.5760 C.ar  144  PHE144     -0.0000
    132  N        -17.2630    0.3750   -6.3740 N.3   146  HIS146     -0.1241
    133  CA       -17.7220    0.2890   -7.7590 C.3   146  HIS146      0.1621
    134  C        -18.7050   -0.8850   -7.9730 C.2   146  HIS146      0.2264
    135  O        -19.7970   -0.6710   -8.5340 O.2   146  HIS146     -0.2867
    136  CB       -16.5190    0.2000   -8.7210 C.3   146  HIS146      0.0745
    137  CG       -16.9230    0.3480  -10.1570 C.ar  146  HIS146      0.0817
    138  ND1      -17.6760   -0.6150  -10.7970 N.ar  146  HIS146     -0.2268
    139  CD2      -16.6430    1.3410  -11.0350 C.ar  146  HIS146      0.1154
    140  CE1      -17.9150   -0.1340  -12.0140 C.ar  146  HIS146      0.1986
    141  NE2      -17.3010    1.0420  -12.1970 N.ar  146  HIS146     -0.2212
    142  N        -18.6400   -3.3450   -9.9800 N.3   148  ASP148     -0.1239
    143  CA       -18.5570   -3.9710  -11.3250 C.3   148  ASP148      0.1674
    144  C        -17.3780   -3.4540  -12.1280 C.2   148  ASP148      0.2266
    145  O        -17.4940   -3.1250  -13.3160 O.2   148  ASP148     -0.2867
    146  CB       -19.8640   -3.7950  -12.0830 C.3   148  ASP148      0.1410
    147  CG       -20.0680   -4.6920  -13.2860 C.2   148  ASP148      0.3668
    148  OD1      -19.2610   -5.6450  -13.4760 O.co2 148  ASP148     -0.2456
    149  OD2      -20.9740   -4.4060  -14.0700 O.co2 148  ASP148     -0.2456
    150  N        -12.8100    5.6970  -15.8860 N.3   164  ILE164     -0.1231
    151  CA       -13.8230    4.7810  -15.3790 C.3   164  ILE164      0.1692
    152  C        -15.2020    5.4290  -15.6220 C.2   164  ILE164      0.2593
    153  O        -15.4210    6.6150  -15.3190 O.2   164  ILE164     -0.2718
    154  CB       -13.5820    4.4500  -13.8850 C.3   164  ILE164      0.0266
    155  CG1      -12.1810    3.7710  -13.7250 C.3   164  ILE164      0.0019
    156  CG2      -14.7160    3.5250  -13.3550 C.3   164  ILE164      0.0020
    157  CD1      -11.6920    3.6270  -12.3310 C.3   164  ILE164      0.0001
    158  N        -16.1040    4.6510  -16.2120 N.am  165  GLY165     -0.1942
    159  CA       -17.4670    5.1150  -16.4370 C.3   165  GLY165      0.2014
    160  C        -18.1930    4.1840  -17.3690 C.2   165  GLY165      0.2639
    161  O        -17.5570    3.5200  -18.2090 O.2   165  GLY165     -0.2714
    162  N        -19.5280    4.1030  -17.2060 N.am  166  ASP166     -0.1957
    163  CA       -20.3630    3.2570  -18.0700 C.3   166  ASP166      0.1840
    164  C        -21.7650    3.8500  -18.1920 C.2   166  ASP166      0.2622
    165  O        -22.1410    4.6610  -17.3670 O.2   166  ASP166     -0.2715
    166  CB       -20.4270    1.8300  -17.5290 C.3   166  ASP166      0.1450
    167  CG       -21.1860    1.7170  -16.2050 C.2   166  ASP166      0.3671
    168  OD1      -22.4240    1.5540  -16.2420 O.co2 166  ASP166     -0.2456
    169  OD2      -20.5400    1.7840  -15.1410 O.co2 166  ASP166     -0.2456
    170  N        -22.5440    3.4180  -19.1810 N.am  167  PHE167     -0.1960
    171  CA       -23.8840    3.9770  -19.3860 C.3   167  PHE167      0.1771
    172  C        -25.0050    3.0790  -18.8300 C.2   167  PHE167      0.2620
    173  O        -26.1690    3.1860  -19.2400 O.2   167  PHE167     -0.2715
    174  CB       -24.0750    4.3450  -20.8600 C.3   167  PHE167      0.0574
    175  CG       -22.9640    5.2570  -21.3460 C.ar  167  PHE167     -0.0200
    176  CD1      -22.8010    6.5300  -20.8090 C.ar  167  PHE167     -0.0042
    177  CD2      -22.0190    4.8040  -22.2530 C.ar  167  PHE167     -0.0042
    178  CE1      -21.7150    7.3300  -21.1750 C.ar  167  PHE167     -0.0003
    179  CE2      -20.9690    5.6300  -22.6640 C.ar  167  PHE167     -0.0003
    180  CZ       -20.8210    6.8840  -22.1250 C.ar  167  PHE167     -0.0000
    181  N        -24.6390    2.2370  -17.8710 N.am  168  GLY168     -0.1954
    182  CA       -25.5440    1.3390  -17.1590 C.3   168  GLY168      0.1869
    183  C        -26.1830    0.2390  -17.9800 C.2   168  GLY168      0.2309
    184  O        -27.2410   -0.2560  -17.6030 O.2   168  GLY168     -0.2863
    185  N        -24.1160   -2.5400  -19.3740 N.3   170  SER170     -0.1202
    186  CA       -23.1880   -3.6650  -19.4970 C.3   170  SER170      0.2020
    187  C        -23.8300   -5.0540  -19.2740 C.2   170  SER170      0.2618
    188  O        -23.4230   -5.9960  -19.9300 O.2   170  SER170     -0.2717
    189  CB       -21.9630   -3.4630  -18.6150 C.3   170  SER170      0.2103
    190  OG       -21.4240   -2.1920  -18.9630 O.3   170  SER170     -0.2182
    191  N        -24.8460   -5.1570  -18.4090 N.am  171  ARG171     -0.1979
    192  CA       -25.5860   -6.3910  -18.1560 C.3   171  ARG171      0.1597
    193  C        -26.4080   -6.8290  -19.3770 C.2   171  ARG171      0.2287
    194  O        -26.8400   -7.9780  -19.4290 O.2   171  ARG171     -0.2864
    195  CB       -26.4630   -6.2690  -16.8920 C.3   171  ARG171      0.0334
    196  CG       -25.6230   -6.3840  -15.6070 C.3   171  ARG171      0.0492
    197  CD       -26.4210   -6.1390  -14.3220 C.3   171  ARG171      0.2205
    198  NE       -25.7000   -6.6740  -13.1590 N.pl3 171  ARG171     -0.0865
    199  CZ       -24.7520   -6.0290  -12.4780 C.cat 171  ARG171      0.5346
    200  NH1      -24.4020   -4.8010  -12.8170 N.pl3 171  ARG171      0.1354
    201  NH2      -24.1510   -6.6150  -11.4510 N.pl3 171  ARG171      0.1354
@<TRIPOS>BOND
     1   105   104    2
     2   179   177   ar
     3   179   180   ar
     4   177   175   ar
     5    34    35    1
     6   180   178   ar
     7   104   103    1
     8    35    36    1
     9    35    38    1
    10    36    37    2
    11   175   174    1
    12   175   176   ar
    13   178   176   ar
    14   102   103    1
    15   174   171    1
    16    97    96    2
    17   103   106    1
    18   106   107    1
    19    38    39    1
    20    25    26    2
    21    25    24    1
    22   188   187    2
    23    96    95    1
    24    23    24    1
    25    39    40    1
    26   186   185    1
    27   186   187    1
    28   186   189    1
    29   108   107   ar
    30   108   110   ar
    31   194   193    2
    32   171   170    1
    33   171   172    1
    34   193   192    1
    35    94    95    1
    36   187   191   am
    37   173   172    2
    38   170   164   am
    39   107   109   ar
    40    24    27    1
    41    81    80    1
    42   190   189    1
    43   172   181   am
    44    95    98    1
    45    82    80    1
    46   110   112   ar
    47   191   192    1
    48    40    41    1
    49   161   160    2
    50   164   163    1
    51   164   165    2
    52   192   195    1
    53   163   166    1
    54   163   162    1
    55   183   184    2
    56   183   182    1
    57    27    28    1
    58    80    77    1
    59   181   182    1
    60   109   111   ar
    61    42    41    1
    62    98    99    1
    63   166   167    1
    64   160   162   am
    65   160   159    1
    66    77    78    1
    67    77    76    1
    68   112   111   ar
    69   195   196    1
    70    78    79    2
    71    28    29   ar
    72    28    30   ar
    73    85    84    1
    74    85    86    2
    75    29    31   ar
    76   159   158    1
    77    83    84    1
    78    84    87    1
    79    99   100    1
    80   168   167   ar
    81   158   152   am
    82   167   169   ar
    83    76    70   am
    84    30    32   ar
    85   150   151    1
    86    90    92   ar
    87    90    88   ar
    88    92    93   ar
    89   152   151    1
    90   152   153    2
    91   196   197    1
    92    71    70    2
    93   100   101    1
    94   151   154    1
    95    70    69    1
    96    31    33   ar
    97    87    88    1
    98    88    89   ar
    99    32    33   ar
   100    93    91   ar
   101    68    69    1
   102   197   198    1
   103    69    72    1
   104   149   147   ar
   105    89    91   ar
   106   154   155    1
   107   154   156    1
   108   155   157    1
   109   148   147   ar
   110    58    57    1
   111   145   144    2
   112   147   146    1
   113   198   199    2
   114   200   199    1
   115    74    72    1
   116    72    73    1
   117    59    57    1
   118   199   201    1
   119    57    56    1
   120   141   140   ar
   121   141   139   ar
   122   144   143    1
   123   146   143    1
   124    50    49   ar
   125   140   138   ar
   126    56    53    1
   127    73    75    1
   128    21    20    1
   129   143   142    1
   130    55    54    2
   131    63    62    2
   132   139   137   ar
   133    49    51   ar
   134    49    48    1
   135    54    53    1
   136   138   137   ar
   137    53    52    1
   138    47    48    1
   139    47    44    1
   140     9     6    1
   141     9    10    1
   142   137   136    1
   143    20    22    1
   144    20    19    1
   145    62    61    1
   146    46    45    2
   147    45    44    1
   148    64    61    1
   149    64    65    1
   150     6     5    1
   151     6     7    1
   152    44    43    1
   153    66    65    1
   154    19    16    1
   155    61    60    1
   156     5     3   am
   157   119   118    1
   158   136   133    1
   159     1     2    1
   160    65    67    1
   161   135   134    2
   162    11     7   am
   163    11    12    1
   164     3     4    2
   165     3     2    1
   166     7     8    2
   167   118   120    1
   168   118   117    1
   169    15    16    1
   170    15    13   am
   171   134   133    1
   172    16    17    1
   173   133   132    1
   174   131   129   ar
   175   131   130   ar
   176    12    13    1
   177   129   127   ar
   178    13    14    2
   179    17    18    2
   180   117   114    1
   181   130   128   ar
   182   127   126   ar
   183   113   114    1
   184   114   115    1
   185   128   126   ar
   186   126   125    1
   187   115   116    2
   188   125   122    1
   189   124   123    2
   190   123   122    1
   191   122   121    1
