@<TRIPOS>MOLECULE
tmp/6d20A01.pdb
 220 209 0 0 0
SMALL
GASTEIGER

@<TRIPOS>ATOM
      1  N        -32.0250   -2.9160   -7.4940 N.3     1  LYS1       -0.1231
      2  CA       -30.9780   -2.2160   -8.2380 C.3     1  LYS1        0.1693
      3  C        -29.6270   -2.3340   -7.5130 C.2     1  LYS1        0.2593
      4  O        -29.5250   -2.0110   -6.3190 O.2     1  LYS1       -0.2718
      5  CB       -31.3740   -0.7490   -8.4780 C.3     1  LYS1        0.0285
      6  CG       -30.7740   -0.4160   -9.8130 C.3     1  LYS1        0.0035
      7  CD       -31.1070    0.9900  -10.2780 C.3     1  LYS1        0.0206
      8  CE       -30.3070    1.2300  -11.5620 C.3     1  LYS1        0.1093
      9  NZ       -30.6240    2.5320  -12.1310 N.3     1  LYS1       -0.1314
     10  N        -28.6230   -2.8080   -8.2490 N.am    2  GLY2       -0.1942
     11  CA       -27.2820   -3.0680   -7.7440 C.3     2  GLY2        0.2014
     12  C        -26.1250   -2.3700   -8.4350 C.2     2  GLY2        0.2640
     13  O        -25.0250   -2.9250   -8.4770 O.2     2  GLY2       -0.2714
     14  N        -26.3240   -1.1200   -8.9090 N.am    3  SER3       -0.1935
     15  CA       -25.2090   -0.3400   -9.4890 C.3     3  SER3        0.2055
     16  C        -24.3460    0.1710   -8.3340 C.2     3  SER3        0.2644
     17  O        -24.8450    0.2860   -7.2090 O.2     3  SER3       -0.2714
     18  CB       -25.7420    0.8500  -10.2860 C.3     3  SER3        0.2130
     19  OG       -26.4350    1.7830   -9.4780 O.3     3  SER3       -0.2179
     20  N        -23.0790    0.4890   -8.6090 N.am    4  GLY4       -0.1939
     21  CA       -22.2210    1.0970   -7.5920 C.3     4  GLY4        0.2014
     22  C        -22.7630    2.4510   -7.1650 C.2     4  GLY4        0.2638
     23  O        -22.6290    2.8230   -6.0030 O.2     4  GLY4       -0.2714
     24  N        -23.3710    3.2130   -8.0930 N.am    5  LEU5       -0.1977
     25  CA       -23.9640    4.5330   -7.7760 C.3     5  LEU5        0.1596
     26  C        -25.0500    4.3880   -6.7230 C.2     5  LEU5        0.2287
     27  O        -24.9790    5.0670   -5.7040 O.2     5  LEU5       -0.2864
     28  CB       -24.5530    5.2100   -9.0390 C.3     5  LEU5        0.0297
     29  CG       -23.5360    5.7240  -10.0430 C.3     5  LEU5        0.0022
     30  CD1      -24.2230    6.1130  -11.3360 C.3     5  LEU5        0.0001
     31  CD2      -22.7040    6.9320   -9.4820 C.3     5  LEU5        0.0001
     32  N        -33.3250   -1.0550  -19.8220 N.3    34  PHE34      -0.1241
     33  CA       -33.5450    0.2690  -19.1980 C.3    34  PHE34       0.1605
     34  C        -33.7950    1.3910  -20.2290 C.2    34  PHE34       0.2264
     35  O        -34.3130    2.4390  -19.8410 O.2    34  PHE34      -0.2867
     36  CB       -32.3220    0.6920  -18.3150 C.3    34  PHE34       0.0534
     37  CG       -31.2380    1.4650  -19.0560 C.ar   34  PHE34      -0.0203
     38  CD1      -31.3720    2.8330  -19.2910 C.ar   34  PHE34      -0.0042
     39  CD2      -30.1550    0.8050  -19.6250 C.ar   34  PHE34      -0.0042
     40  CE1      -30.4830    3.5100  -20.1210 C.ar   34  PHE34      -0.0003
     41  CE2      -29.2200    1.5010  -20.4130 C.ar   34  PHE34      -0.0003
     42  CZ       -29.3890    2.8510  -20.6540 C.ar   34  PHE34      -0.0000
     43  N        -27.5820    9.0070  -22.2530 N.3    57  LYS57      -0.1245
     44  CA       -28.2640    7.8370  -21.7030 C.3    57  LYS57       0.1561
     45  C        -29.7550    8.2220  -21.5580 C.2    57  LYS57       0.2260
     46  O        -30.0810    9.2000  -20.8870 O.2    57  LYS57      -0.2867
     47  CB       -27.6560    7.4480  -20.3380 C.3    57  LYS57       0.0271
     48  CG       -28.2960    6.2040  -19.7040 C.3    57  LYS57       0.0035
     49  CD       -27.8340    5.9580  -18.2620 C.3    57  LYS57       0.0206
     50  CE       -28.5930    4.7410  -17.7410 C.3    57  LYS57       0.1093
     51  NZ       -28.3670    4.4790  -16.3180 N.3    57  LYS57      -0.1314
     52  N        -28.8840    9.6310   -8.4050 N.3    73  GLU73      -0.1245
     53  CA       -27.7390    9.2350   -9.2500 C.3    73  GLU73       0.1567
     54  C        -27.1130   10.4580   -9.8850 C.2    73  GLU73       0.2260
     55  O        -25.8930   10.5590   -9.9060 O.2    73  GLU73      -0.2867
     56  CB       -28.1840    8.2750  -10.3750 C.3    73  GLU73       0.0388
     57  CG       -28.5640    6.9040   -9.8580 C.3    73  GLU73       0.1160
     58  CD       -29.3220    6.0290  -10.8350 C.2    73  GLU73       0.3649
     59  OE1      -29.4470    6.4070  -12.0210 O.co2  73  GLU73      -0.2457
     60  OE2      -29.7980    4.9550  -10.4060 O.co2  73  GLU73      -0.2457
     61  N        -23.3380   11.6550   -9.6120 N.3    77  LEU77      -0.1245
     62  CA       -22.5210   11.7960  -10.8300 C.3    77  LEU77       0.1561
     63  C        -21.9530   13.2110  -10.9430 C.2    77  LEU77       0.2260
     64  O        -20.8210   13.3800  -11.3960 O.2    77  LEU77      -0.2867
     65  CB       -23.3320   11.4510  -12.0980 C.3    77  LEU77       0.0270
     66  CG       -23.6230    9.9500  -12.3180 C.3    77  LEU77       0.0019
     67  CD1      -24.7030    9.7620  -13.3550 C.3    77  LEU77       0.0001
     68  CD2      -22.3600    9.1930  -12.7650 C.3    77  LEU77       0.0001
     69  N        -18.7540   13.4290   -8.6400 N.3    80  LEU80      -0.1245
     70  CA       -17.5780   12.6630   -9.0770 C.3    80  LEU80       0.1561
     71  C        -16.8510   13.4920  -10.1150 C.2    80  LEU80       0.2260
     72  O        -17.4120   13.7500  -11.1800 O.2    80  LEU80      -0.2867
     73  CB       -17.9860   11.2850   -9.6480 C.3    80  LEU80       0.0270
     74  CG       -18.7550   10.3340   -8.7050 C.3    80  LEU80       0.0019
     75  CD1      -19.2410    9.1170   -9.4480 C.3    80  LEU80       0.0001
     76  CD2      -17.9190    9.9020   -7.4820 C.3    80  LEU80       0.0001
     77  N        -12.2250    9.6510  -14.4110 N.3    85  ILE85      -0.1231
     78  CA       -13.6520    9.3640  -14.2280 C.3    85  ILE85       0.1692
     79  C        -14.3560   10.0710  -15.3950 C.2    85  ILE85       0.2591
     80  O        -14.1340   11.2710  -15.6220 O.2    85  ILE85      -0.2718
     81  CB       -14.2040    9.8310  -12.8450 C.3    85  ILE85       0.0266
     82  CG1      -13.5230    9.0800  -11.6460 C.3    85  ILE85       0.0019
     83  CG2      -15.7650    9.6830  -12.7940 C.3    85  ILE85       0.0020
     84  CD1      -13.7240    7.4830  -11.4980 C.3    85  ILE85       0.0001
     85  N        -15.2000    9.3340  -16.1300 N.am   86  VAL86      -0.1980
     86  CA       -15.9600    9.8680  -17.2760 C.3    86  VAL86       0.1595
     87  C        -16.7600   11.1070  -16.8510 C.2    86  VAL86       0.2287
     88  O        -17.3650   11.1020  -15.7800 O.2    86  VAL86      -0.2864
     89  CB       -16.8270    8.7860  -17.9710 C.3    86  VAL86       0.0276
     90  CG1      -17.7440    9.4040  -19.0360 C.3    86  VAL86       0.0022
     91  CG2      -15.9300    7.6980  -18.5880 C.3    86  VAL86       0.0022
     92  N        -19.5310   13.8390  -16.4610 N.3    88  PHE88      -0.1241
     93  CA       -20.9910   13.9230  -16.4770 C.3    88  PHE88       0.1605
     94  C        -21.3570   15.4120  -16.6330 C.2    88  PHE88       0.2264
     95  O        -20.8850   16.2390  -15.8570 O.2    88  PHE88      -0.2867
     96  CB       -21.5850   13.3370  -15.1930 C.3    88  PHE88       0.0534
     97  CG       -23.0710   13.5720  -15.0530 C.ar   88  PHE88      -0.0203
     98  CD1      -23.5650   14.4700  -14.1070 C.ar   88  PHE88      -0.0042
     99  CD2      -23.9830   12.8870  -15.8600 C.ar   88  PHE88      -0.0042
    100  CE1      -24.9370   14.6540  -13.9460 C.ar   88  PHE88      -0.0003
    101  CE2      -25.3540   13.0720  -15.6880 C.ar   88  PHE88      -0.0003
    102  CZ       -25.8210   13.9470  -14.7220 C.ar   88  PHE88      -0.0000
    103  N        -29.5050   11.6320  -19.3810 N.3   100  MET100     -0.1245
    104  CA       -28.2570   11.9220  -18.6720 C.3   100  MET100      0.1570
    105  C        -27.2280   12.1140  -19.7570 C.2   100  MET100      0.2261
    106  O        -27.1000   11.2500  -20.6450 O.2   100  MET100     -0.2867
    107  CB       -27.8320   10.7700  -17.7540 C.3   100  MET100      0.0387
    108  CG       -28.4660   10.8230  -16.3840 C.3   100  MET100      0.0595
    109  SD       -28.0700    9.3090  -15.4400 S.3   100  MET100     -0.1393
    110  CE       -28.9340    9.6430  -13.9340 C.3   100  MET100      0.0692
    111  N        -23.2880   12.7020  -20.9340 N.3   102  PHE102     -0.1241
    112  CA       -21.8930   12.4220  -20.6040 C.3   102  PHE102      0.1605
    113  C        -20.9890   12.8380  -21.7500 C.2   102  PHE102      0.2264
    114  O        -21.4690   13.0430  -22.8640 O.2   102  PHE102     -0.2867
    115  CB       -21.7000   10.9220  -20.3490 C.3   102  PHE102      0.0534
    116  CG       -22.5800   10.3150  -19.2860 C.ar  102  PHE102     -0.0203
    117  CD1      -23.8520    9.8400  -19.6010 C.ar  102  PHE102     -0.0042
    118  CD2      -22.1370   10.2120  -17.9670 C.ar  102  PHE102     -0.0042
    119  CE1      -24.6520    9.2340  -18.6290 C.ar  102  PHE102     -0.0003
    120  CE2      -22.9330    9.6060  -16.9960 C.ar  102  PHE102     -0.0003
    121  CZ       -24.1950    9.1430  -17.3250 C.ar  102  PHE102     -0.0000
    122  N        -11.9950    6.7920   -6.3840 N.3   143  LEU143     -0.1245
    123  CA       -13.2110    6.1710   -5.8260 C.3   143  LEU143      0.1561
    124  C        -12.9990    5.6190   -4.3970 C.2   143  LEU143      0.2260
    125  O        -13.8230    5.9070   -3.5280 O.2   143  LEU143     -0.2867
    126  CB       -13.7450    5.0880   -6.7720 C.3   143  LEU143      0.0270
    127  CG       -14.2100    5.6200   -8.1540 C.3   143  LEU143      0.0019
    128  CD1      -14.7020    4.4680   -9.0160 C.3   143  LEU143      0.0001
    129  CD2      -15.2980    6.7320   -7.9910 C.3   143  LEU143      0.0001
    130  N        -16.1790    4.8400   -2.1250 N.3   148  PHE148     -0.1241
    131  CA       -17.0700    4.4240   -3.2010 C.3   148  PHE148      0.1605
    132  C        -16.6310    3.0020   -3.6630 C.2   148  PHE148      0.2264
    133  O        -15.5130    2.8150   -4.1860 O.2   148  PHE148     -0.2867
    134  CB       -17.0030    5.4090   -4.3920 C.3   148  PHE148      0.0534
    135  CG       -18.0490    5.1700   -5.4610 C.ar  148  PHE148     -0.0203
    136  CD1      -17.8900    4.1500   -6.4020 C.ar  148  PHE148     -0.0042
    137  CD2      -19.1440    6.0140   -5.5850 C.ar  148  PHE148     -0.0042
    138  CE1      -18.8310    3.9650   -7.4300 C.ar  148  PHE148     -0.0003
    139  CE2      -20.0860    5.8270   -6.6080 C.ar  148  PHE148     -0.0003
    140  CZ       -19.9330    4.7860   -7.5150 C.ar  148  PHE148     -0.0000
    141  N        -17.1400    0.2020   -6.4170 N.3   150  HIS150     -0.1241
    142  CA       -17.5840    0.1220   -7.8130 C.3   150  HIS150      0.1621
    143  C        -18.6290   -0.9820   -8.0400 C.2   150  HIS150      0.2264
    144  O        -19.7040   -0.7240   -8.6130 O.2   150  HIS150     -0.2867
    145  CB       -16.3870   -0.0430   -8.7490 C.3   150  HIS150      0.0745
    146  CG       -16.7690    0.1740  -10.1770 C.ar  150  HIS150      0.0817
    147  ND1      -17.5400   -0.7490  -10.8620 N.ar  150  HIS150     -0.2268
    148  CD2      -16.5450    1.2430  -10.9780 C.ar  150  HIS150      0.1154
    149  CE1      -17.7590   -0.2110  -12.0550 C.ar  150  HIS150      0.1986
    150  NE2      -17.1790    0.9830  -12.1720 N.ar  150  HIS150     -0.2212
    151  N        -18.6590   -3.4060  -10.0620 N.3   152  ASP152     -0.1239
    152  CA       -18.5780   -4.0540  -11.3920 C.3   152  ASP152      0.1674
    153  C        -17.3310   -3.5770  -12.1840 C.2   152  ASP152      0.2266
    154  O        -17.4090   -3.2120  -13.3580 O.2   152  ASP152     -0.2867
    155  CB       -19.9020   -3.8650  -12.1640 C.3   152  ASP152      0.1410
    156  CG       -20.0970   -4.7690  -13.3720 C.2   152  ASP152      0.3668
    157  OD1      -19.2930   -5.7280  -13.5450 O.co2 152  ASP152     -0.2456
    158  OD2      -21.0500   -4.5140  -14.1560 O.co2 152  ASP152     -0.2456
    159  N        -16.3730   -1.5980  -18.4390 N.3   157  ASN157     -0.1240
    160  CA       -16.8810   -0.4620  -17.6610 C.3   157  ASN157      0.1653
    161  C        -15.8660    0.6730  -17.5420 C.2   157  ASN157      0.2266
    162  O        -15.9430    1.5250  -16.6390 O.2   157  ASN157     -0.2867
    163  CB       -17.4190   -0.9310  -16.3050 C.3   157  ASN157      0.1155
    164  CG       -18.7000   -1.7340  -16.4240 C.2   157  ASN157      0.2627
    165  OD1      -19.5130   -1.4960  -17.2950 O.2   157  ASN157     -0.2716
    166  ND2      -18.9380   -2.6820  -15.5330 N.am  157  ASN157     -0.0877
    167  N        -12.7660    5.5790  -15.9360 N.3   168  ILE168     -0.1231
    168  CA       -13.7550    4.6660  -15.3910 C.3   168  ILE168      0.1692
    169  C        -15.0850    5.3500  -15.6010 C.2   168  ILE168      0.2593
    170  O        -15.2840    6.5300  -15.2310 O.2   168  ILE168     -0.2718
    171  CB       -13.5160    4.3210  -13.9020 C.3   168  ILE168      0.0266
    172  CG1      -12.1160    3.6340  -13.7600 C.3   168  ILE168      0.0019
    173  CG2      -14.6590    3.3830  -13.3610 C.3   168  ILE168      0.0020
    174  CD1      -11.6170    3.5180  -12.3510 C.3   168  ILE168      0.0001
    175  N        -16.0190    4.5760  -16.1200 N.am  169  GLY169     -0.1942
    176  CA       -17.3760    5.0760  -16.2880 C.3   169  GLY169      0.2014
    177  C        -18.0890    4.2340  -17.2910 C.2   169  GLY169      0.2639
    178  O        -17.4370    3.5500  -18.0940 O.2   169  GLY169     -0.2714
    179  N        -19.4070    4.1830  -17.1610 N.am  170  ASP170     -0.1957
    180  CA       -20.2530    3.3800  -18.0490 C.3   170  ASP170      0.1840
    181  C        -21.6280    4.0170  -18.1400 C.2   170  ASP170      0.2622
    182  O        -21.9980    4.8300  -17.2870 O.2   170  ASP170     -0.2715
    183  CB       -20.3550    1.9110  -17.5620 C.3   170  ASP170      0.1450
    184  CG       -21.0890    1.7230  -16.2480 C.2   170  ASP170      0.3671
    185  OD1      -22.3240    1.6450  -16.2740 O.co2 170  ASP170     -0.2456
    186  OD2      -20.4220    1.6850  -15.1830 O.co2 170  ASP170     -0.2456
    187  N        -22.3930    3.6320  -19.1460 N.am  171  PHE171     -0.1960
    188  CA       -23.7190    4.2200  -19.3460 C.3   171  PHE171      0.1771
    189  C        -24.8290    3.2630  -18.9100 C.2   171  PHE171      0.2620
    190  O        -25.9780    3.4020  -19.3410 O.2   171  PHE171     -0.2715
    191  CB       -23.8640    4.7400  -20.7930 C.3   171  PHE171      0.0574
    192  CG       -22.7330    5.6670  -21.2060 C.ar  171  PHE171     -0.0200
    193  CD1      -22.2780    6.6680  -20.3490 C.ar  171  PHE171     -0.0042
    194  CD2      -22.0660    5.4820  -22.4100 C.ar  171  PHE171     -0.0042
    195  CE1      -21.1970    7.4770  -20.7050 C.ar  171  PHE171     -0.0003
    196  CE2      -21.0240    6.3300  -22.7870 C.ar  171  PHE171     -0.0003
    197  CZ       -20.6020    7.3280  -21.9330 C.ar  171  PHE171     -0.0000
    198  N        -24.4720    2.3250  -18.0260 N.am  172  GLY172     -0.1954
    199  CA       -25.3920    1.3990  -17.3780 C.3   172  GLY172      0.1869
    200  C        -26.0110    0.3210  -18.2300 C.2   172  GLY172      0.2309
    201  O        -27.0360   -0.2410  -17.8400 O.2   172  GLY172     -0.2863
    202  N        -24.8100   -5.0110  -18.5450 N.3   175  ARG175     -0.1231
    203  CA       -25.5660   -6.2390  -18.3060 C.3   175  ARG175      0.1694
    204  C        -26.4080   -6.6620  -19.5310 C.2   175  ARG175      0.2592
    205  O        -26.8440   -7.8040  -19.5980 O.2   175  ARG175     -0.2718
    206  CB       -26.4260   -6.1170  -17.0300 C.3   175  ARG175      0.0321
    207  CG       -25.6110   -6.3520  -15.7620 C.3   175  ARG175      0.0489
    208  CD       -26.3660   -6.0510  -14.4640 C.3   175  ARG175      0.2205
    209  NE       -25.6290   -6.5870  -13.3130 N.pl3 175  ARG175     -0.0865
    210  CZ       -24.6980   -5.9280  -12.6270 C.cat 175  ARG175      0.5346
    211  NH1      -24.3930   -4.6790  -12.9360 N.pl3 175  ARG175      0.1354
    212  NH2      -24.0730   -6.5180  -11.6160 N.pl3 175  ARG175      0.1354
    213  N        -26.6320   -5.7420  -20.4860 N.am  176  ASP176     -0.1974
    214  CA       -27.3770   -6.0100  -21.7220 C.3   176  ASP176      0.1709
    215  C        -26.4100   -6.2780  -22.8990 C.2   176  ASP176      0.2293
    216  O        -26.4810   -7.3350  -23.5120 O.2   176  ASP176     -0.2864
    217  CB       -28.3250   -4.8420  -22.0410 C.3   176  ASP176      0.1436
    218  CG       -29.3560   -4.6080  -20.9610 C.2   176  ASP176      0.3671
    219  OD1      -29.1290   -3.7210  -20.1030 O.co2 176  ASP176     -0.2456
    220  OD2      -30.3900   -5.3050  -20.9700 O.co2 176  ASP176     -0.2456
@<TRIPOS>BOND
     1   216   215    2
     2   215   214    1
     3   114   113    2
     4   196   194   ar
     5   196   197   ar
     6   194   192   ar
     7    43    44    1
     8   217   214    1
     9   217   218    1
    10   197   195   ar
    11   113   112    1
    12   214   213    1
    13    44    45    1
    14    44    47    1
    15    45    46    2
    16   192   191    1
    17   192   193   ar
    18   220   218   ar
    19   218   219   ar
    20   111   112    1
    21   191   188    1
    22   195   193   ar
    23    42    41   ar
    24    42    40   ar
    25   106   105    2
    26   112   115    1
    27   213   204   am
    28    41    39   ar
    29   115   116    1
    30    47    48    1
    31    34    35    2
    32    34    33    1
    33    40    38   ar
    34    32    33    1
    35   105   104    1
    36    48    49    1
    37    39    37   ar
    38   117   116   ar
    39   117   119   ar
    40   205   204    2
    41   204   203    1
    42   103   104    1
    43   188   187    1
    44   188   189    1
    45   190   189    2
    46    38    37   ar
    47   116   118   ar
    48    33    36    1
    49   187   181   am
    50    37    36    1
    51    90    89    1
    52   189   198   am
    53   104   107    1
    54   119   121   ar
    55    91    89    1
    56   202   203    1
    57   159   160    1
    58   203   206    1
    59    49    50    1
    60   200   201    2
    61   200   199    1
    62   181   180    1
    63   181   182    2
    64   178   177    2
    65   180   183    1
    66   180   179    1
    67   198   199    1
    68    89    86    1
    69   118   120   ar
    70   107   108    1
    71    50    51    1
    72   160   161    1
    73   160   163    1
    74   183   184    1
    75   161   162    2
    76   121   120   ar
    77   165   164    2
    78   177   179   am
    79   177   176    1
    80    86    87    1
    81    86    85    1
    82   206   207    1
    83    87    88    2
    84    94    93    1
    85    94    95    2
    86    93    92    1
    87    93    96    1
    88   164   163    1
    89   164   166   am
    90   108   109    1
    91   176   175    1
    92   185   184   ar
    93   184   186   ar
    94    85    79   am
    95   175   169   am
    96   167   168    1
    97    99   101   ar
    98    99    97   ar
    99   207   208    1
   100   101   102   ar
   101    80    79    2
   102   169   168    1
   103   169   170    2
   104   109   110    1
   105    79    78    1
   106   168   171    1
   107    96    97    1
   108    97    98   ar
   109   102   100   ar
   110   208   209    1
   111    77    78    1
   112    78    81    1
   113   158   156   ar
   114    98   100   ar
   115   171   172    1
   116   171   173    1
   117   172   174    1
   118   157   156   ar
   119   156   155    1
   120   154   153    2
   121    67    66    1
   122   209   210    2
   123   211   210    1
   124    81    83    1
   125    81    82    1
   126    68    66    1
   127   210   212    1
   128    66    65    1
   129   153   152    1
   130   150   149   ar
   131   150   148   ar
   132   155   152    1
   133     9     8    1
   134    65    62    1
   135   149   147   ar
   136    59    58   ar
   137    82    84    1
   138     8     7    1
   139    64    63    2
   140   152   151    1
   141    30    29    1
   142    72    71    2
   143   148   146   ar
   144    63    62    1
   145   147   146   ar
   146    58    60   ar
   147    58    57    1
   148    62    61    1
   149    56    57    1
   150    56    53    1
   151    18    15    1
   152    18    19    1
   153     7     6    1
   154   146   145    1
   155    71    70    1
   156    29    31    1
   157    29    28    1
   158    55    54    2
   159    54    53    1
   160     6     5    1
   161    73    70    1
   162    73    74    1
   163    15    14    1
   164    15    16    1
   165    75    74    1
   166    53    52    1
   167    70    69    1
   168    28    25    1
   169   128   127    1
   170    14    12   am
   171   145   142    1
   172    74    76    1
   173   144   143    2
   174    20    16   am
   175    20    21    1
   176     5     2    1
   177    13    12    2
   178    12    11    1
   179    16    17    2
   180    10    11    1
   181    10     3   am
   182     2     3    1
   183     2     1    1
   184   127   129    1
   185   127   126    1
   186    24    25    1
   187    24    22   am
   188   143   142    1
   189   142   141    1
   190    25    26    1
   191    21    22    1
   192   140   138   ar
   193   140   139   ar
   194     3     4    2
   195   138   136   ar
   196    22    23    2
   197   126   123    1
   198    26    27    2
   199   139   137   ar
   200   136   135   ar
   201   122   123    1
   202   123   124    1
   203   137   135   ar
   204   135   134    1
   205   124   125    2
   206   134   131    1
   207   133   132    2
   208   132   131    1
   209   131   130    1
