@<TRIPOS>MOLECULE
tmp/6d24B00.pdb
 139 131 0 0 0
SMALL
GASTEIGER

@<TRIPOS>ATOM
      1  N         10.6870  -75.3380   23.0420 N.3    33  LYS33      -0.1245
      2  CA         9.8450  -74.3030   23.6630 C.3    33  LYS33       0.1561
      3  C          8.3220  -74.5170   23.5410 C.2    33  LYS33       0.2260
      4  O          7.6250  -74.3880   24.5580 O.2    33  LYS33      -0.2867
      5  CB        10.2250  -72.9070   23.1260 C.3    33  LYS33       0.0271
      6  CG        11.6080  -72.4070   23.5630 C.3    33  LYS33       0.0035
      7  CD        11.5400  -71.4770   24.7710 C.3    33  LYS33       0.0206
      8  CE        12.8920  -71.0110   25.2540 C.3    33  LYS33       0.1093
      9  NZ        12.7600  -69.9510   26.2910 N.3    33  LYS33      -0.1314
     10  N          8.9570  -65.2370   14.2150 N.3   166  LYS166     -0.1245
     11  CA        10.0630  -64.4510   13.6500 C.3   166  LYS166      0.1561
     12  C         10.8150  -65.4020   12.6540 C.2   166  LYS166      0.2260
     13  O         10.7920  -66.6220   12.8820 O.2   166  LYS166     -0.2867
     14  CB        10.9990  -63.9920   14.8060 C.3   166  LYS166      0.0271
     15  CG        11.7880  -62.6880   14.5890 C.3   166  LYS166      0.0035
     16  CD        13.1700  -62.7140   15.3110 C.3   166  LYS166      0.0206
     17  CE        14.3520  -63.1330   14.4430 C.3   166  LYS166      0.1093
     18  NZ        14.7170  -62.1170   13.4120 N.3   166  LYS166     -0.1314
     19  N          8.3640  -63.0280   21.8710 N.3   196  HIS196     -0.1226
     20  CA         8.2430  -63.6920   23.1650 C.3   196  HIS196      0.1752
     21  C          8.6250  -62.8260   24.3780 C.2   196  HIS196      0.2596
     22  O          8.3890  -63.2610   25.5060 O.2   196  HIS196     -0.2718
     23  CB         8.9760  -65.0420   23.1780 C.3   196  HIS196      0.0759
     24  CG        10.4180  -64.9740   23.5410 C.ar  196  HIS196      0.0818
     25  ND1       11.3620  -64.5140   22.6480 N.ar  196  HIS196     -0.2268
     26  CD2       11.0360  -65.3500   24.6830 C.ar  196  HIS196      0.1154
     27  CE1       12.5240  -64.6060   23.2730 C.ar  196  HIS196      0.1986
     28  NE2       12.3780  -65.1020   24.5040 N.ar  196  HIS196     -0.2212
     29  N          9.1580  -61.6040   24.1660 N.am  197  TYR197     -0.1976
     30  CA         9.5160  -60.7310   25.2850 C.3   197  TYR197      0.1639
     31  C          8.2780  -60.2630   26.0320 C.2   197  TYR197      0.2290
     32  O          8.2920  -60.2880   27.2540 O.2   197  TYR197     -0.2864
     33  CB        10.4360  -59.5950   24.8600 C.3   197  TYR197      0.0560
     34  CG        11.8960  -59.9830   24.8960 C.ar  197  TYR197     -0.0198
     35  CD1       12.2940  -61.3040   24.7320 C.ar  197  TYR197     -0.0009
     36  CD2       12.8830  -59.0340   25.1210 C.ar  197  TYR197     -0.0009
     37  CE1       13.6390  -61.6680   24.7730 C.ar  197  TYR197      0.0417
     38  CE2       14.2330  -59.3860   25.1710 C.ar  197  TYR197      0.0417
     39  CZ        14.6090  -60.7030   24.9800 C.ar  197  TYR197      0.1957
     40  OH        15.9360  -61.0520   25.0240 O.3   197  TYR197     -0.2866
     41  N          7.5450  -62.2820   29.0400 N.3   200  LYS200     -0.1245
     42  CA         8.4140  -62.2930   30.2080 C.3   200  LYS200      0.1561
     43  C          7.7600  -61.5470   31.3520 C.2   200  LYS200      0.2260
     44  O          7.1730  -60.4860   31.1200 O.2   200  LYS200     -0.2867
     45  CB         9.7630  -61.6760   29.8690 C.3   200  LYS200      0.0271
     46  CG        10.5590  -62.5150   28.8970 C.3   200  LYS200      0.0035
     47  CD        11.9200  -61.9180   28.6530 C.3   200  LYS200      0.0206
     48  CE        12.9770  -62.9410   28.9620 C.3   200  LYS200      0.1093
     49  NZ        13.0820  -63.9870   27.9170 N.3   200  LYS200     -0.1314
     50  N         20.5920  -55.8460   26.4090 N.3   232  PHE232     -0.1241
     51  CA        20.5840  -57.2600   26.0880 C.3   232  PHE232      0.1605
     52  C         22.0420  -57.6770   26.0950 C.2   232  PHE232      0.2264
     53  O         22.8770  -57.0460   25.4200 O.2   232  PHE232     -0.2867
     54  CB        19.9490  -57.5710   24.7170 C.3   232  PHE232      0.0534
     55  CG        19.9490  -59.0580   24.3800 C.ar  232  PHE232     -0.0203
     56  CD1       18.9240  -59.8930   24.8250 C.ar  232  PHE232     -0.0042
     57  CD2       20.9860  -59.6250   23.6410 C.ar  232  PHE232     -0.0042
     58  CE1       18.9430  -61.2670   24.5430 C.ar  232  PHE232     -0.0003
     59  CE2       21.0060  -61.0030   23.3720 C.ar  232  PHE232     -0.0003
     60  CZ        19.9790  -61.8110   23.8180 C.ar  232  PHE232     -0.0000
     61  N         24.4690  -61.5000   26.3970 N.3   234  GLU234     -0.1245
     62  CA        24.4630  -62.9430   26.2760 C.3   234  GLU234      0.1567
     63  C         25.8880  -63.4310   26.4200 C.2   234  GLU234      0.2260
     64  O         26.7750  -62.9450   25.7010 O.2   234  GLU234     -0.2867
     65  CB        23.9110  -63.3180   24.8970 C.3   234  GLU234      0.0388
     66  CG        23.2170  -64.6560   24.8700 C.3   234  GLU234      0.1160
     67  CD        21.8760  -64.6510   24.1710 C.2   234  GLU234      0.3649
     68  OE1       21.8370  -64.3530   22.9550 O.co2 234  GLU234     -0.2457
     69  OE2       20.8670  -64.9750   24.8370 O.co2 234  GLU234     -0.2457
     70  N         26.8970  -66.4740   25.7770 N.3   236  ILE236     -0.1245
     71  CA        27.1150  -67.3510   24.6100 C.3   236  ILE236      0.1561
     72  C         27.1810  -66.5920   23.2780 C.2   236  ILE236      0.2260
     73  O         26.5860  -65.5180   23.1310 O.2   236  ILE236     -0.2867
     74  CB        26.1140  -68.5420   24.5170 C.3   236  ILE236      0.0252
     75  CG1       24.6490  -68.0980   24.5800 C.3   236  ILE236      0.0019
     76  CG2       26.4190  -69.6050   25.5680 C.3   236  ILE236      0.0019
     77  CD1       23.9910  -67.9220   23.2180 C.3   236  ILE236      0.0001
     78  N         17.8340  -59.4660   14.7560 N.3   253  ASP253     -0.1225
     79  CA        17.6020  -60.5780   15.6950 C.3   253  ASP253      0.1805
     80  C         17.0740  -60.2180   17.0710 C.2   253  ASP253      0.2597
     81  O         16.3810  -61.0410   17.6740 O.2   253  ASP253     -0.2718
     82  CB        18.8910  -61.3980   15.8760 C.3   253  ASP253      0.1424
     83  CG        18.7150  -62.7590   16.5330 C.2   253  ASP253      0.3668
     84  OD1       17.6810  -63.4080   16.2830 O.co2 253  ASP253     -0.2456
     85  OD2       19.6260  -63.1810   17.2810 O.co2 253  ASP253     -0.2456
     86  N         17.4570  -59.0440   17.6060 N.am  254  VAL254     -0.1980
     87  CA        17.0440  -58.6400   18.9520 C.3   254  VAL254      0.1595
     88  C         16.6410  -57.1640   19.0360 C.2   254  VAL254      0.2287
     89  O         15.6320  -56.8780   19.6800 O.2   254  VAL254     -0.2864
     90  CB        18.1300  -59.0380   20.0080 C.3   254  VAL254      0.0276
     91  CG1       18.4160  -57.9360   21.0190 C.3   254  VAL254      0.0022
     92  CG2       17.7680  -60.3460   20.7150 C.3   254  VAL254      0.0022
     93  N         13.0020  -56.3880   16.9770 N.3   257  ASN257     -0.1225
     94  CA        11.8700  -57.1270   17.5090 C.3   257  ASN257      0.1785
     95  C         11.7150  -56.9770   18.9890 C.2   257  ASN257      0.2597
     96  O         10.8320  -56.2410   19.4130 O.2   257  ASN257     -0.2718
     97  CB        11.8910  -58.6080   17.0890 C.3   257  ASN257      0.1169
     98  CG        13.2400  -59.2840   17.1310 C.2   257  ASN257      0.2627
     99  OD1       14.2480  -58.7590   16.6410 O.2   257  ASN257     -0.2716
    100  ND2       13.2810  -60.4870   17.6880 N.am  257  ASN257     -0.0877
    101  N         12.5740  -57.6290   19.7720 N.am  258  HIS258     -0.1975
    102  CA        12.5000  -57.7110   21.2370 C.3   258  HIS258      0.1656
    103  C         12.6710  -56.4150   22.0000 C.2   258  HIS258      0.2291
    104  O         11.8610  -56.1120   22.8730 O.2   258  HIS258     -0.2864
    105  CB        13.4950  -58.7600   21.7640 C.3   258  HIS258      0.0771
    106  CG        13.1430  -60.1420   21.3230 C.ar  258  HIS258      0.0820
    107  ND1       11.8480  -60.6350   21.4510 N.ar  258  HIS258     -0.2267
    108  CD2       13.9020  -61.0690   20.7070 C.ar  258  HIS258      0.1154
    109  CE1       11.8640  -61.8410   20.9140 C.ar  258  HIS258      0.1986
    110  NE2       13.0770  -62.1500   20.4520 N.ar  258  HIS258     -0.2212
    111  N         26.0530  -60.5910   21.6960 N.3   352  LYS352     -0.1245
    112  CA        26.3340  -62.0000   21.9760 C.3   352  LYS352      0.1561
    113  C         27.8340  -62.1330   22.3180 C.2   352  LYS352      0.2260
    114  O         28.6150  -61.2560   21.9300 O.2   352  LYS352     -0.2867
    115  CB        25.9540  -62.8840   20.7670 C.3   352  LYS352      0.0271
    116  CG        24.4550  -63.0690   20.5990 C.3   352  LYS352      0.0035
    117  CD        24.1370  -63.8070   19.3300 C.3   352  LYS352      0.0206
    118  CE        22.7240  -64.3140   19.3320 C.3   352  LYS352      0.1093
    119  NZ        22.5900  -65.5840   20.1060 N.3   352  LYS352     -0.1314
    120  N         25.1030  -62.7240   31.1910 N.3   357  ARG357     -0.1245
    121  CA        23.7580  -62.8790   30.6330 C.3   357  ARG357      0.1563
    122  C         22.9390  -61.7710   31.3240 C.2   357  ARG357      0.2260
    123  O         22.9700  -61.6700   32.5640 O.2   357  ARG357     -0.2867
    124  CB        23.1780  -64.2610   30.9600 C.3   357  ARG357      0.0307
    125  CG        22.0380  -64.6970   30.0440 C.3   357  ARG357      0.0489
    126  CD        20.8820  -65.2990   30.8320 C.3   357  ARG357      0.2205
    127  NE        19.7330  -65.6080   29.9740 N.pl3 357  ARG357     -0.0865
    128  CZ        18.5090  -65.8970   30.4170 C.cat 357  ARG357      0.5346
    129  NH1       18.2510  -65.9030   31.7220 N.pl3 357  ARG357      0.1354
    130  NH2       17.5320  -66.1720   29.5580 N.pl3 357  ARG357      0.1354
    131  N         15.7520  -60.5870   33.6230 N.3   386  GLN386     -0.1245
    132  CA        16.6090  -61.7760   33.7420 C.3   386  GLN386      0.1566
    133  C         18.0720  -61.3120   33.9750 C.2   386  GLN386      0.2260
    134  O         18.4380  -60.2490   33.4640 O.2   386  GLN386     -0.2867
    135  CB        16.4950  -62.7000   32.5190 C.3   386  GLN386      0.0367
    136  CG        17.3880  -62.3660   31.3300 C.3   386  GLN386      0.0905
    137  CD        16.7680  -62.7300   30.0040 C.2   386  GLN386      0.2608
    138  OE1       15.6720  -63.3150   29.9330 O.2   386  GLN386     -0.2717
    139  NE2       17.4680  -62.3850   28.9180 N.am  386  GLN386     -0.0878
@<TRIPOS>BOND
     1    12    13    2
     2    12    11    1
     3    18    17    1
     4    11    10    1
     5    11    14    1
     6    17    16    1
     7    15    14    1
     8    15    16    1
     9    78    79    1
    10    79    82    1
    11    79    80    1
    12    82    83    1
    13    84    83   ar
    14    83    85   ar
    15    99    98    2
    16    93    94    1
    17    80    86   am
    18    80    81    2
    19    97    98    1
    20    97    94    1
    21    98   100   am
    22    94    95    1
    23    86    87    1
    24    87    88    1
    25    87    90    1
    26    95    96    2
    27    95   101   am
    28    88    89    2
    29   117   118    1
    30   117   116    1
    31   118   119    1
    32   101   102    1
    33    90    92    1
    34    90    91    1
    35   110   108   ar
    36   110   109   ar
    37   116   115    1
    38   108   106   ar
    39   115   112    1
    40   109   107   ar
    41   102   105    1
    42   102   103    1
    43   106   107   ar
    44   106   105    1
    45   111   112    1
    46    19    20    1
    47   114   113    2
    48   112   113    1
    49   103   104    2
    50    25    27   ar
    51    25    24   ar
    52    68    67   ar
    53     1     2    1
    54     5     6    1
    55     5     2    1
    56    73    72    2
    57    20    23    1
    58    20    21    1
    59    23    24    1
    60    77    75    1
    61    27    28   ar
    62    72    71    1
    63    59    57   ar
    64    59    60   ar
    65    24    26   ar
    66     3     2    1
    67     3     4    2
    68     6     7    1
    69    57    55   ar
    70    60    58   ar
    71    29    21   am
    72    29    30    1
    73    67    69   ar
    74    67    66    1
    75    21    22    2
    76    55    54    1
    77    55    56   ar
    78    28    26   ar
    79    74    75    1
    80    74    71    1
    81    74    76    1
    82    58    56   ar
    83    71    70    1
    84    54    51    1
    85    35    37   ar
    86    35    34   ar
    87     7     8    1
    88    37    39   ar
    89    33    34    1
    90    33    30    1
    91    66    65    1
    92    34    36   ar
    93    65    62    1
    94    39    40    1
    95    39    38   ar
    96    36    38   ar
    97     8     9    1
    98    30    31    1
    99    53    52    2
   100    64    63    2
   101    31    32    2
   102    51    52    1
   103    51    50    1
   104    62    61    1
   105    62    63    1
   106    49    48    1
   107    47    46    1
   108    47    48    1
   109    46    45    1
   110   139   137   am
   111    41    42    1
   112   130   128    1
   113    45    42    1
   114   138   137    2
   115   127   128    2
   116   127   126    1
   117   137   136    1
   118   125   126    1
   119   125   124    1
   120    42    43    1
   121   128   129    1
   122   121   124    1
   123   121   120    1
   124   121   122    1
   125    44    43    2
   126   122   123    2
   127   136   135    1
   128   135   132    1
   129   134   133    2
   130   131   132    1
   131   132   133    1
