@<TRIPOS>MOLECULE
tmp/6d26A06.pdb
 100 95 0 0 0
SMALL
GASTEIGER

@<TRIPOS>ATOM
      1  N         16.9670   78.9540  296.7030 N.3    43  LEU43      -0.1231
      2  CA        16.9530   77.5770  297.1840 C.3    43  LEU43       0.1693
      3  C         17.7240   77.4210  298.4920 C.2    43  LEU43       0.2591
      4  O         17.3240   76.6570  299.3690 O.2    43  LEU43      -0.2718
      5  CB        17.5290   76.6350  296.1250 C.3    43  LEU43       0.0284
      6  CG        16.6400   76.3780  294.9080 C.3    43  LEU43       0.0019
      7  CD1       17.3520   75.4950  293.8960 C.3    43  LEU43       0.0001
      8  CD2       15.3220   75.7520  295.3380 C.3    43  LEU43       0.0001
      9  N         18.8280   78.1490  298.6180 N.am   44  VAL44      -0.1980
     10  CA        19.6610   78.0660  299.8130 C.3    44  VAL44       0.1595
     11  C         19.0540   78.8480  300.9780 C.2    44  VAL44       0.2287
     12  O         19.0130   78.3590  302.1080 O.2    44  VAL44      -0.2864
     13  CB        21.0860   78.5850  299.5380 C.3    44  VAL44       0.0276
     14  CG1       21.8970   78.6320  300.8240 C.3    44  VAL44       0.0022
     15  CG2       21.7720   77.7090  298.5020 C.3    44  VAL44       0.0022
     16  N         15.9750   77.3260  302.1170 N.3    47  GLY47      -0.1210
     17  CA        16.4090   76.0220  302.5800 C.3    47  GLY47       0.1956
     18  C         16.7940   76.0450  304.0460 C.2    47  GLY47       0.2611
     19  O         16.3380   75.2130  304.8280 O.2    47  GLY47      -0.2717
     20  N         17.6320   77.0080  304.4200 N.am   48  VAL48      -0.1979
     21  CA        18.0920   77.1170  305.7990 C.3    48  VAL48       0.1595
     22  C         17.0130   77.7180  306.6980 C.2    48  VAL48       0.2287
     23  O         16.9730   77.4350  307.8940 O.2    48  VAL48      -0.2864
     24  CB        19.3860   77.9620  305.9070 C.3    48  VAL48       0.0276
     25  CG1       20.5160   77.3030  305.1310 C.3    48  VAL48       0.0022
     26  CG2       19.1560   79.3820  305.4160 C.3    48  VAL48       0.0022
     27  N         13.7610   77.1050  306.4780 N.3    50  LEU50      -0.1231
     28  CA        12.9210   75.9660  306.8310 C.3    50  LEU50       0.1693
     29  C         13.5490   75.1530  307.9540 C.2    50  LEU50       0.2592
     30  O         12.8570   74.6900  308.8590 O.2    50  LEU50      -0.2718
     31  CB        12.6800   75.0730  305.6120 C.3    50  LEU50       0.0284
     32  CG        11.3260   75.2040  304.9100 C.3    50  LEU50       0.0019
     33  CD1       11.1270   76.6090  304.3680 C.3    50  LEU50       0.0001
     34  CD2       11.2030   74.1720  303.8000 C.3    50  LEU50       0.0001
     35  N         14.8660   74.9860  307.8900 N.am   51  PHE51      -0.1976
     36  CA        15.5910   74.2340  308.9050 C.3    51  PHE51       0.1639
     37  C         15.5780   74.9560  310.2480 C.2    51  PHE51       0.2290
     38  O         15.3270   74.3460  311.2870 O.2    51  PHE51      -0.2864
     39  CB        17.0340   73.9860  308.4600 C.3    51  PHE51       0.0560
     40  CG        17.8740   73.2850  309.4900 C.ar   51  PHE51      -0.0200
     41  CD1       17.8060   71.9100  309.6390 C.ar   51  PHE51      -0.0042
     42  CD2       18.7340   74.0010  310.3070 C.ar   51  PHE51      -0.0042
     43  CE1       18.5760   71.2620  310.5860 C.ar   51  PHE51      -0.0003
     44  CE2       19.5070   73.3590  311.2550 C.ar   51  PHE51      -0.0003
     45  CZ        19.4290   71.9880  311.3940 C.ar   51  PHE51      -0.0000
     46  N         11.8910   75.4020  311.4850 N.3    54  GLY54      -0.1210
     47  CA        11.2360   74.1120  311.6010 C.3    54  GLY54       0.1956
     48  C         11.8830   73.0910  312.5200 C.2    54  GLY54       0.2612
     49  O         11.2320   72.1260  312.9200 O.2    54  GLY54      -0.2717
     50  N         13.1530   73.2870  312.8620 N.am   55  CYS55      -0.1970
     51  CA        13.8690   72.2850  313.6520 C.3    55  CYS55       0.1712
     52  C         14.5960   72.8490  314.8720 C.2    55  CYS55       0.2296
     53  O         14.6290   72.2120  315.9250 O.2    55  CYS55      -0.2864
     54  CB        14.8680   71.5380  312.7650 C.3    55  CYS55       0.0983
     55  SG        14.1020   70.4870  311.5090 S.3    55  CYS55      -0.0798
     56  N          8.2560   75.5650  318.0900 N.3    59  GLN59      -0.1245
     57  CA         7.1090   75.6950  317.1950 C.3    59  GLN59       0.1566
     58  C          5.9320   76.4290  317.8290 C.2    59  GLN59       0.2260
     59  O          5.4010   76.0100  318.8570 O.2    59  GLN59      -0.2867
     60  CB         6.6550   74.3140  316.7180 C.3    59  GLN59       0.0367
     61  CG         7.7070   73.5590  315.9200 C.3    59  GLN59       0.0905
     62  CD         8.0700   74.2570  314.6240 C.2    59  GLN59       0.2608
     63  OE1        7.1960   74.6550  313.8510 O.2    59  GLN59      -0.2717
     64  NE2        9.3660   74.4120  314.3800 N.am   59  GLN59      -0.0878
     65  N          6.6960   79.2720  308.2690 N.3    67  LEU67      -0.1231
     66  CA         7.2200   78.0050  307.7680 C.3    67  LEU67       0.1693
     67  C          6.6490   77.6780  306.3900 C.2    67  LEU67       0.2592
     68  O          7.3890   77.3490  305.4620 O.2    67  LEU67      -0.2718
     69  CB         6.9070   76.8720  308.7480 C.3    67  LEU67       0.0284
     70  CG         7.7340   75.5930  308.6200 C.3    67  LEU67       0.0019
     71  CD1        9.1850   75.8540  308.9960 C.3    67  LEU67       0.0001
     72  CD2        7.1450   74.4820  309.4780 C.3    67  LEU67       0.0001
     73  N          5.3290   77.7710  306.2660 N.am   68  HIS68      -0.1976
     74  CA         4.6590   77.5450  304.9910 C.3    68  HIS68       0.1656
     75  C          4.9210   78.7000  304.0330 C.2    68  HIS68       0.2291
     76  O          4.9850   78.5080  302.8200 O.2    68  HIS68      -0.2864
     77  CB         3.1540   77.3580  305.1940 C.3    68  HIS68       0.0771
     78  CG         2.7860   76.0500  305.8200 C.ar   68  HIS68       0.0820
     79  ND1        2.4480   74.9380  305.0800 N.ar   68  HIS68      -0.2267
     80  CD2        2.7020   75.6730  307.1210 C.ar   68  HIS68       0.1154
     81  CE1        2.1710   73.9330  305.8930 C.ar   68  HIS68       0.1986
     82  NE2        2.3180   74.3560  307.1370 N.ar   68  HIS68      -0.2212
     83  N         10.1000   78.4090  298.4310 N.3    74  LEU74      -0.1245
     84  CA        11.0890   77.3870  298.1080 C.3    74  LEU74       0.1561
     85  C         10.7580   76.7540  296.7620 C.2    74  LEU74       0.2260
     86  O         11.6440   76.5170  295.9390 O.2    74  LEU74      -0.2867
     87  CB        11.1450   76.3160  299.1980 C.3    74  LEU74       0.0270
     88  CG        12.1990   75.2240  298.9950 C.3    74  LEU74       0.0019
     89  CD1       13.6000   75.7980  299.1410 C.3    74  LEU74       0.0001
     90  CD2       11.9840   74.0660  299.9570 C.3    74  LEU74       0.0001
     91  N         -1.7450   74.4490  311.6190 N.3   145  HIS145     -0.1241
     92  CA        -1.2050   73.5430  310.6140 C.3   145  HIS145      0.1621
     93  C         -2.3060   73.0700  309.6730 C.2   145  HIS145      0.2264
     94  O         -2.0940   72.9460  308.4660 O.2   145  HIS145     -0.2867
     95  CB        -0.5230   72.3430  311.2740 C.3   145  HIS145      0.0745
     96  CG         0.1660   71.4320  310.3050 C.ar  145  HIS145      0.0817
     97  ND1       -0.4860   70.4040  309.6580 N.ar  145  HIS145     -0.2268
     98  CD2        1.4480   71.3970  309.8730 C.ar  145  HIS145      0.1154
     99  CE1        0.3660   69.7740  308.8690 C.ar  145  HIS145      0.1986
    100  NE2        1.5460   70.3560  308.9800 N.ar  145  HIS145     -0.2212
@<TRIPOS>BOND
     1     7     6    1
     2     6     8    1
     3     6     5    1
     4    86    85    2
     5     5     2    1
     6     1     2    1
     7    85    84    1
     8     2     3    1
     9    84    83    1
    10    84    87    1
    11     3     9   am
    12     3     4    2
    13    15    13    1
    14     9    10    1
    15    88    89    1
    16    88    87    1
    17    88    90    1
    18    13    10    1
    19    13    14    1
    20    10    11    1
    21    11    12    2
    22    16    17    1
    23    17    18    1
    24    76    75    2
    25    34    32    1
    26    75    74    1
    27    18    20   am
    28    18    19    2
    29    33    32    1
    30    20    21    1
    31    32    31    1
    32    74    77    1
    33    74    73    1
    34    79    78   ar
    35    79    81   ar
    36    25    24    1
    37    77    78    1
    38    26    24    1
    39    68    67    2
    40    31    28    1
    41    21    24    1
    42    21    22    1
    43    78    80   ar
    44    81    82   ar
    45    73    67   am
    46    67    66    1
    47    27    28    1
    48    22    23    2
    49    28    29    1
    50    80    82   ar
    51    66    65    1
    52    66    69    1
    53    35    29   am
    54    35    36    1
    55    29    30    2
    56    39    36    1
    57    39    40    1
    58    94    93    2
    59    70    69    1
    60    70    71    1
    61    70    72    1
    62    99   100   ar
    63    99    97   ar
    64    36    37    1
    65   100    98   ar
    66    40    41   ar
    67    40    42   ar
    68    41    43   ar
    69    97    96   ar
    70    93    92    1
    71    98    96   ar
    72    37    38    2
    73    96    95    1
    74    42    44   ar
    75    43    45   ar
    76    92    95    1
    77    92    91    1
    78    44    45   ar
    79    46    47    1
    80    55    54    1
    81    47    48    1
    82    48    50   am
    83    48    49    2
    84    54    51    1
    85    50    51    1
    86    51    52    1
    87    63    62    2
    88    64    62   am
    89    62    61    1
    90    52    53    2
    91    61    60    1
    92    60    57    1
    93    57    58    1
    94    57    56    1
    95    58    59    2
