@<TRIPOS>MOLECULE
tmp/6d26A05.pdb
 107 101 0 0 0
SMALL
GASTEIGER

@<TRIPOS>ATOM
      1  N         -9.3120   91.8750  337.2420 N.3   244  GLU244     -0.1231
      2  CA       -10.3900   91.3270  336.4240 C.3   244  GLU244      0.1699
      3  C         -9.8280   90.4270  335.3230 C.2   244  GLU244      0.2592
      4  O         -8.6790   90.5850  334.9110 O.2   244  GLU244     -0.2718
      5  CB       -11.2320   92.4560  335.8250 C.3   244  GLU244      0.0402
      6  CG       -12.7360   92.2560  335.9710 C.3   244  GLU244      0.1161
      7  CD       -13.3490   91.5200  334.7960 C.2   244  GLU244      0.3649
      8  OE1      -12.8050   91.6280  333.6780 O.co2 244  GLU244     -0.2457
      9  OE2      -14.3770   90.8350  334.9890 O.co2 244  GLU244     -0.2457
     10  N        -10.6390   89.4820  334.8560 N.am  245  MET245     -0.1965
     11  CA       -10.1710   88.4850  333.8970 C.3   245  MET245      0.1736
     12  C        -11.2590   88.0510  332.9150 C.2   245  MET245      0.2616
     13  O        -12.4470   88.0820  333.2370 O.2   245  MET245     -0.2715
     14  CB        -9.6240   87.2640  334.6430 C.3   245  MET245      0.0427
     15  CG       -10.6280   86.6130  335.5850 C.3   245  MET245      0.0599
     16  SD        -9.8690   85.4840  336.7730 S.3   245  MET245     -0.1393
     17  CE        -8.8760   86.6210  337.7390 C.3   245  MET245      0.0692
     18  N        -10.8290   87.6510  331.7200 N.am  246  LEU246     -0.1963
     19  CA       -11.7160   87.1610  330.6630 C.3   246  LEU246      0.1728
     20  C        -12.8010   88.1640  330.2760 C.2   246  LEU246      0.2616
     21  O        -13.9910   87.8850  330.4180 O.2   246  LEU246     -0.2715
     22  CB       -12.3680   85.8380  331.0810 C.3   246  LEU246      0.0311
     23  CG       -11.4430   84.6310  331.2430 C.3   246  LEU246      0.0022
     24  CD1      -12.2420   83.3900  331.6020 C.3   246  LEU246      0.0001
     25  CD2      -10.6380   84.4010  329.9760 C.3   246  LEU246      0.0001
     26  N        -12.3870   89.3250  329.7790 N.am  247  ARG247     -0.1963
     27  CA       -13.3350   90.3370  329.3270 C.3   247  ARG247      0.1729
     28  C        -13.8910   89.9890  327.9510 C.2   247  ARG247      0.2616
     29  O        -13.2350   89.3120  327.1600 O.2   247  ARG247     -0.2715
     30  CB       -12.6790   91.7180  329.2840 C.3   247  ARG247      0.0348
     31  CG       -12.0700   92.1690  330.5960 C.3   247  ARG247      0.0492
     32  CD       -11.5020   93.5730  330.4730 C.3   247  ARG247      0.2205
     33  NE       -12.5050   94.5240  330.0020 N.pl3 247  ARG247     -0.0865
     34  CZ       -13.3310   95.1940  330.7990 C.cat 247  ARG247      0.5346
     35  NH1      -13.2760   95.0190  332.1120 N.pl3 247  ARG247      0.1354
     36  NH2      -14.2120   96.0390  330.2830 N.pl3 247  ARG247      0.1354
     37  N        -15.1050   90.4530  327.6730 N.am  248  ILE248     -0.1977
     38  CA       -15.7370   90.2260  326.3780 C.3   248  ILE248      0.1596
     39  C        -16.2630   91.5340  325.7920 C.2   248  ILE248      0.2287
     40  O        -16.2930   91.7160  324.5750 O.2   248  ILE248     -0.2864
     41  CB       -16.9050   89.2190  326.4790 C.3   248  ILE248      0.0276
     42  CG1      -16.5160   88.0120  327.3340 C.3   248  ILE248      0.0022
     43  CG2      -17.3440   88.7710  325.0930 C.3   248  ILE248      0.0022
     44  CD1      -17.6550   87.0470  327.5710 C.3   248  ILE248      0.0001
     45  N        -18.8480   83.0500  328.2450 N.3   267  VAL267     -0.1231
     46  CA       -18.4300   82.4830  329.5190 C.3   267  VAL267      0.1692
     47  C        -19.6190   81.9500  330.3110 C.2   267  VAL267      0.2592
     48  O        -19.5470   80.8760  330.9080 O.2   267  VAL267     -0.2718
     49  CB       -17.6790   83.5270  330.3730 C.3   267  VAL267      0.0266
     50  CG1      -17.2530   82.9260  331.7010 C.3   267  VAL267      0.0020
     51  CG2      -16.4720   84.0620  329.6180 C.3   267  VAL267      0.0020
     52  N        -20.7140   82.7040  330.3020 N.am  268  ASP268     -0.1974
     53  CA       -21.9090   82.3430  331.0590 C.3   268  ASP268      0.1709
     54  C        -22.4800   80.9970  330.6230 C.2   268  ASP268      0.2293
     55  O        -22.9730   80.2300  331.4490 O.2   268  ASP268     -0.2864
     56  CB       -22.9740   83.4300  330.9160 C.3   268  ASP268      0.1436
     57  CG       -22.4790   84.7900  331.3640 C.2   268  ASP268      0.3671
     58  OD1      -23.3140   85.6260  331.7680 O.co2 268  ASP268     -0.2456
     59  OD2      -21.2520   85.0220  331.3140 O.co2 268  ASP268     -0.2456
     60  N        -20.4790   78.2100  332.2260 N.3   271  VAL271     -0.1245
     61  CA       -20.7160   78.1150  333.6630 C.3   271  VAL271      0.1561
     62  C        -22.0000   77.3430  333.9680 C.2   271  VAL271      0.2260
     63  O        -22.0420   76.5420  334.9030 O.2   271  VAL271     -0.2867
     64  CB       -20.7900   79.5130  334.3130 C.3   271  VAL271      0.0252
     65  CG1      -21.1000   79.3990  335.7980 C.3   271  VAL271      0.0019
     66  CG2      -19.4850   80.2640  334.1030 C.3   271  VAL271      0.0019
     67  N        -16.3190   73.2200  341.0560 N.3   284  TYR284     -0.1241
     68  CA       -16.3640   74.6370  340.7140 C.3   284  TYR284      0.1605
     69  C        -16.5860   75.5110  341.9440 C.2   284  TYR284      0.2264
     70  O        -15.9290   76.5390  342.1100 O.2   284  TYR284     -0.2867
     71  CB       -17.4650   74.9010  339.6840 C.3   284  TYR284      0.0534
     72  CG       -17.5790   76.3490  339.2570 C.ar  284  TYR284     -0.0201
     73  CD1      -16.7520   76.8700  338.2710 C.ar  284  TYR284     -0.0009
     74  CD2      -18.5190   77.1930  339.8360 C.ar  284  TYR284     -0.0009
     75  CE1      -16.8520   78.1910  337.8770 C.ar  284  TYR284      0.0417
     76  CE2      -18.6270   78.5160  339.4490 C.ar  284  TYR284      0.0417
     77  CZ       -17.7920   79.0090  338.4690 C.ar  284  TYR284      0.1957
     78  OH       -17.8960   80.3250  338.0790 O.3   284  TYR284     -0.2866
     79  N        -12.1040   82.4540  342.6780 N.3   289  ALA289     -0.1245
     80  CA       -12.4440   83.1340  341.4280 C.3   289  ALA289      0.1562
     81  C        -11.3980   82.9400  340.3310 C.2   289  ALA289      0.2260
     82  O        -11.7440   82.7490  339.1650 O.2   289  ALA289     -0.2867
     83  CB       -12.6550   84.6170  341.6870 C.3   289  ALA289      0.0290
     84  N        -11.5940   79.3380  339.3110 N.3   292  ARG292     -0.1231
     85  CA       -12.8940   79.0720  338.7050 C.3   292  ARG292      0.1694
     86  C        -12.8740   79.4480  337.2290 C.2   292  ARG292      0.2591
     87  O        -13.4770   78.7700  336.3970 O.2   292  ARG292     -0.2718
     88  CB       -14.0050   79.8340  339.4320 C.3   292  ARG292      0.0321
     89  CG       -14.4290   79.2100  340.7530 C.3   292  ARG292      0.0489
     90  CD       -15.5980   79.9590  341.3740 C.3   292  ARG292      0.2205
     91  NE       -15.9970   79.3830  342.6550 N.pl3 292  ARG292     -0.0865
     92  CZ       -17.0320   79.8040  343.3760 C.cat 292  ARG292      0.5346
     93  NH1      -17.7800   80.8090  342.9420 N.pl3 292  ARG292      0.1354
     94  NH2      -17.3200   79.2190  344.5300 N.pl3 292  ARG292      0.1354
     95  N        -12.1680   80.5290  336.9110 N.am  293  ALA293     -0.1980
     96  CA       -12.0460   80.9910  335.5350 C.3   293  ALA293      0.1597
     97  C        -11.1790   80.0410  334.7160 C.2   293  ALA293      0.2287
     98  O        -11.3790   79.8860  333.5110 O.2   293  ALA293     -0.2864
     99  CB       -11.4730   82.3980  335.4960 C.3   293  ALA293      0.0319
    100  N        -13.2480   77.2480  333.4650 N.3   296  ILE296     -0.1245
    101  CA       -14.0730   77.6540  332.3320 C.3   296  ILE296      0.1561
    102  C        -13.2910   77.5300  331.0260 C.2   296  ILE296      0.2260
    103  O        -13.8560   77.2280  329.9750 O.2   296  ILE296     -0.2867
    104  CB       -14.5810   79.1000  332.5030 C.3   296  ILE296      0.0252
    105  CG1      -15.3150   79.2470  333.8380 C.3   296  ILE296      0.0019
    106  CG2      -15.4910   79.4960  331.3530 C.3   296  ILE296      0.0019
    107  CD1      -15.7190   80.6680  334.1680 C.3   296  ILE296      0.0001
@<TRIPOS>BOND
     1    40    39    2
     2    43    41    1
     3    39    38    1
     4    38    41    1
     5    38    37    1
     6    41    42    1
     7    29    28    2
     8    42    44    1
     9    37    28   am
    10    28    27    1
    11    45    46    1
    12    30    27    1
    13    30    31    1
    14    27    26    1
    15    46    47    1
    16    46    49    1
    17    51    49    1
    18    26    20   am
    19   103   102    2
    20    25    23    1
    21    33    32    1
    22    33    34    2
    23    20    21    2
    24    20    19    1
    25    36    34    1
    26    52    47   am
    27    52    53    1
    28    47    48    2
    29    49    50    1
    30    32    31    1
    31    54    53    1
    32    54    55    2
    33    19    22    1
    34    19    18    1
    35    34    35    1
    36    56    53    1
    37    56    57    1
    38   102   101    1
    39    22    23    1
    40    23    24    1
    41    59    57   ar
    42   106   104    1
    43    57    58   ar
    44    18    12   am
    45    60    61    1
    46   101   104    1
    47   101   100    1
    48   104   105    1
    49    12    13    2
    50    12    11    1
    51    98    97    2
    52    61    62    1
    53    61    64    1
    54     8     7   ar
    55   105   107    1
    56    11    14    1
    57    11    10    1
    58    62    63    2
    59    66    64    1
    60    64    65    1
    61    14    15    1
    62    97    96    1
    63     7     9   ar
    64     7     6    1
    65    10     3   am
    66     4     3    2
    67     3     2    1
    68    99    96    1
    69    96    95    1
    70    15    16    1
    71     5     6    1
    72     5     2    1
    73    87    86    2
    74     2     1    1
    75    16    17    1
    76    95    86   am
    77    86    85    1
    78    75    73   ar
    79    75    77   ar
    80    78    77    1
    81    73    72   ar
    82    77    76   ar
    83    85    84    1
    84    85    88    1
    85    82    81    2
    86    72    71    1
    87    72    74   ar
    88    88    89    1
    89    76    74   ar
    90    71    68    1
    91    81    80    1
    92    68    67    1
    93    68    69    1
    94    89    90    1
    95    90    91    1
    96    80    83    1
    97    80    79    1
    98    69    70    2
    99    91    92    2
   100    93    92    1
   101    92    94    1
