@<TRIPOS>MOLECULE
tmp/6d26A00.pdb
 229 225 0 0 0
SMALL
GASTEIGER

@<TRIPOS>ATOM
      1  N          2.3750   88.0590  268.7200 N.3    13  MET13      -0.1245
      2  CA         3.5620   87.7420  269.5010 C.3    13  MET13       0.1570
      3  C          4.4070   86.6580  268.8380 C.2    13  MET13       0.2261
      4  O          5.6030   86.5390  269.1050 O.2    13  MET13      -0.2867
      5  CB         3.1510   87.2970  270.9020 C.3    13  MET13       0.0387
      6  CG         4.2650   87.2850  271.9250 C.3    13  MET13       0.0595
      7  SD         3.6550   86.6500  273.4920 S.3    13  MET13      -0.1393
      8  CE         2.0850   87.5080  273.6050 C.3    13  MET13       0.0692
      9  N         13.4500   78.5420  284.3420 N.3    83  PHE83      -0.1241
     10  CA        13.2410   79.8270  283.6890 C.3    83  PHE83       0.1605
     11  C         14.5780   80.4100  283.2450 C.2    83  PHE83       0.2264
     12  O         14.6430   81.1760  282.2840 O.2    83  PHE83      -0.2867
     13  CB        12.5130   80.7990  284.6210 C.3    83  PHE83       0.0534
     14  CG        12.3120   82.1660  284.0330 C.ar   83  PHE83      -0.0203
     15  CD1       11.3210   82.3900  283.0920 C.ar   83  PHE83      -0.0042
     16  CD2       13.1100   83.2280  284.4240 C.ar   83  PHE83      -0.0042
     17  CE1       11.1330   83.6460  282.5490 C.ar   83  PHE83      -0.0003
     18  CE2       12.9250   84.4870  283.8850 C.ar   83  PHE83      -0.0003
     19  CZ        11.9360   84.6960  282.9460 C.ar   83  PHE83      -0.0000
     20  N         15.4090   78.6970  280.1000 N.3    86  PHE86      -0.1227
     21  CA        14.5720   79.3260  279.0860 C.3    86  PHE86       0.1736
     22  C         15.2580   80.5400  278.4680 C.2    86  PHE86       0.2595
     23  O         15.1830   80.7570  277.2590 O.2    86  PHE86      -0.2718
     24  CB        13.2280   79.7270  279.7000 C.3    86  PHE86       0.0547
     25  CG        12.3530   80.5360  278.7870 C.ar   86  PHE86      -0.0202
     26  CD1       11.5740   79.9180  277.8250 C.ar   86  PHE86      -0.0042
     27  CD2       12.2940   81.9160  278.9060 C.ar   86  PHE86      -0.0042
     28  CE1       10.7610   80.6610  276.9880 C.ar   86  PHE86      -0.0003
     29  CE2       11.4840   82.6630  278.0750 C.ar   86  PHE86      -0.0003
     30  CZ        10.7150   82.0350  277.1140 C.ar   86  PHE86      -0.0000
     31  N         15.9320   81.3230  279.3030 N.am   87  LEU87      -0.1980
     32  CA        16.6350   82.5120  278.8370 C.3    87  LEU87       0.1596
     33  C         17.9660   82.1530  278.1850 C.2    87  LEU87       0.2287
     34  O         18.3790   82.7850  277.2120 O.2    87  LEU87      -0.2864
     35  CB        16.8680   83.4850  279.9940 C.3    87  LEU87       0.0297
     36  CG        15.6140   83.9830  280.7140 C.3    87  LEU87       0.0022
     37  CD1       15.9720   84.9940  281.7950 C.3    87  LEU87       0.0001
     38  CD2       14.6290   84.5750  279.7180 C.3    87  LEU87       0.0001
     39  N         15.0330   82.5950  275.0290 N.3    91  HIS91      -0.1241
     40  CA        13.5910   82.7620  275.1890 C.3    91  HIS91       0.1621
     41  C         12.8130   81.7160  274.3950 C.2    91  HIS91       0.2264
     42  O         12.0010   82.0490  273.5330 O.2    91  HIS91      -0.2867
     43  CB        13.1610   84.1740  274.7800 C.3    91  HIS91       0.0745
     44  CG        13.6870   85.2470  275.6820 C.ar   91  HIS91       0.0817
     45  ND1       12.9010   85.8870  276.6150 N.ar   91  HIS91      -0.2268
     46  CD2       14.9240   85.7860  275.7990 C.ar   91  HIS91       0.1154
     47  CE1       13.6290   86.7780  277.2650 C.ar   91  HIS91       0.1986
     48  NE2       14.8600   86.7360  276.7890 N.ar   91  HIS91      -0.2212
     49  N          5.7050   73.9210  285.4680 N.3   103  HIS103     -0.1226
     50  CA         6.5930   75.0410  285.7620 C.3   103  HIS103      0.1752
     51  C          5.8280   76.3490  285.9310 C.2   103  HIS103      0.2596
     52  O          6.1640   77.1730  286.7820 O.2   103  HIS103     -0.2718
     53  CB         7.6400   75.1890  284.6560 C.3   103  HIS103      0.0759
     54  CG         8.3040   76.5280  284.6280 C.ar  103  HIS103      0.0818
     55  ND1        9.2420   76.9160  285.5580 N.ar  103  HIS103     -0.2268
     56  CD2        8.1630   77.5770  283.7780 C.ar  103  HIS103      0.1154
     57  CE1        9.6530   78.1420  285.2860 C.ar  103  HIS103      0.1986
     58  NE2        9.0110   78.5630  284.2080 N.ar  103  HIS103     -0.2212
     59  N          4.7950   76.5320  285.1180 N.am  104  SER104     -0.1952
     60  CA         3.9750   77.7330  285.1870 C.3   104  SER104      0.1924
     61  C          3.0720   77.7100  286.4150 C.2   104  SER104      0.2314
     62  O          2.8350   78.7440  287.0380 O.2   104  SER104     -0.2863
     63  CB         3.1330   77.8820  283.9180 C.3   104  SER104      0.2116
     64  OG         3.9570   77.9610  282.7680 O.3   104  SER104     -0.2180
     65  N          4.5210   79.0160  289.7200 N.3   107  PHE107     -0.1227
     66  CA         4.5010   80.4700  289.8390 C.3   107  PHE107      0.1736
     67  C          3.2030   80.9560  290.4730 C.2   107  PHE107      0.2595
     68  O          3.2190   81.7660  291.3980 O.2   107  PHE107     -0.2718
     69  CB         4.6870   81.1230  288.4660 C.3   107  PHE107      0.0547
     70  CG         4.4900   82.6160  288.4700 C.ar  107  PHE107     -0.0202
     71  CD1        3.2640   83.1710  288.1320 C.ar  107  PHE107     -0.0042
     72  CD2        5.5320   83.4630  288.8070 C.ar  107  PHE107     -0.0042
     73  CE1        3.0820   84.5420  288.1360 C.ar  107  PHE107     -0.0003
     74  CE2        5.3570   84.8350  288.8110 C.ar  107  PHE107     -0.0003
     75  CZ         4.1300   85.3750  288.4750 C.ar  107  PHE107     -0.0000
     76  N          2.0800   80.4580  289.9650 N.am  108  PHE108     -0.1976
     77  CA         0.7710   80.8840  290.4440 C.3   108  PHE108      0.1639
     78  C          0.4410   80.2490  291.7900 C.2   108  PHE108      0.2290
     79  O         -0.2580   80.8470  292.6090 O.2   108  PHE108     -0.2864
     80  CB        -0.3140   80.5470  289.4180 C.3   108  PHE108      0.0560
     81  CG        -0.1430   81.2510  288.1020 C.ar  108  PHE108     -0.0200
     82  CD1       -0.5050   82.5810  287.9580 C.ar  108  PHE108     -0.0042
     83  CD2        0.3790   80.5830  287.0070 C.ar  108  PHE108     -0.0042
     84  CE1       -0.3480   83.2300  286.7470 C.ar  108  PHE108     -0.0003
     85  CE2        0.5390   81.2270  285.7940 C.ar  108  PHE108     -0.0003
     86  CZ         0.1750   82.5520  285.6640 C.ar  108  PHE108     -0.0000
     87  N         -2.2630   76.5480  279.8720 N.3   166  ARG166     -0.1245
     88  CA        -0.8670   76.7000  279.4790 C.3   166  ARG166      0.1563
     89  C         -0.5600   75.7420  278.3360 C.2   166  ARG166      0.2260
     90  O         -0.9820   74.5870  278.3550 O.2   166  ARG166     -0.2867
     91  CB         0.0750   76.4470  280.6570 C.3   166  ARG166      0.0307
     92  CG         0.3430   77.6770  281.5090 C.3   166  ARG166      0.0489
     93  CD         1.1200   78.7300  280.7380 C.3   166  ARG166      0.2205
     94  NE         1.0380   80.0410  281.3740 N.pl3 166  ARG166     -0.0865
     95  CZ         2.0670   80.8680  281.5240 C.cat 166  ARG166      0.5346
     96  NH1        3.2700   80.5230  281.0850 N.pl3 166  ARG166      0.1354
     97  NH2        1.8930   82.0410  282.1150 N.pl3 166  ARG166      0.1354
     98  N          6.8590   79.6630  267.5540 N.3   171  ARG171     -0.1245
     99  CA         7.0840   80.9430  266.8930 C.3   171  ARG171      0.1563
    100  C          7.5600   80.7160  265.4650 C.2   171  ARG171      0.2260
    101  O          7.8440   79.5860  265.0710 O.2   171  ARG171     -0.2867
    102  CB         8.1090   81.7860  267.6590 C.3   171  ARG171      0.0307
    103  CG         7.5230   82.6850  268.7340 C.3   171  ARG171      0.0489
    104  CD         8.5020   83.7940  269.0910 C.3   171  ARG171      0.2205
    105  NE         7.9300   84.7850  269.9990 N.pl3 171  ARG171     -0.0865
    106  CZ         8.2480   84.8920  271.2850 C.cat 171  ARG171      0.5346
    107  NH1        7.6770   85.8240  272.0370 N.pl3 171  ARG171      0.1354
    108  NH2        9.1400   84.0690  271.8200 N.pl3 171  ARG171      0.1354
    109  N          7.0630   79.0600  272.4750 N.3   177  MET177     -0.1230
    110  CA         6.5470   79.8800  273.5640 C.3   177  MET177      0.1702
    111  C          5.8310   79.0420  274.6160 C.2   177  MET177      0.2592
    112  O          5.2100   78.0270  274.2990 O.2   177  MET177     -0.2718
    113  CB         5.5960   80.9560  273.0310 C.3   177  MET177      0.0401
    114  CG         6.2830   82.1110  272.3270 C.3   177  MET177      0.0596
    115  SD         5.1580   83.4850  272.0020 S.3   177  MET177     -0.1393
    116  CE         3.9530   82.7010  270.9340 C.3   177  MET177      0.0692
    117  N          5.9320   79.4760  275.8680 N.am  178  CYS178     -0.1956
    118  CA         5.1970   78.8640  276.9670 C.3   178  CYS178      0.1843
    119  C          4.3600   79.9290  277.6630 C.2   178  CYS178      0.2625
    120  O          4.8500   80.6360  278.5420 O.2   178  CYS178     -0.2714
    121  CB         6.1520   78.1980  277.9590 C.3   178  CYS178      0.0997
    122  SG         5.3540   77.5840  279.4580 S.3   178  CYS178     -0.0797
    123  N          3.0980   80.0450  277.2620 N.am  179  TYR179     -0.1960
    124  CA         2.2530   81.1350  277.7370 C.3   179  TYR179      0.1771
    125  C          0.7720   80.7530  277.7170 C.2   179  TYR179      0.2619
    126  O          0.4270   79.5860  277.5260 O.2   179  TYR179     -0.2715
    127  CB         2.4930   82.3850  276.8850 C.3   179  TYR179      0.0574
    128  CG         2.2610   83.6890  277.6130 C.ar  179  TYR179     -0.0198
    129  CD1        1.2550   84.5610  277.2160 C.ar  179  TYR179     -0.0009
    130  CD2        3.0480   84.0470  278.6980 C.ar  179  TYR179     -0.0009
    131  CE1        1.0430   85.7540  277.8790 C.ar  179  TYR179      0.0417
    132  CE2        2.8430   85.2360  279.3680 C.ar  179  TYR179      0.0417
    133  CZ         1.8390   86.0850  278.9550 C.ar  179  TYR179      0.1957
    134  OH         1.6290   87.2710  279.6200 O.3   179  TYR179     -0.2866
    135  N         -0.0950   81.7420  277.9170 N.am  180  TYR180     -0.1974
    136  CA        -1.5380   81.5220  277.9250 C.3   180  TYR180      0.1639
    137  C         -2.0790   81.0980  276.5660 C.2   180  TYR180      0.2290
    138  O         -1.9770   81.8430  275.5940 O.2   180  TYR180     -0.2864
    139  CB        -2.2790   82.7890  278.3630 C.3   180  TYR180      0.0560
    140  CG        -2.0270   83.2300  279.7850 C.ar  180  TYR180     -0.0198
    141  CD1       -2.5470   82.5190  280.8570 C.ar  180  TYR180     -0.0009
    142  CD2       -1.2970   84.3800  280.0520 C.ar  180  TYR180     -0.0009
    143  CE1       -2.3280   82.9290  282.1560 C.ar  180  TYR180      0.0417
    144  CE2       -1.0750   84.7970  281.3430 C.ar  180  TYR180      0.0417
    145  CZ        -1.5910   84.0710  282.3920 C.ar  180  TYR180      0.1957
    146  OH        -1.3650   84.4930  283.6810 O.3   180  TYR180     -0.2866
    147  N         -7.4390   86.8460  289.5020 N.3   206  LYS206     -0.1245
    148  CA        -6.0940   86.7320  290.0500 C.3   206  LYS206      0.1561
    149  C         -5.7410   87.9630  290.8760 C.2   206  LYS206      0.2260
    150  O         -5.1940   87.8530  291.9730 O.2   206  LYS206     -0.2867
    151  CB        -5.0740   86.5430  288.9260 C.3   206  LYS206      0.0271
    152  CG        -3.6300   86.5700  289.3720 C.3   206  LYS206      0.0035
    153  CD        -2.6880   86.3480  288.1970 C.3   206  LYS206      0.0206
    154  CE        -2.8270   87.4470  287.1570 C.3   206  LYS206      0.1093
    155  NZ        -1.8140   87.3080  286.0760 N.3   206  LYS206     -0.1314
    156  N          3.2090   93.6550  288.8030 N.3   382  TYR382     -0.1241
    157  CA         2.8180   92.4870  288.0200 C.3   382  TYR382      0.1605
    158  C          1.3380   92.5130  287.6580 C.2   382  TYR382      0.2264
    159  O          0.9760   92.4550  286.4820 O.2   382  TYR382     -0.2867
    160  CB         3.1340   91.1940  288.7750 C.3   382  TYR382      0.0534
    161  CG         2.5040   89.9710  288.1450 C.ar  382  TYR382     -0.0201
    162  CD1        3.0240   89.4200  286.9800 C.ar  382  TYR382     -0.0009
    163  CD2        1.3850   89.3710  288.7090 C.ar  382  TYR382     -0.0009
    164  CE1        2.4500   88.3060  286.3970 C.ar  382  TYR382      0.0417
    165  CE2        0.8040   88.2560  288.1330 C.ar  382  TYR382      0.0417
    166  CZ         1.3400   87.7280  286.9780 C.ar  382  TYR382      0.1957
    167  OH         0.7650   86.6180  286.4020 O.3   382  TYR382     -0.2866
    168  N         -0.4880   92.7590  284.0470 N.3   386  SER386     -0.1217
    169  CA        -1.2680   91.5770  283.6940 C.3   386  SER386      0.1889
    170  C         -2.7270   91.9340  283.4220 C.2   386  SER386      0.2288
    171  O         -3.3930   91.2900  282.6110 O.2   386  SER386     -0.2866
    172  CB        -1.1820   90.5260  284.8030 C.3   386  SER386      0.2089
    173  OG        -1.8750   89.3450  284.4380 O.3   386  SER386     -0.2183
    174  N         -2.6970   93.5590  279.8780 N.3   389  GLU389     -0.1245
    175  CA        -2.6010   92.6500  278.7400 C.3   389  GLU389      0.1567
    176  C         -3.9540   92.0010  278.4650 C.2   389  GLU389      0.2260
    177  O         -4.2180   91.5460  277.3520 O.2   389  GLU389     -0.2867
    178  CB        -1.5300   91.5800  278.9710 C.3   389  GLU389      0.0388
    179  CG        -1.9850   90.3820  279.7850 C.3   389  GLU389      0.1160
    180  CD        -1.0650   89.1870  279.6190 C.2   389  GLU389      0.3649
    181  OE1       -0.1800   89.2350  278.7380 O.co2 389  GLU389     -0.2457
    182  OE2       -1.2260   88.2000  280.3670 O.co2 389  GLU389     -0.2457
    183  N          4.9720   94.3000  276.8580 N.3   403  TRP403     -0.1241
    184  CA         6.2050   93.5210  276.7890 C.3   403  TRP403      0.1605
    185  C          7.4610   94.3610  276.9990 C.2   403  TRP403      0.2264
    186  O          8.5780   93.8790  276.8080 O.2   403  TRP403     -0.2867
    187  CB         6.2860   92.7820  275.4530 C.3   403  TRP403      0.0550
    188  CG         5.3350   91.6310  275.3820 C.ar  403  TRP403      0.0003
    189  CD1        4.2720   91.4920  274.5380 C.ar  403  TRP403      0.0946
    190  CD2        5.3470   90.4640  276.2110 C.ar  403  TRP403      0.0152
    191  NE1        3.6270   90.3020  274.7830 N.ar  403  TRP403     -0.2442
    192  CE2        4.2680   89.6530  275.8070 C.ar  403  TRP403      0.0810
    193  CE3        6.1690   90.0210  277.2530 C.ar  403  TRP403      0.0012
    194  CZ2        3.9900   88.4280  276.4090 C.ar  403  TRP403      0.0191
    195  CZ3        5.8920   88.8050  277.8470 C.ar  403  TRP403      0.0001
    196  CH2        4.8120   88.0220  277.4240 C.ar  403  TRP403      0.0015
    197  N          6.3180   93.7890  281.3610 N.3   406  LEU406     -0.1231
    198  CA         5.8600   92.4880  281.8530 C.3   406  LEU406      0.1678
    199  C          6.9850   91.4760  282.1230 C.2   406  LEU406      0.2434
    200  O          6.9380   90.7760  283.1330 O.2   406  LEU406     -0.2733
    201  CB         4.8490   91.8730  280.8790 C.3   406  LEU406      0.0284
    202  CG         4.1570   90.5990  281.3690 C.3   406  LEU406      0.0019
    203  CD1        3.3520   90.8810  282.6250 C.3   406  LEU406      0.0001
    204  CD2        3.2680   90.0160  280.2850 C.3   406  LEU406      0.0001
    205  N          7.9920   91.3790  281.2310 N.am  407  PRO407     -0.2729
    206  CA         9.0860   90.4650  281.5840 C.3   407  PRO407      0.1401
    207  C          9.8680   90.9230  282.8120 C.2   407  PRO407      0.2269
    208  O         10.4640   90.0980  283.5040 O.2   407  PRO407     -0.2865
    209  CB         9.9780   90.4820  280.3350 C.3   407  PRO407      0.0296
    210  CG         9.6320   91.7490  279.6330 C.3   407  PRO407      0.0237
    211  CD         8.1700   91.9320  279.8750 C.3   407  PRO407      0.0939
    212  N          7.4640   90.5350  286.1500 N.3   410  THR410     -0.1218
    213  CA         7.2580   89.1210  286.4430 C.3   410  THR410      0.1862
    214  C          8.4560   88.5790  287.2100 C.2   410  THR410      0.2287
    215  O          8.3040   87.8410  288.1830 O.2   410  THR410     -0.2866
    216  CB         7.0510   88.2910  285.1630 C.3   410  THR410      0.1770
    217  OG1        5.8160   88.6670  284.5420 O.3   410  THR410     -0.2211
    218  CG2        7.0130   86.8080  285.4930 C.3   410  THR410      0.0375
    219  N          9.3050   87.1580  291.0680 N.3   414  PHE414     -0.1241
    220  CA        10.1820   86.0160  291.2890 C.3   414  PHE414      0.1605
    221  C         11.1840   86.2970  292.4030 C.2   414  PHE414      0.2264
    222  O         11.5290   85.4070  293.1790 O.2   414  PHE414     -0.2867
    223  CB        10.9250   85.6580  290.0000 C.3   414  PHE414      0.0534
    224  CG        10.1700   84.7240  289.1000 C.ar  414  PHE414     -0.0203
    225  CD1        9.5460   83.5980  289.6120 C.ar  414  PHE414     -0.0042
    226  CD2       10.0870   84.9700  287.7380 C.ar  414  PHE414     -0.0042
    227  CE1        8.8550   82.7350  288.7820 C.ar  414  PHE414     -0.0003
    228  CE2        9.3960   84.1120  286.9040 C.ar  414  PHE414     -0.0003
    229  CZ         8.7790   82.9930  287.4260 C.ar  414  PHE414     -0.0000
@<TRIPOS>BOND
     1   101   100    2
     2   100    99    1
     3    99    98    1
     4    99   102    1
     5   102   103    1
     6     1     2    1
     7   103   104    1
     8     3     4    2
     9     3     2    1
    10   104   105    1
    11     2     5    1
    12   105   106    2
    13     5     6    1
    14   116   115    1
    15   106   108    1
    16   106   107    1
    17     6     7    1
    18   115   114    1
    19   114   113    1
    20   109   110    1
    21   113   110    1
    22     7     8    1
    23    42    41    2
    24   110   111    1
    25   112   111    2
    26    41    40    1
    27   189   191   ar
    28   189   188   ar
    29   111   117   am
    30    43    40    1
    31    43    44    1
    32   191   192   ar
    33    39    40    1
    34   188   187    1
    35   188   190   ar
    36   187   184    1
    37   138   137    2
    38    44    46   ar
    39    44    45   ar
    40    46    48   ar
    41   192   190   ar
    42   192   194   ar
    43   117   118    1
    44   190   193   ar
    45   194   196   ar
    46   137   136    1
    47    45    47   ar
    48    48    47   ar
    49   184   183    1
    50   184   185    1
    51   186   185    2
    52   127   128    1
    53   127   124    1
    54   118   119    1
    55   118   121    1
    56    28    30   ar
    57    28    26   ar
    58    30    29   ar
    59    34    33    2
    60   129   128   ar
    61   129   131   ar
    62   193   195   ar
    63    23    22    2
    64   123   119   am
    65   123   124    1
    66   177   176    2
    67   196   195   ar
    68   126   125    2
    69   128   130   ar
    70   119   120    2
    71   125   124    1
    72   125   135   am
    73    26    25   ar
    74   131   133   ar
    75   135   136    1
    76   136   139    1
    77   121   122    1
    78    29    27   ar
    79    33    32    1
    80    89    90    2
    81    89    88    1
    82   139   140    1
    83   176   175    1
    84    22    21    1
    85    22    31   am
    86   130   132   ar
    87   181   180   ar
    88   175   178    1
    89   175   174    1
    90    25    27   ar
    91    25    24    1
    92    32    31    1
    93    32    35    1
    94   133   132   ar
    95   133   134    1
    96   178   179    1
    97    21    24    1
    98    21    20    1
    99    88    87    1
   100    88    91    1
   101   180   179    1
   102   180   182   ar
   103   210   211    1
   104   210   209    1
   105    38    36    1
   106   140   142   ar
   107   140   141   ar
   108   211   205    1
   109    35    36    1
   110   142   144   ar
   111   204   202    1
   112   209   206    1
   113    91    92    1
   114    36    37    1
   115    93    94    1
   116    93    92    1
   117   141   143   ar
   118   201   202    1
   119   201   198    1
   120    96    95    1
   121   205   206    1
   122   205   199   am
   123   144   145   ar
   124   197   198    1
   125   202   203    1
   126    94    95    2
   127    95    97    1
   128   206   207    1
   129   198   199    1
   130   199   200    2
   131   143   145   ar
   132    12    11    2
   133   145   146    1
   134    17    19   ar
   135    17    15   ar
   136   171   170    2
   137    64    63    1
   138   207   208    2
   139    19    18   ar
   140    15    14   ar
   141    11    10    1
   142   170   169    1
   143    10     9    1
   144    10    13    1
   145   169   168    1
   146   169   172    1
   147    56    58   ar
   148    56    54   ar
   149    18    16   ar
   150    63    60    1
   151    14    16   ar
   152    14    13    1
   153    58    57   ar
   154   173   172    1
   155   217   216    1
   156    54    53    1
   157    54    55   ar
   158    53    50    1
   159    59    60    1
   160    59    51   am
   161   216   218    1
   162   216   213    1
   163    60    61    1
   164    57    55   ar
   165    49    50    1
   166    86    85   ar
   167    86    84   ar
   168    50    51    1
   169    85    83   ar
   170    51    52    2
   171   155   154    1
   172   212   213    1
   173   164   166   ar
   174   164   162   ar
   175   167   166    1
   176    61    62    2
   177   213   214    1
   178   159   158    2
   179    84    82   ar
   180   228   229   ar
   181   228   226   ar
   182   166   165   ar
   183   162   161   ar
   184    83    81   ar
   185   154   153    1
   186   214   215    2
   187   229   227   ar
   188   158   157    1
   189   226   224   ar
   190    82    81   ar
   191   157   160    1
   192   157   156    1
   193    81    80    1
   194    71    73   ar
   195    71    70   ar
   196   165   163   ar
   197    73    75   ar
   198   161   163   ar
   199   161   160    1
   200   153   152    1
   201    69    70    1
   202    69    66    1
   203    70    72   ar
   204    75    74   ar
   205   227   225   ar
   206    72    74   ar
   207   151   152    1
   208   151   148    1
   209   224   225   ar
   210   224   223    1
   211    80    77    1
   212   147   148    1
   213    65    66    1
   214    66    67    1
   215    76    77    1
   216    76    67   am
   217   223   220    1
   218   148   149    1
   219    77    78    1
   220    67    68    2
   221   149   150    2
   222   219   220    1
   223   220   221    1
   224    78    79    2
   225   221   222    2
