@<TRIPOS>MOLECULE
tmp/6d26A01.pdb
 83 76 0 0 0
SMALL
GASTEIGER

@<TRIPOS>ATOM
      1  N         -2.8350   83.9810  300.3570 N.3   116  PHE116     -0.1241
      2  CA        -3.7480   83.3710  301.3150 C.3   116  PHE116      0.1605
      3  C         -3.1230   83.2960  302.7040 C.2   116  PHE116      0.2264
      4  O         -3.8060   83.4830  303.7120 O.2   116  PHE116     -0.2867
      5  CB        -4.1630   81.9740  300.8500 C.3   116  PHE116      0.0534
      6  CG        -4.9530   81.9680  299.5690 C.ar  116  PHE116     -0.0203
      7  CD1       -5.6140   83.1070  299.1380 C.ar  116  PHE116     -0.0042
      8  CD2       -5.0340   80.8200  298.7980 C.ar  116  PHE116     -0.0042
      9  CE1       -6.3400   83.1010  297.9610 C.ar  116  PHE116     -0.0003
     10  CE2       -5.7580   80.8080  297.6220 C.ar  116  PHE116     -0.0003
     11  CZ        -6.4120   81.9500  297.2030 C.ar  116  PHE116     -0.0000
     12  N         -3.0050   86.6110  304.3370 N.3   119  SER119     -0.1202
     13  CA        -4.3600   86.8910  304.7920 C.3   119  SER119      0.2020
     14  C         -4.6250   86.1690  306.1070 C.2   119  SER119      0.2618
     15  O         -5.1980   86.7390  307.0350 O.2   119  SER119     -0.2717
     16  CB        -5.3860   86.4700  303.7390 C.3   119  SER119      0.2103
     17  OG        -5.2320   87.2210  302.5490 O.3   119  SER119     -0.2182
     18  N         -4.1960   84.9120  306.1760 N.am  120  ALA120     -0.1979
     19  CA        -4.3630   84.1030  307.3770 C.3   120  ALA120      0.1597
     20  C         -3.6040   84.7080  308.5540 C.2   120  ALA120      0.2287
     21  O         -4.1040   84.7330  309.6770 O.2   120  ALA120     -0.2864
     22  CB        -3.8990   82.6780  307.1230 C.3   120  ALA120      0.0319
     23  N         -5.4860   87.7620  309.8090 N.3   123  LEU123     -0.1245
     24  CA        -6.7070   87.3530  310.4900 C.3   123  LEU123      0.1561
     25  C         -6.4020   86.6820  311.8270 C.2   123  LEU123      0.2260
     26  O         -7.1400   86.8550  312.7980 O.2   123  LEU123     -0.2867
     27  CB        -7.5270   86.4150  309.6030 C.3   123  LEU123      0.0270
     28  CG        -8.2150   87.0650  308.4000 C.3   123  LEU123      0.0019
     29  CD1       -8.9890   86.0330  307.5990 C.3   123  LEU123      0.0001
     30  CD2       -9.1330   88.1940  308.8450 C.3   123  LEU123      0.0001
     31  N         -5.0440   74.7160  309.0320 N.3   147  VAL147     -0.1245
     32  CA        -5.4620   75.8730  308.2490 C.3   147  VAL147      0.1561
     33  C         -4.6010   76.0010  306.9980 C.2   147  VAL147      0.2260
     34  O         -5.1120   76.2300  305.9010 O.2   147  VAL147     -0.2867
     35  CB        -5.3790   77.1770  309.0670 C.3   147  VAL147      0.0252
     36  CG1       -5.5370   78.3890  308.1600 C.3   147  VAL147      0.0019
     37  CG2       -6.4320   77.1840  310.1630 C.3   147  VAL147      0.0019
     38  N         -5.4040   76.0360  303.0280 N.3   151  LEU151     -0.1245
     39  CA        -4.9350   77.1270  302.1830 C.3   151  LEU151      0.1561
     40  C         -4.1910   76.6060  300.9550 C.2   151  LEU151      0.2260
     41  O         -4.3610   77.1270  299.8530 O.2   151  LEU151     -0.2867
     42  CB        -4.0400   78.0770  302.9780 C.3   151  LEU151      0.0270
     43  CG        -4.7560   78.9170  304.0360 C.3   151  LEU151      0.0019
     44  CD1       -3.8250   79.9690  304.6080 C.3   151  LEU151      0.0001
     45  CD2       -5.9960   79.5610  303.4440 C.3   151  LEU151      0.0001
     46  N         -6.7520   75.1640  298.6200 N.3   154  LEU154     -0.1245
     47  CA        -7.4490   76.2240  297.9020 C.3   154  LEU154      0.1561
     48  C         -6.5260   76.8880  296.8890 C.2   154  LEU154      0.2260
     49  O         -6.9800   77.4140  295.8730 O.2   154  LEU154     -0.2867
     50  CB        -8.0020   77.2640  298.8770 C.3   154  LEU154      0.0270
     51  CG        -9.2040   76.8110  299.7060 C.3   154  LEU154      0.0019
     52  CD1       -9.6630   77.9210  300.6380 C.3   154  LEU154      0.0001
     53  CD2      -10.3390   76.3630  298.7970 C.3   154  LEU154      0.0001
     54  N         -8.2350   87.7550  294.2220 N.3   209  LEU209     -0.1245
     55  CA        -7.9970   86.6630  295.1610 C.3   209  LEU209      0.1561
     56  C         -6.5770   86.6230  295.7230 C.2   209  LEU209      0.2260
     57  O         -6.3550   86.1050  296.8190 O.2   209  LEU209     -0.2867
     58  CB        -8.3070   85.3220  294.4920 C.3   209  LEU209      0.0270
     59  CG        -9.7410   85.0930  294.0120 C.3   209  LEU209      0.0019
     60  CD1       -9.8750   83.7200  293.3690 C.3   209  LEU209      0.0001
     61  CD2      -10.7260   85.2510  295.1590 C.3   209  LEU209      0.0001
     62  N         -7.8470   91.5920  297.5880 N.3   213  VAL213     -0.1231
     63  CA        -8.5490   91.0620  298.7560 C.3   213  VAL213      0.1678
     64  C         -7.6050   90.8060  299.9440 C.2   213  VAL213      0.2434
     65  O         -7.9430   91.1670  301.0720 O.2   213  VAL213     -0.2733
     66  CB        -9.3250   89.7640  298.4120 C.3   213  VAL213      0.0265
     67  CG1       -9.7670   89.0410  299.6760 C.3   213  VAL213      0.0020
     68  CG2      -10.5160   90.0810  297.5190 C.3   213  VAL213      0.0020
     69  N         -6.4260   90.1870  299.7080 N.am  214  PRO214     -0.2729
     70  CA        -5.4850   90.0910  300.8310 C.3   214  PRO214      0.1401
     71  C         -5.1060   91.4460  301.4240 C.2   214  PRO214      0.2269
     72  O         -5.2400   91.6330  302.6340 O.2   214  PRO214     -0.2865
     73  CB        -4.2620   89.4200  300.2040 C.3   214  PRO214      0.0296
     74  CG        -4.8220   88.5910  299.1180 C.3   214  PRO214      0.0237
     75  CD        -5.9590   89.3950  298.5530 C.3   214  PRO214      0.0939
     76  N         -7.8660   92.7560  303.4520 N.3   217  ILE217     -0.1245
     77  CA        -7.9210   92.0780  304.7430 C.3   217  ILE217      0.1561
     78  C         -6.8050   92.5610  305.6620 C.2   217  ILE217      0.2260
     79  O         -7.0380   92.8590  306.8350 O.2   217  ILE217     -0.2867
     80  CB        -7.8170   90.5480  304.5790 C.3   217  ILE217      0.0252
     81  CG1       -9.0620   90.0020  303.8780 C.3   217  ILE217      0.0019
     82  CG2       -7.6330   89.8730  305.9280 C.3   217  ILE217      0.0019
     83  CD1       -9.0270   88.5050  303.6540 C.3   217  ILE217      0.0001
@<TRIPOS>BOND
     1    60    59    1
     2    59    58    1
     3    59    61    1
     4    54    55    1
     5    58    55    1
     6    55    56    1
     7    56    57    2
     8    49    48    2
     9    48    47    1
    10    11    10   ar
    11    11     9   ar
    12    68    66    1
    13    62    63    1
    14    10     8   ar
    15    47    46    1
    16    47    50    1
    17     9     7   ar
    18    66    63    1
    19    66    67    1
    20    75    74    1
    21    75    69    1
    22    63    64    1
    23    53    51    1
    24     8     6   ar
    25    50    51    1
    26    74    73    1
    27     7     6   ar
    28     6     5    1
    29    51    52    1
    30    69    64   am
    31    69    70    1
    32    41    40    2
    33    64    65    2
    34    73    70    1
    35     1     2    1
    36    70    71    1
    37     5     2    1
    38    40    39    1
    39     2     3    1
    40    71    72    2
    41    39    42    1
    42    39    38    1
    43    17    16    1
    44     3     4    2
    45    42    43    1
    46    45    43    1
    47    76    77    1
    48    83    81    1
    49    16    13    1
    50    81    80    1
    51    43    44    1
    52    12    13    1
    53    80    77    1
    54    80    82    1
    55    77    78    1
    56    13    14    1
    57    78    79    2
    58    34    33    2
    59    14    18   am
    60    14    15    2
    61    18    19    1
    62    33    32    1
    63    22    19    1
    64    19    20    1
    65    29    28    1
    66    36    35    1
    67    32    31    1
    68    32    35    1
    69    28    30    1
    70    28    27    1
    71    20    21    2
    72    35    37    1
    73    27    24    1
    74    23    24    1
    75    24    25    1
    76    25    26    2
