@<TRIPOS>MOLECULE
tmp/6d27A00.pdb
 217 214 0 0 0
SMALL
GASTEIGER

@<TRIPOS>ATOM
      1  N         49.3740  -58.0060  274.9940 N.3    13  MET13      -0.1245
      2  CA        48.1800  -57.5560  275.7020 C.3    13  MET13       0.1570
      3  C         47.4820  -56.4380  274.9370 C.2    13  MET13       0.2261
      4  O         46.2730  -56.2510  275.0600 O.2    13  MET13      -0.2867
      5  CB        48.5320  -57.0840  277.1140 C.3    13  MET13       0.0387
      6  CG        48.7560  -58.2080  278.1090 C.3    13  MET13       0.0595
      7  SD        49.2790  -57.5940  279.7200 S.3    13  MET13      -0.1393
      8  CE        48.0630  -56.3090  280.0010 C.3    13  MET13       0.0692
      9  N         38.1320  -48.1100  290.5760 N.3    79  PHE79      -0.1241
     10  CA        38.3770  -49.3560  289.8600 C.3    79  PHE79       0.1605
     11  C         37.0560  -49.9640  289.4030 C.2    79  PHE79       0.2264
     12  O         37.0070  -50.7020  288.4190 O.2    79  PHE79      -0.2867
     13  CB        39.1480  -50.3480  290.7360 C.3    79  PHE79       0.0534
     14  CG        39.4470  -51.6570  290.0550 C.ar   79  PHE79      -0.0203
     15  CD1       40.5020  -51.7640  289.1640 C.ar   79  PHE79      -0.0042
     16  CD2       38.6760  -52.7800  290.3110 C.ar   79  PHE79      -0.0042
     17  CE1       40.7810  -52.9630  288.5380 C.ar   79  PHE79      -0.0003
     18  CE2       38.9510  -53.9830  289.6880 C.ar   79  PHE79      -0.0003
     19  CZ        40.0050  -54.0730  288.8010 C.ar   79  PHE79      -0.0000
     20  N         36.2190  -48.3750  286.2200 N.3    82  PHE82      -0.1241
     21  CA        37.0700  -48.9820  285.1980 C.3    82  PHE82       0.1605
     22  C         36.4090  -50.1990  284.5550 C.2    82  PHE82       0.2264
     23  O         36.4600  -50.3730  283.3390 O.2    82  PHE82      -0.2867
     24  CB        38.4200  -49.3730  285.8080 C.3    82  PHE82       0.0534
     25  CG        39.2830  -50.2140  284.9060 C.ar   82  PHE82      -0.0203
     26  CD1       40.0320  -49.6290  283.9000 C.ar   82  PHE82      -0.0042
     27  CD2       39.3630  -51.5880  285.0820 C.ar   82  PHE82      -0.0042
     28  CE1       40.8320  -50.3970  283.0770 C.ar   82  PHE82      -0.0003
     29  CE2       40.1600  -52.3610  284.2610 C.ar   82  PHE82      -0.0003
     30  CZ        40.8950  -51.7650  283.2580 C.ar   82  PHE82      -0.0000
     31  N         36.4850  -52.4710  281.0830 N.3    87  HIS87      -0.1241
     32  CA        37.9360  -52.5120  281.2720 C.3    87  HIS87       0.1621
     33  C         38.6640  -51.4540  280.4460 C.2    87  HIS87       0.2264
     34  O         39.3150  -51.7730  279.4510 O.2    87  HIS87      -0.2867
     35  CB        38.4840  -53.9020  280.9310 C.3    87  HIS87       0.0745
     36  CG        38.0240  -54.9800  281.8620 C.ar   87  HIS87       0.0817
     37  ND1       36.7270  -55.4490  281.8770 N.ar   87  HIS87      -0.2268
     38  CD2       38.6890  -55.6810  282.8110 C.ar   87  HIS87       0.1154
     39  CE1       36.6140  -56.3930  282.7950 C.ar   87  HIS87       0.1986
     40  NE2       37.7900  -56.5530  283.3760 N.ar   87  HIS87      -0.2212
     41  N         46.2520  -43.4260  291.4290 N.3    99  HIS99      -0.1226
     42  CA        45.3620  -44.5280  291.7730 C.3    99  HIS99       0.1752
     43  C         46.1330  -45.8230  292.0000 C.2    99  HIS99       0.2596
     44  O         45.8200  -46.5950  292.9070 O.2    99  HIS99      -0.2718
     45  CB        44.3150  -44.7340  290.6780 C.3    99  HIS99       0.0759
     46  CG        43.5610  -46.0210  290.8020 C.ar   99  HIS99       0.0818
     47  ND1       42.5120  -46.1870  291.6800 N.ar   99  HIS99      -0.2268
     48  CD2       43.7110  -47.2060  290.1640 C.ar   99  HIS99       0.1154
     49  CE1       42.0440  -47.4190  291.5740 C.ar   99  HIS99       0.1986
     50  NE2       42.7540  -48.0570  290.6620 N.ar   99  HIS99      -0.2212
     51  N         47.1450  -46.0540  291.1710 N.am  100  SER100     -0.1952
     52  CA        47.9530  -47.2620  291.2760 C.3   100  SER100      0.1924
     53  C         48.8570  -47.2160  292.5060 C.2   100  SER100      0.2314
     54  O         49.1100  -48.2410  293.1380 O.2   100  SER100     -0.2863
     55  CB        48.7940  -47.4560  290.0100 C.3   100  SER100      0.2116
     56  OG        47.9750  -47.6260  288.8660 O.3   100  SER100     -0.2180
     57  N         47.4320  -48.5720  295.9440 N.3   103  PHE103     -0.1227
     58  CA        47.4900  -50.0220  296.1000 C.3   103  PHE103      0.1736
     59  C         48.8370  -50.4690  296.6630 C.2   103  PHE103      0.2595
     60  O         48.8980  -51.3180  297.5540 O.2   103  PHE103     -0.2718
     61  CB        47.2220  -50.7040  294.7550 C.3   103  PHE103      0.0547
     62  CG        47.4800  -52.1860  294.7550 C.ar  103  PHE103     -0.0202
     63  CD1       46.5190  -53.0700  295.2160 C.ar  103  PHE103     -0.0042
     64  CD2       48.6780  -52.6980  294.2760 C.ar  103  PHE103     -0.0042
     65  CE1       46.7490  -54.4360  295.2120 C.ar  103  PHE103     -0.0003
     66  CE2       48.9160  -54.0640  294.2710 C.ar  103  PHE103     -0.0003
     67  CZ        47.9480  -54.9330  294.7390 C.ar  103  PHE103     -0.0000
     68  N         49.9140  -49.8920  296.1390 N.am  104  PHE104     -0.1976
     69  CA        51.2590  -50.2430  296.5780 C.3   104  PHE104      0.1639
     70  C         51.6110  -49.5840  297.9080 C.2   104  PHE104      0.2290
     71  O         52.4130  -50.1150  298.6760 O.2   104  PHE104     -0.2864
     72  CB        52.2880  -49.8550  295.5150 C.3   104  PHE104      0.0560
     73  CG        52.1680  -50.6380  294.2420 C.ar  104  PHE104     -0.0200
     74  CD1       52.6530  -51.9330  294.1600 C.ar  104  PHE104     -0.0042
     75  CD2       51.5750  -50.0760  293.1240 C.ar  104  PHE104     -0.0042
     76  CE1       52.5440  -52.6540  292.9850 C.ar  104  PHE104     -0.0003
     77  CE2       51.4630  -50.7910  291.9490 C.ar  104  PHE104     -0.0003
     78  CZ        51.9470  -52.0810  291.8780 C.ar  104  PHE104     -0.0000
     79  N         54.3410  -46.1030  285.7750 N.3   162  ARG162     -0.1245
     80  CA        52.9530  -46.2910  285.3610 C.3   162  ARG162      0.1563
     81  C         52.6440  -45.3890  284.1740 C.2   162  ARG162      0.2260
     82  O         53.1120  -44.2520  284.1120 O.2   162  ARG162     -0.2867
     83  CB        51.9850  -46.0060  286.5120 C.3   162  ARG162      0.0307
     84  CG        51.6100  -47.2360  287.3270 C.3   162  ARG162      0.0489
     85  CD        50.9100  -48.2800  286.4700 C.3   162  ARG162      0.2205
     86  NE        50.9190  -49.5990  287.1000 N.pl3 162  ARG162     -0.0865
     87  CZ        49.8380  -50.2240  287.5560 C.cat 162  ARG162      0.5346
     88  NH1       48.6430  -49.6590  287.4460 N.pl3 162  ARG162      0.1354
     89  NH2       49.9510  -51.4210  288.1150 N.pl3 162  ARG162      0.1354
     90  N         44.6870  -49.0280  278.6130 N.3   173  MET173     -0.1230
     91  CA        45.2100  -49.7700  279.7530 C.3   173  MET173      0.1702
     92  C         45.9920  -48.8780  280.7110 C.2   173  MET173      0.2592
     93  O         46.6510  -47.9290  280.2900 O.2   173  MET173     -0.2718
     94  CB        46.1030  -50.9200  279.2810 C.3   173  MET173      0.0401
     95  CG        45.3580  -52.0580  278.6080 C.3   173  MET173      0.0596
     96  SD        46.4200  -53.4870  278.3170 S.3   173  MET173     -0.1393
     97  CE        47.6970  -52.7560  277.2970 C.3   173  MET173      0.0692
     98  N         45.9100  -49.1920  282.0000 N.am  174  CYS174     -0.1956
     99  CA        46.7030  -48.5150  283.0190 C.3   174  CYS174      0.1843
    100  C         47.5990  -49.5250  283.7220 C.2   174  CYS174      0.2625
    101  O         47.1800  -50.1740  284.6820 O.2   174  CYS174     -0.2714
    102  CB        45.8000  -47.8100  284.0290 C.3   174  CYS174      0.0997
    103  SG        46.6710  -47.1460  285.4640 S.3   174  CYS174     -0.0797
    104  N         48.8320  -49.6570  283.2440 N.am  175  TYR175     -0.1960
    105  CA        49.7200  -50.7040  283.7320 C.3   175  TYR175      0.1771
    106  C         51.1880  -50.2830  283.6720 C.2   175  TYR175      0.2619
    107  O         51.4970  -49.1140  283.4370 O.2   175  TYR175     -0.2715
    108  CB        49.4960  -51.9830  282.9230 C.3   175  TYR175      0.0574
    109  CG        49.8130  -53.2570  283.6680 C.ar  175  TYR175     -0.0198
    110  CD1       49.3160  -53.4780  284.9440 C.ar  175  TYR175     -0.0009
    111  CD2       50.5960  -54.2440  283.0880 C.ar  175  TYR175     -0.0009
    112  CE1       49.6010  -54.6450  285.6280 C.ar  175  TYR175      0.0417
    113  CE2       50.8850  -55.4130  283.7610 C.ar  175  TYR175      0.0417
    114  CZ        50.3860  -55.6090  285.0310 C.ar  175  TYR175      0.1957
    115  OH        50.6710  -56.7730  285.7060 O.3   175  TYR175     -0.2866
    116  N         52.0860  -51.2410  283.8900 N.am  176  TYR176     -0.1974
    117  CA        53.5230  -50.9750  283.8770 C.3   176  TYR176      0.1639
    118  C         54.0300  -50.5460  282.4990 C.2   176  TYR176      0.2290
    119  O         53.5760  -51.0510  281.4740 O.2   176  TYR176     -0.2864
    120  CB        54.3130  -52.2130  284.3250 C.3   176  TYR176      0.0560
    121  CG        54.0470  -52.7010  285.7360 C.ar  176  TYR176     -0.0198
    122  CD1       54.7020  -52.1400  286.8240 C.ar  176  TYR176     -0.0009
    123  CD2       53.1680  -53.7510  285.9730 C.ar  176  TYR176     -0.0009
    124  CE1       54.4720  -52.5960  288.1110 C.ar  176  TYR176      0.0417
    125  CE2       52.9330  -54.2140  287.2550 C.ar  176  TYR176      0.0417
    126  CZ        53.5870  -53.6330  288.3200 C.ar  176  TYR176      0.1957
    127  OH        53.3560  -54.0900  289.5970 O.3   176  TYR176     -0.2866
    128  N         59.6240  -56.3850  295.7330 N.3   202  LYS202     -0.1245
    129  CA        58.3200  -56.2320  296.3730 C.3   202  LYS202      0.1561
    130  C         57.9310  -57.5110  297.1080 C.2   202  LYS202      0.2260
    131  O         57.1850  -57.4700  298.0850 O.2   202  LYS202     -0.2867
    132  CB        57.2410  -55.8610  295.3470 C.3   202  LYS202      0.0271
    133  CG        56.7780  -57.0220  294.4750 C.3   202  LYS202      0.0035
    134  CD        55.9510  -56.5600  293.2830 C.3   202  LYS202      0.0206
    135  CE        54.5720  -56.0850  293.7020 C.3   202  LYS202      0.1093
    136  NZ        53.7150  -55.8030  292.5170 N.3   202  LYS202     -0.1314
    137  N         48.8720  -63.4630  295.2020 N.3   378  TYR378     -0.1241
    138  CA        49.2340  -62.3220  294.3700 C.3   378  TYR378      0.1605
    139  C         50.7000  -62.3560  293.9450 C.2   378  TYR378      0.2264
    140  O         51.0060  -62.3400  292.7530 O.2   378  TYR378     -0.2867
    141  CB        48.9450  -61.0090  295.0960 C.3   378  TYR378      0.0534
    142  CG        49.5050  -59.8090  294.3710 C.ar  378  TYR378     -0.0201
    143  CD1       50.6110  -59.1280  294.8620 C.ar  378  TYR378     -0.0009
    144  CD2       48.9430  -59.3730  293.1800 C.ar  378  TYR378     -0.0009
    145  CE1       51.1320  -58.0340  294.1960 C.ar  378  TYR378      0.0417
    146  CE2       49.4580  -58.2800  292.5040 C.ar  378  TYR378      0.0417
    147  CZ        50.5510  -57.6160  293.0160 C.ar  378  TYR378      0.1957
    148  OH        51.0660  -56.5290  292.3470 O.3   378  TYR378     -0.2866
    149  N         52.7450  -62.4480  290.3410 N.3   382  SER382     -0.1217
    150  CA        53.5710  -61.2860  290.0280 C.3   382  SER382      0.1889
    151  C         54.9980  -61.6920  289.6690 C.2   382  SER382      0.2288
    152  O         55.6160  -61.1010  288.7840 O.2   382  SER382     -0.2866
    153  CB        53.5860  -60.3070  291.2040 C.3   382  SER382      0.2089
    154  OG        54.3640  -59.1610  290.9060 O.3   382  SER382     -0.2183
    155  N         54.9640  -63.2290  286.1640 N.3   385  GLU385     -0.1245
    156  CA        54.8790  -62.2170  285.1180 C.3   385  GLU385      0.1567
    157  C         56.2690  -61.7250  284.7220 C.2   385  GLU385      0.2260
    158  O         56.5180  -61.4020  283.5610 O.2   385  GLU385     -0.2867
    159  CB        54.0130  -61.0460  285.5830 C.3   385  GLU385      0.0388
    160  CG        53.7840  -59.9730  284.5330 C.3   385  GLU385      0.1160
    161  CD        53.0040  -58.7920  285.0770 C.2   385  GLU385      0.3649
    162  OE1       52.2820  -58.1430  284.2920 O.co2 385  GLU385     -0.2457
    163  OE2       53.1140  -58.5120  286.2890 O.co2 385  GLU385     -0.2457
    164  N         49.0950  -66.1760  283.0850 N.3   398  VAL398     -0.1231
    165  CA        49.1340  -64.9530  283.8780 C.3   398  VAL398      0.1692
    166  C         47.8790  -64.1100  283.6570 C.2   398  VAL398      0.2592
    167  O         47.3210  -63.5490  284.6030 O.2   398  VAL398     -0.2718
    168  CB        50.3910  -64.1170  283.5460 C.3   398  VAL398      0.0266
    169  CG1       50.3170  -62.7410  284.1910 C.3   398  VAL398      0.0020
    170  CG2       51.6470  -64.8510  283.9910 C.3   398  VAL398      0.0020
    171  N         47.4260  -64.0450  282.4080 N.am  399  TRP399     -0.1976
    172  CA        46.2650  -63.2350  282.0430 C.3   399  TRP399      0.1640
    173  C         44.9700  -63.7360  282.6830 C.2   399  TRP399      0.2290
    174  O         43.9650  -63.0270  282.6980 O.2   399  TRP399     -0.2864
    175  CB        46.1090  -63.1980  280.5200 C.3   399  TRP399      0.0576
    176  CG        47.2740  -62.5730  279.8080 C.ar  399  TRP399      0.0006
    177  CD1       48.2380  -61.7760  280.3530 C.ar  399  TRP399      0.0946
    178  CD2       47.6010  -62.7040  278.4190 C.ar  399  TRP399      0.0152
    179  NE1       49.1420  -61.3980  279.3890 N.ar  399  TRP399     -0.2442
    180  CE2       48.7730  -61.9560  278.1930 C.ar  399  TRP399      0.0810
    181  CE3       47.0150  -63.3800  277.3440 C.ar  399  TRP399      0.0012
    182  CZ2       49.3700  -61.8640  276.9380 C.ar  399  TRP399      0.0191
    183  CZ3       47.6080  -63.2880  276.1000 C.ar  399  TRP399      0.0001
    184  CH2       48.7730  -62.5370  275.9070 C.ar  399  TRP399      0.0015
    185  N         46.0480  -63.3820  287.4260 N.3   402  LEU402     -0.1231
    186  CA        46.4420  -62.0820  287.9720 C.3   402  LEU402      0.1678
    187  C         45.2810  -61.1050  288.2350 C.2   402  LEU402      0.2434
    188  O         45.2870  -60.4200  289.2590 O.2   402  LEU402     -0.2733
    189  CB        47.4720  -61.4160  287.0520 C.3   402  LEU402      0.0284
    190  CG        48.1370  -60.1650  287.6310 C.3   402  LEU402      0.0019
    191  CD1       48.7700  -60.4750  288.9790 C.3   402  LEU402      0.0001
    192  CD2       49.1710  -59.6020  286.6700 C.3   402  LEU402      0.0001
    193  N         44.2880  -61.0220  287.3250 N.am  403  PRO403     -0.2729
    194  CA        43.1830  -60.1080  287.6470 C.3   403  PRO403      0.1401
    195  C         42.3690  -60.5290  288.8750 C.2   403  PRO403      0.2269
    196  O         41.7530  -59.6790  289.5220 O.2   403  PRO403     -0.2865
    197  CB        42.3120  -60.1570  286.3870 C.3   403  PRO403      0.0296
    198  CG        43.2360  -60.5720  285.3050 C.3   403  PRO403      0.0237
    199  CD        44.1800  -61.5350  285.9470 C.3   403  PRO403      0.0939
    200  N         44.6040  -60.1190  292.3190 N.3   406  THR406     -0.1218
    201  CA        44.7610  -58.6940  292.5840 C.3   406  THR406      0.1862
    202  C         43.5490  -58.1850  293.3480 C.2   406  THR406      0.2287
    203  O         43.6820  -57.4510  294.3290 O.2   406  THR406     -0.2866
    204  CB        44.9310  -57.8800  291.2880 C.3   406  THR406      0.1770
    205  OG1       46.1100  -58.3130  290.6000 O.3   406  THR406     -0.2211
    206  CG2       45.0540  -56.3960  291.6010 C.3   406  THR406      0.0375
    207  N         42.7710  -56.7890  297.1870 N.3   410  PHE410     -0.1241
    208  CA        41.8780  -55.6480  297.3510 C.3   410  PHE410      0.1605
    209  C         40.8750  -55.9020  298.4700 C.2   410  PHE410      0.2264
    210  O         40.5620  -55.0040  299.2510 O.2   410  PHE410     -0.2867
    211  CB        41.1360  -55.3520  296.0440 C.3   410  PHE410      0.0534
    212  CG        41.8360  -54.3640  295.1550 C.ar  410  PHE410     -0.0203
    213  CD1       41.7490  -54.4720  293.7750 C.ar  410  PHE410     -0.0042
    214  CD2       42.5650  -53.3210  295.6970 C.ar  410  PHE410     -0.0042
    215  CE1       42.3870  -53.5630  292.9530 C.ar  410  PHE410     -0.0003
    216  CE2       43.2030  -52.4080  294.8800 C.ar  410  PHE410     -0.0003
    217  CZ        43.1140  -52.5290  293.5060 C.ar  410  PHE410     -0.0000
@<TRIPOS>BOND
     1     3     4    2
     2     3     2    1
     3     1     2    1
     4     2     5    1
     5   184   183   ar
     6   184   182   ar
     7   183   181   ar
     8   182   180   ar
     9     5     6    1
    10    97    96    1
    11   181   178   ar
    12     6     7    1
    13   180   178   ar
    14   180   179   ar
    15    96    95    1
    16   178   176   ar
    17    95    94    1
    18    90    91    1
    19    94    91    1
    20   179   177   ar
    21    34    33    2
    22     7     8    1
    23    91    92    1
    24   176   177   ar
    25   176   175    1
    26    93    92    2
    27    33    32    1
    28   175   172    1
    29    92    98   am
    30    35    32    1
    31    35    36    1
    32    31    32    1
    33   119   118    2
    34    36    37   ar
    35    36    38   ar
    36    37    39   ar
    37    98    99    1
    38   172   171    1
    39   172   173    1
    40   171   166   am
    41   118   117    1
    42   173   174    2
    43    39    40   ar
    44    38    40   ar
    45   108   109    1
    46   108   105    1
    47    99   100    1
    48    99   102    1
    49    28    30   ar
    50    28    26   ar
    51   164   165    1
    52   111   109   ar
    53   111   113   ar
    54   104   100   am
    55   104   105    1
    56    30    29   ar
    57    23    22    2
    58   107   106    2
    59   168   165    1
    60   168   170    1
    61   168   169    1
    62   158   157    2
    63   166   165    1
    64   166   167    2
    65   109   110   ar
    66   106   105    1
    67   106   116   am
    68   100   101    2
    69   113   114   ar
    70   117   116    1
    71   117   120    1
    72    26    25   ar
    73   102   103    1
    74    82    81    2
    75    81    80    1
    76    29    27   ar
    77   162   161   ar
    78   120   121    1
    79   160   161    1
    80   160   159    1
    81    22    21    1
    82   157   156    1
    83    25    27   ar
    84    25    24    1
    85   110   112   ar
    86   114   112   ar
    87   114   115    1
    88   161   163   ar
    89   156   159    1
    90   156   155    1
    91    21    24    1
    92    21    20    1
    93   198   199    1
    94   198   197    1
    95    80    79    1
    96    80    83    1
    97   121   123   ar
    98   121   122   ar
    99   199   193    1
   100   123   125   ar
   101   197   194    1
   102    85    86    1
   103    85    84    1
   104    83    84    1
   105   192   190    1
   106   122   124   ar
   107   189   190    1
   108   189   186    1
   109    86    87    2
   110   125   126   ar
   111   193   194    1
   112   193   187   am
   113   185   186    1
   114    88    87    1
   115    87    89    1
   116   190   191    1
   117   194   195    1
   118   186   187    1
   119   124   126   ar
   120   187   188    2
   121   126   127    1
   122    12    11    2
   123    17    19   ar
   124    17    15   ar
   125   152   151    2
   126    19    18   ar
   127    56    55    1
   128   195   196    2
   129    15    14   ar
   130    11    10    1
   131   151   150    1
   132    18    16   ar
   133    10     9    1
   134    10    13    1
   135    55    52    1
   136   150   149    1
   137   150   153    1
   138    14    16   ar
   139    14    13    1
   140    48    50   ar
   141    48    46   ar
   142   205   204    1
   143    50    49   ar
   144    45    46    1
   145    45    42    1
   146    46    47   ar
   147   154   153    1
   148    51    52    1
   149    51    43   am
   150    52    53    1
   151   204   206    1
   152   204   201    1
   153    41    42    1
   154    49    47   ar
   155    42    43    1
   156    78    77   ar
   157    78    76   ar
   158    77    75   ar
   159    43    44    2
   160   200   201    1
   161   148   147    1
   162   146   147   ar
   163   146   144   ar
   164    53    54    2
   165   136   135    1
   166   201   202    1
   167   140   139    2
   168   215   217   ar
   169   215   213   ar
   170    76    74   ar
   171   147   145   ar
   172    75    73   ar
   173   144   142   ar
   174   134   135    1
   175   134   133    1
   176   202   203    2
   177   217   216   ar
   178   213   212   ar
   179   139   138    1
   180    74    73   ar
   181   145   143   ar
   182    73    72    1
   183    66    64   ar
   184    66    67   ar
   185    64    62   ar
   186   138   141    1
   187   138   137    1
   188   142   143   ar
   189   142   141    1
   190   133   132    1
   191    67    65   ar
   192    62    61    1
   193    62    63   ar
   194    61    58    1
   195   216   214   ar
   196   212   214   ar
   197   212   211    1
   198    65    63   ar
   199   132   129    1
   200    72    69    1
   201   128   129    1
   202    57    58    1
   203   211   208    1
   204    58    59    1
   205    68    69    1
   206    68    59   am
   207   129   130    1
   208    69    70    1
   209    59    60    2
   210   130   131    2
   211   207   208    1
   212   208   209    1
   213    70    71    2
   214   209   210    2
