@<TRIPOS>MOLECULE
tmp/6d27A04.pdb
 120 116 0 0 0
SMALL
GASTEIGER

@<TRIPOS>ATOM
      1  N         49.6770  -48.5930  323.4140 N.3    57  VAL57      -0.1245
      2  CA        50.6410  -48.7630  322.3330 C.3    57  VAL57       0.1561
      3  C         50.0770  -49.6590  321.2360 C.2    57  VAL57       0.2260
      4  O         50.1830  -49.3470  320.0520 O.2    57  VAL57      -0.2867
      5  CB        51.9710  -49.3540  322.8450 C.3    57  VAL57       0.0252
      6  CG1       52.7930  -49.9200  321.6900 C.3    57  VAL57       0.0019
      7  CG2       52.7610  -48.2980  323.6040 C.3    57  VAL57       0.0019
      8  N         49.0380  -49.2610  316.7600 N.3    61  TRP61      -0.1241
      9  CA        49.3530  -50.0710  315.5850 C.3    61  TRP61       0.1605
     10  C         48.0960  -50.3270  314.7590 C.2    61  TRP61       0.2264
     11  O         48.0900  -50.1290  313.5460 O.2    61  TRP61      -0.2867
     12  CB        49.9880  -51.4080  315.9790 C.3    61  TRP61       0.0550
     13  CG        51.2130  -51.3080  316.8470 C.ar   61  TRP61       0.0003
     14  CD1       51.4100  -51.9180  318.0520 C.ar   61  TRP61       0.0946
     15  CD2       52.4090  -50.5650  316.5740 C.ar   61  TRP61       0.0152
     16  NE1       52.6510  -51.6000  318.5470 N.ar   61  TRP61      -0.2442
     17  CE2       53.2840  -50.7700  317.6600 C.ar   61  TRP61       0.0810
     18  CE3       52.8240  -49.7450  315.5200 C.ar   61  TRP61       0.0012
     19  CZ2       54.5470  -50.1850  317.7220 C.ar   61  TRP61       0.0191
     20  CZ3       54.0800  -49.1640  315.5840 C.ar   61  TRP61       0.0001
     21  CH2       54.9260  -49.3880  316.6770 C.ar   61  TRP61       0.0015
     22  N         56.3700  -54.3990  312.7640 N.3   116  ALA116     -0.1245
     23  CA        56.5050  -53.5660  313.9540 C.3   116  ALA116      0.1562
     24  C         55.7390  -54.1580  315.1310 C.2   116  ALA116      0.2260
     25  O         56.1970  -54.1040  316.2710 O.2   116  ALA116     -0.2867
     26  CB        56.0250  -52.1520  313.6670 C.3   116  ALA116      0.0290
     27  N         57.6270  -57.1980  316.5370 N.3   119  LEU119     -0.1231
     28  CA        58.8470  -56.7760  317.2150 C.3   119  LEU119      0.1693
     29  C         58.5430  -56.0630  318.5300 C.2   119  LEU119      0.2592
     30  O         59.3280  -56.1310  319.4770 O.2   119  LEU119     -0.2718
     31  CB        59.6800  -55.8710  316.3050 C.3   119  LEU119      0.0284
     32  CG        60.3920  -56.5650  315.1420 C.3   119  LEU119      0.0019
     33  CD1       61.2220  -55.5700  314.3440 C.3   119  LEU119      0.0001
     34  CD2       61.2600  -57.7070  315.6520 C.3   119  LEU119      0.0001
     35  N         57.4040  -55.3800  318.5850 N.am  120  ASP120     -0.1974
     36  CA        56.9840  -54.6980  319.8040 C.3   120  ASP120      0.1709
     37  C         56.6540  -55.7110  320.8950 C.2   120  ASP120      0.2293
     38  O         56.9680  -55.5010  322.0660 O.2   120  ASP120     -0.2864
     39  CB        55.7780  -53.7990  319.5320 C.3   120  ASP120      0.1436
     40  CG        55.2730  -53.1070  320.7810 C.2   120  ASP120      0.3671
     41  OD1       54.2290  -53.5350  321.3160 O.co2 120  ASP120     -0.2456
     42  OD2       55.9230  -52.1390  321.2310 O.co2 120  ASP120     -0.2456
     43  N         60.0900  -57.3860  322.1280 N.3   123  LEU123     -0.1245
     44  CA        60.8300  -56.5710  323.0850 C.3   123  LEU123      0.1561
     45  C         60.1580  -56.5820  324.4570 C.2   123  LEU123      0.2260
     46  O         60.8280  -56.4850  325.4850 O.2   123  LEU123     -0.2867
     47  CB        60.9670  -55.1310  322.5800 C.3   123  LEU123      0.0270
     48  CG        61.9420  -54.8910  321.4260 C.3   123  LEU123      0.0019
     49  CD1       61.9240  -53.4300  321.0010 C.3   123  LEU123      0.0001
     50  CD2       63.3480  -55.3170  321.8180 C.3   123  LEU123      0.0001
     51  N         63.9170  -53.0460  329.9130 N.3   130  TRP130     -0.1241
     52  CA        63.9210  -51.9390  328.9600 C.3   130  TRP130      0.1605
     53  C         62.5040  -51.5130  328.5960 C.2   130  TRP130      0.2264
     54  O         62.1810  -50.3240  328.6150 O.2   130  TRP130     -0.2867
     55  CB        64.6900  -52.3150  327.6890 C.3   130  TRP130      0.0550
     56  CG        64.6720  -51.2340  326.6400 C.ar  130  TRP130      0.0003
     57  CD1       65.5570  -50.2030  326.5110 C.ar  130  TRP130      0.0946
     58  CD2       63.7180  -51.0780  325.5780 C.ar  130  TRP130      0.0152
     59  NE1       65.2140  -49.4160  325.4360 N.ar  130  TRP130     -0.2442
     60  CE2       64.0900  -49.9310  324.8480 C.ar  130  TRP130      0.0810
     61  CE3       62.5880  -51.7960  325.1750 C.ar  130  TRP130      0.0012
     62  CZ2       63.3710  -49.4870  323.7380 C.ar  130  TRP130      0.0191
     63  CZ3       61.8750  -51.3520  324.0730 C.ar  130  TRP130      0.0001
     64  CH2       62.2700  -50.2090  323.3670 C.ar  130  TRP130      0.0015
     65  N         60.5300  -47.6120  328.5230 N.3   134  HIS134     -0.1226
     66  CA        60.6380  -46.8770  327.2600 C.3   134  HIS134      0.1752
     67  C         59.4880  -47.1100  326.2740 C.2   134  HIS134      0.2596
     68  O         59.2690  -46.2980  325.3750 O.2   134  HIS134     -0.2718
     69  CB        61.9680  -47.2090  326.5810 C.3   134  HIS134      0.0759
     70  CG        63.1610  -46.6790  327.3100 C.ar  134  HIS134      0.0818
     71  ND1       63.9200  -47.4530  328.1630 N.ar  134  HIS134     -0.2268
     72  CD2       63.7220  -45.4440  327.3300 C.ar  134  HIS134      0.1154
     73  CE1       64.8980  -46.7230  328.6680 C.ar  134  HIS134      0.1986
     74  NE2       64.7990  -45.5000  328.1770 N.ar  134  HIS134     -0.2212
     75  N         58.7560  -48.2070  326.4380 N.am  135  ARG135     -0.1966
     76  CA        57.6180  -48.4870  325.5670 C.3   135  ARG135      0.1729
     77  C         56.4490  -47.5430  325.8470 C.2   135  ARG135      0.2616
     78  O         55.4790  -47.9270  326.4980 O.2   135  ARG135     -0.2715
     79  CB        57.1590  -49.9370  325.7310 C.3   135  ARG135      0.0348
     80  CG        57.3430  -50.7950  324.4950 C.3   135  ARG135      0.0492
     81  CD        56.4510  -52.0260  324.5450 C.3   135  ARG135      0.2205
     82  NE        55.0380  -51.6690  324.6690 N.pl3 135  ARG135     -0.0865
     83  CZ        54.0360  -52.5360  324.5640 C.cat 135  ARG135      0.5346
     84  NH1       54.2840  -53.8160  324.3270 N.pl3 135  ARG135      0.1354
     85  NH2       52.7850  -52.1210  324.6930 N.pl3 135  ARG135      0.1354
     86  N         56.5430  -46.3110  325.3550 N.am  136  THR136     -0.1951
     87  CA        55.4620  -45.3430  325.5180 C.3   136  THR136      0.1897
     88  C         54.6160  -45.2210  324.2510 C.2   136  THR136      0.2313
     89  O         55.0250  -45.6630  323.1780 O.2   136  THR136     -0.2863
     90  CB        55.9980  -43.9490  325.8940 C.3   136  THR136      0.1794
     91  OG1       54.9460  -42.9830  325.7690 O.3   136  THR136     -0.2208
     92  CG2       57.1420  -43.5530  324.9820 C.3   136  THR136      0.0378
     93  N         56.1910  -42.9970  321.5090 N.3   139  ALA139     -0.1231
     94  CA        57.2110  -43.6840  320.7250 C.3   139  ALA139      0.1694
     95  C         56.5660  -44.5120  319.6220 C.2   139  ALA139      0.2591
     96  O         57.0910  -44.6040  318.5140 O.2   139  ALA139     -0.2718
     97  CB        58.0700  -44.5650  321.6170 C.3   139  ALA139      0.0304
     98  N         55.4230  -45.1140  319.9400 N.am  140  ALA140     -0.1980
     99  CA        54.6740  -45.9060  318.9730 C.3   140  ALA140      0.1597
    100  C         54.1750  -45.0290  317.8290 C.2   140  ALA140      0.2287
    101  O         54.1240  -45.4600  316.6770 O.2   140  ALA140     -0.2864
    102  CB        53.5090  -46.6100  319.6540 C.3   140  ALA140      0.0319
    103  N         57.3030  -44.0620  315.5910 N.3   143  VAL143     -0.1245
    104  CA        57.7350  -45.1580  314.7300 C.3   143  VAL143      0.1561
    105  C         56.9050  -45.2150  313.4490 C.2   143  VAL143      0.2260
    106  O         57.4510  -45.3520  312.3530 O.2   143  VAL143     -0.2867
    107  CB        57.6470  -46.5180  315.4580 C.3   143  VAL143      0.0252
    108  CG1       57.7970  -47.6710  314.4750 C.3   143  VAL143      0.0019
    109  CG2       58.7020  -46.6050  316.5510 C.3   143  VAL143      0.0019
    110  N         68.9280  -51.8250  323.3210 N.3   259  PHE259     -0.1241
    111  CA        67.7730  -51.8260  324.2160 C.3   259  PHE259      0.1605
    112  C         68.2770  -52.0970  325.6300 C.2   259  PHE259      0.2264
    113  O         67.8740  -53.0640  326.2770 O.2   259  PHE259     -0.2867
    114  CB        66.7300  -52.8640  323.7850 C.3   259  PHE259      0.0534
    115  CG        66.3460  -52.7720  322.3340 C.ar  259  PHE259     -0.0203
    116  CD1       65.4350  -51.8210  321.9050 C.ar  259  PHE259     -0.0042
    117  CD2       66.8940  -53.6370  321.4000 C.ar  259  PHE259     -0.0042
    118  CE1       65.0800  -51.7330  320.5730 C.ar  259  PHE259     -0.0003
    119  CE2       66.5420  -53.5540  320.0670 C.ar  259  PHE259     -0.0003
    120  CZ        65.6340  -52.6000  319.6540 C.ar  259  PHE259     -0.0000
@<TRIPOS>BOND
     1   106   105    2
     2    22    23    1
     3   105   104    1
     4    11    10    2
     5    26    23    1
     6    23    24    1
     7    33    32    1
     8   108   107    1
     9   104   107    1
    10   104   103    1
    11    10     9    1
    12    24    25    2
    13    32    34    1
    14    32    31    1
    15   107   109    1
    16    18    20   ar
    17    18    15   ar
    18    20    21   ar
    19     9    12    1
    20     9     8    1
    21    12    13    1
    22    31    28    1
    23    27    28    1
    24    15    13   ar
    25    15    17   ar
    26    21    19   ar
    27   101   100    2
    28    13    14   ar
    29    28    29    1
    30    17    19   ar
    31    17    16   ar
    32   100    99    1
    33    14    16   ar
    34    96    95    2
    35    29    35   am
    36    29    30    2
    37    35    36    1
    38    99   102    1
    39    99    98    1
    40    39    36    1
    41    39    40    1
    42    95    98   am
    43    95    94    1
    44   120   119   ar
    45   120   118   ar
    46    36    37    1
    47     4     3    2
    48   119   117   ar
    49   118   116   ar
    50    94    93    1
    51    94    97    1
    52    40    42   ar
    53    40    41   ar
    54    37    38    2
    55    49    48    1
    56     3     2    1
    57   117   115   ar
    58    48    50    1
    59    48    47    1
    60     6     5    1
    61   116   115   ar
    62    43    44    1
    63     2     5    1
    64     2     1    1
    65   115   114    1
    66    47    44    1
    67     5     7    1
    68    44    45    1
    69    89    88    2
    70   110   111    1
    71    64    62   ar
    72    64    63   ar
    73    62    60   ar
    74   114   111    1
    75    63    61   ar
    76   111   112    1
    77    88    87    1
    78    84    83    1
    79    45    46    2
    80    80    81    1
    81    80    79    1
    82    81    82    1
    83    83    82    2
    84    83    85    1
    85    60    59   ar
    86    60    58   ar
    87    92    90    1
    88    61    58   ar
    89    86    87    1
    90    86    77   am
    91    68    67    2
    92    59    57   ar
    93    87    90    1
    94    76    79    1
    95    76    77    1
    96    76    75    1
    97    58    56   ar
    98   112   113    2
    99    91    90    1
   100    77    78    2
   101    67    75   am
   102    67    66    1
   103    57    56   ar
   104    69    66    1
   105    69    70    1
   106    56    55    1
   107    66    65    1
   108    70    72   ar
   109    70    71   ar
   110    72    74   ar
   111    55    52    1
   112    71    73   ar
   113    74    73   ar
   114    53    54    2
   115    53    52    1
   116    52    51    1
