@<TRIPOS>MOLECULE
tmp/6d27A02.pdb
 91 83 0 0 0
SMALL
GASTEIGER

@<TRIPOS>ATOM
      1  N         44.8370  -62.6130  319.8460 N.3   362  ARG362     -0.1245
      2  CA        43.8940  -63.2430  318.9260 C.3   362  ARG362      0.1563
      3  C         43.6670  -62.3840  317.6860 C.2   362  ARG362      0.2260
      4  O         43.3100  -62.8910  316.6220 O.2   362  ARG362     -0.2867
      5  CB        42.5610  -63.5070  319.6270 C.3   362  ARG362      0.0307
      6  CG        42.6250  -64.5700  320.7090 C.3   362  ARG362      0.0489
      7  CD        41.3620  -64.5610  321.5510 C.3   362  ARG362      0.2205
      8  NE        41.2200  -63.3200  322.3070 N.pl3 362  ARG362     -0.0865
      9  CZ        40.1820  -63.0350  323.0870 C.cat 362  ARG362      0.5346
     10  NH1       39.1890  -63.9030  323.2150 N.pl3 362  ARG362      0.1354
     11  NH2       40.1350  -61.8830  323.7410 N.pl3 362  ARG362      0.1354
     12  N         47.0510  -62.6120  315.2630 N.3   365  ALA365     -0.1231
     13  CA        47.1340  -63.9370  314.6550 C.3   365  ALA365      0.1694
     14  C         46.0860  -64.1250  313.5620 C.2   365  ALA365      0.2591
     15  O         46.2660  -64.9310  312.6480 O.2   365  ALA365     -0.2718
     16  CB        46.9840  -65.0160  315.7150 C.3   365  ALA365      0.0304
     17  N         44.9910  -63.3790  313.6610 N.am  366  ALA366     -0.1980
     18  CA        43.9130  -63.4700  312.6860 C.3   366  ALA366      0.1597
     19  C         44.1980  -62.6000  311.4620 C.2   366  ALA366      0.2287
     20  O         43.9590  -63.0100  310.3250 O.2   366  ALA366     -0.2864
     21  CB        42.5910  -63.0740  313.3260 C.3   366  ALA366      0.0319
     22  N         46.9280  -64.1320  309.4170 N.3   369  ALA369     -0.1231
     23  CA        46.3540  -65.2350  308.6570 C.3   369  ALA369      0.1694
     24  C         45.6930  -64.7370  307.3730 C.2   369  ALA369      0.2591
     25  O         45.8350  -65.3490  306.3150 O.2   369  ALA369     -0.2718
     26  CB        45.3500  -65.9980  309.5090 C.3   369  ALA369      0.0304
     27  N         44.9800  -63.6190  307.4720 N.am  370  ALA370     -0.1980
     28  CA        44.2940  -63.0460  306.3190 C.3   370  ALA370      0.1597
     29  C         45.2830  -62.3580  305.3840 C.2   370  ALA370      0.2287
     30  O         45.0710  -62.2970  304.1750 O.2   370  ALA370     -0.2864
     31  CB        43.2210  -62.0680  306.7720 C.3   370  ALA370      0.0319
     32  N         46.9920  -64.9660  303.2210 N.3   373  LEU373     -0.1231
     33  CA        46.0560  -65.6240  302.3150 C.3   373  LEU373      0.1693
     34  C         45.5790  -64.7020  301.1960 C.2   373  LEU373      0.2592
     35  O         45.0210  -65.1660  300.2040 O.2   373  LEU373     -0.2718
     36  CB        44.8470  -66.1590  303.0870 C.3   373  LEU373      0.0284
     37  CG        45.0770  -67.4200  303.9210 C.3   373  LEU373      0.0019
     38  CD1       43.7760  -67.8770  304.5600 C.3   373  LEU373      0.0001
     39  CD2       45.6760  -68.5260  303.0670 C.3   373  LEU373      0.0001
     40  N         45.8000  -63.4010  301.3530 N.am  374  CYS374     -0.1970
     41  CA        45.3460  -62.4340  300.3610 C.3   374  CYS374      0.1712
     42  C         46.4900  -61.9310  299.4850 C.2   374  CYS374      0.2296
     43  O         46.3190  -61.7280  298.2820 O.2   374  CYS374     -0.2864
     44  CB        44.6510  -61.2530  301.0440 C.3   374  CYS374      0.0983
     45  SG        43.0690  -61.6690  301.8180 S.3   374  CYS374     -0.0798
     46  N         41.7420  -60.0400  295.0720 N.3   408  LEU408     -0.1245
     47  CA        41.7950  -60.7550  296.3410 C.3   408  LEU408      0.1561
     48  C         42.5330  -59.9280  297.3900 C.2   408  LEU408      0.2260
     49  O         42.1000  -59.8340  298.5390 O.2   408  LEU408     -0.2867
     50  CB        42.4680  -62.1180  296.1690 C.3   408  LEU408      0.0270
     51  CG        42.6790  -62.9420  297.4440 C.3   408  LEU408      0.0019
     52  CD1       41.3500  -63.2950  298.0950 C.3   408  LEU408      0.0001
     53  CD2       43.4850  -64.1980  297.1510 C.3   408  LEU408      0.0001
     54  N         40.3850  -57.1350  298.5470 N.3   411  PHE411     -0.1241
     55  CA        39.3450  -57.4930  299.5040 C.3   411  PHE411      0.1605
     56  C         39.9090  -57.7460  300.9000 C.2   411  PHE411      0.2264
     57  O         39.1620  -58.0230  301.8390 O.2   411  PHE411     -0.2867
     58  CB        38.5770  -58.7270  299.0200 C.3   411  PHE411      0.0534
     59  CG        37.7440  -58.4830  297.7880 C.ar  411  PHE411     -0.0203
     60  CD1       37.4310  -57.1930  297.3860 C.ar  411  PHE411     -0.0042
     61  CD2       37.2680  -59.5460  297.0350 C.ar  411  PHE411     -0.0042
     62  CE1       36.6630  -56.9680  296.2550 C.ar  411  PHE411     -0.0003
     63  CE2       36.4990  -59.3270  295.9030 C.ar  411  PHE411     -0.0003
     64  CZ        36.1960  -58.0360  295.5130 C.ar  411  PHE411     -0.0000
     65  N         38.6910  -55.2520  303.3740 N.3   414  VAL414     -0.1231
     66  CA        37.3020  -55.4100  303.7850 C.3   414  VAL414      0.1692
     67  C         37.1860  -56.5190  304.8290 C.2   414  VAL414      0.2591
     68  O         36.2450  -56.5510  305.6240 O.2   414  VAL414     -0.2718
     69  CB        36.3950  -55.7290  302.5760 C.3   414  VAL414      0.0266
     70  CG1       34.9240  -55.6390  302.9600 C.3   414  VAL414      0.0020
     71  CG2       36.7000  -54.7810  301.4270 C.3   414  VAL414      0.0020
     72  N         38.1630  -57.4190  304.8280 N.am  415  ALA415     -0.1980
     73  CA        38.1590  -58.5580  305.7370 C.3   415  ALA415      0.1597
     74  C         38.6120  -58.1710  307.1430 C.2   415  ALA415      0.2287
     75  O         38.0070  -58.5880  308.1310 O.2   415  ALA415     -0.2864
     76  CB        39.0410  -59.6700  305.1880 C.3   415  ALA415      0.0319
     77  N         37.3740  -58.8490  311.2370 N.3   419  LEU419     -0.1245
     78  CA        38.2190  -59.6640  312.0980 C.3   419  LEU419      0.1561
     79  C         38.5990  -58.9210  313.3760 C.2   419  LEU419      0.2260
     80  O         38.8830  -59.5430  314.3990 O.2   419  LEU419     -0.2867
     81  CB        39.4800  -60.1020  311.3480 C.3   419  LEU419      0.0270
     82  CG        39.2680  -60.9230  310.0720 C.3   419  LEU419      0.0019
     83  CD1       40.5970  -61.2330  309.3960 C.3   419  LEU419      0.0001
     84  CD2       38.5060  -62.2050  310.3730 C.3   419  LEU419      0.0001
     85  N         37.6440  -60.8820  317.1880 N.3   423  THR423     -0.1218
     86  CA        38.7500  -61.3040  318.0430 C.3   423  THR423      0.1862
     87  C         38.9830  -60.3450  319.2120 C.2   423  THR423      0.2287
     88  O         39.8320  -60.5960  320.0700 O.2   423  THR423     -0.2866
     89  CB        40.0570  -61.4360  317.2460 C.3   423  THR423      0.1770
     90  OG1       40.4890  -60.1400  316.8120 O.3   423  THR423     -0.2211
     91  CG2       39.8480  -62.3360  316.0360 C.3   423  THR423      0.0375
@<TRIPOS>BOND
     1    46    47    1
     2    64    63   ar
     3    64    62   ar
     4    63    61   ar
     5    50    47    1
     6    50    51    1
     7    62    60   ar
     8    47    48    1
     9    61    59   ar
    10    53    51    1
    11    60    59   ar
    12    48    49    2
    13    51    52    1
    14    59    58    1
    15    43    42    2
    16    54    55    1
    17    58    55    1
    18    42    41    1
    19    55    56    1
    20    35    34    2
    21    41    44    1
    22    41    40    1
    23    56    57    2
    24    44    45    1
    25    34    40   am
    26    34    33    1
    27    71    69    1
    28    33    36    1
    29    33    32    1
    30    69    70    1
    31    69    66    1
    32    39    37    1
    33    36    37    1
    34    65    66    1
    35    66    67    1
    36    37    38    1
    37    30    29    2
    38    72    67   am
    39    72    73    1
    40    67    68    2
    41    76    73    1
    42    29    28    1
    43    73    74    1
    44    25    24    2
    45    28    31    1
    46    28    27    1
    47    74    75    2
    48    24    27   am
    49    24    23    1
    50    23    22    1
    51    23    26    1
    52    83    82    1
    53    82    84    1
    54    82    81    1
    55    20    19    2
    56    77    78    1
    57    81    78    1
    58    19    18    1
    59    78    79    1
    60    15    14    2
    61    18    21    1
    62    18    17    1
    63    79    80    2
    64    14    17   am
    65    14    13    1
    66    13    12    1
    67    13    16    1
    68    91    89    1
    69     4     3    2
    70    90    89    1
    71    85    86    1
    72    89    86    1
    73     3     2    1
    74    86    87    1
    75     2     5    1
    76     2     1    1
    77    87    88    2
    78     5     6    1
    79     6     7    1
    80     7     8    1
    81     8     9    2
    82     9    10    1
    83     9    11    1
