@<TRIPOS>MOLECULE
tmp/6d28A00.pdb
 142 131 0 0 0
SMALL
GASTEIGER

@<TRIPOS>ATOM
      1  N         14.1100   -2.5950   54.3360 N.3    14  MET14      -0.1245
      2  CA        13.4800   -3.8030   53.7900 C.3    14  MET14       0.1570
      3  C         12.5940   -4.4900   54.8290 C.2    14  MET14       0.2261
      4  O         11.4890   -4.9730   54.5280 O.2    14  MET14      -0.2867
      5  CB        14.5840   -4.7760   53.3150 C.3    14  MET14       0.0387
      6  CG        14.0220   -6.1030   52.8720 C.3    14  MET14       0.0595
      7  SD        15.2540   -7.0540   51.8870 S.3    14  MET14      -0.1393
      8  CE        16.6150   -7.1040   53.0390 C.3    14  MET14       0.0692
      9  N          9.7940  -19.2900   55.7470 N.3    33  LEU33      -0.1245
     10  CA        10.8330  -20.1030   56.3910 C.3    33  LEU33       0.1561
     11  C         10.8890  -21.4980   55.7730 C.2    33  LEU33       0.2260
     12  O         11.9660  -22.0830   55.6550 O.2    33  LEU33      -0.2867
     13  CB        10.5780  -20.2220   57.8960 C.3    33  LEU33       0.0270
     14  CG        10.5160  -18.8880   58.6600 C.3    33  LEU33       0.0019
     15  CD1       10.3070  -19.2070   60.1840 C.3    33  LEU33       0.0001
     16  CD2       11.7990  -18.0450   58.4140 C.3    33  LEU33       0.0001
     17  N         12.6610  -21.1260   52.4590 N.3    36  ASN36      -0.1225
     18  CA        14.0930  -20.9810   52.6590 C.3    36  ASN36       0.1785
     19  C         14.7490  -22.3110   53.0190 C.2    36  ASN36       0.2597
     20  O         15.8920  -22.5630   52.6110 O.2    36  ASN36      -0.2718
     21  CB        14.3810  -19.9580   53.7540 C.3    36  ASN36       0.1169
     22  CG        14.0350  -18.5340   53.3210 C.2    36  ASN36       0.2627
     23  OD1       13.7770  -18.2320   52.1340 O.2    36  ASN36      -0.2716
     24  ND2       14.0910  -17.6320   54.2930 N.am   36  ASN36      -0.0877
     25  N         14.0660  -23.1370   53.8340 N.am   37  ALA37      -0.1979
     26  CA        14.6200  -24.4260   54.2170 C.3    37  ALA37       0.1597
     27  C         14.7200  -25.3270   52.9960 C.2    37  ALA37       0.2287
     28  O         15.7380  -26.0070   52.7920 O.2    37  ALA37      -0.2864
     29  CB        13.7510  -25.0740   55.2970 C.3    37  ALA37       0.0319
     30  N         17.7060  -24.3830   51.0110 N.3    40  ALA40      -0.1245
     31  CA        18.9400  -24.8460   51.6360 C.3    40  ALA40       0.1562
     32  C         19.1280  -26.3420   51.4210 C.2    40  ALA40       0.2260
     33  O         20.2540  -26.8220   51.2350 O.2    40  ALA40      -0.2867
     34  CB        18.9120  -24.5180   53.1310 C.3    40  ALA40       0.0290
     35  N         16.0330  -27.4090   59.3460 N.3    78  ASP78      -0.1239
     36  CA        16.3450  -28.1470   58.1330 C.3    78  ASP78       0.1674
     37  C         17.7460  -28.7430   58.2420 C.2    78  ASP78       0.2266
     38  O         18.5720  -28.3090   59.0440 O.2    78  ASP78      -0.2867
     39  CB        16.2290  -27.2340   56.8880 C.3    78  ASP78       0.1410
     40  CG        17.3070  -26.1470   56.8590 C.2    78  ASP78       0.3668
     41  OD1       18.4970  -26.4870   56.6300 O.co2  78  ASP78      -0.2456
     42  OD2       16.9450  -24.9590   57.0690 O.co2  78  ASP78      -0.2456
     43  N         22.0890  -26.8420   53.5840 N.3    81  VAL81      -0.1231
     44  CA        23.5120  -26.5150   53.4910 C.3    81  VAL81       0.1692
     45  C         24.0270  -25.8110   54.7490 C.2    81  VAL81       0.2593
     46  O         25.2200  -25.8740   55.0600 O.2    81  VAL81      -0.2718
     47  CB        23.7510  -25.6650   52.2320 C.3    81  VAL81       0.0266
     48  CG1       23.0310  -24.2910   52.3650 C.3    81  VAL81       0.0020
     49  CG2       25.2280  -25.4670   51.9520 C.3    81  VAL81       0.0020
     50  N         23.1640  -25.1350   55.4940 N.am   82  GLY82      -0.1942
     51  CA        23.6420  -24.3570   56.6100 C.3    82  GLY82       0.2014
     52  C         24.3570  -23.0830   56.1750 C.2    82  GLY82       0.2638
     53  O         24.4840  -22.7550   54.9920 O.2    82  GLY82      -0.2714
     54  N         24.8040  -22.3370   57.1840 N.am   83  MET83      -0.1976
     55  CA        25.5190  -21.0780   56.9990 C.3    83  MET83       0.1605
     56  C         26.7490  -21.0340   57.8950 C.2    83  MET83       0.2287
     57  O         26.6810  -21.3630   59.0940 O.2    83  MET83      -0.2864
     58  CB        24.5840  -19.8510   57.3290 C.3    83  MET83       0.0413
     59  CG        23.5770  -19.5940   56.1880 C.3    83  MET83       0.0598
     60  SD        22.4540  -18.2250   56.7210 S.3    83  MET83      -0.1393
     61  CE        21.2900  -19.1070   57.6610 C.3    83  MET83       0.0692
     62  N         24.5760  -12.5640   55.1470 N.3    91  ASN91      -0.1225
     63  CA        23.3350  -12.9080   54.4530 C.3    91  ASN91       0.1785
     64  C         22.1200  -12.3420   55.1750 C.2    91  ASN91       0.2597
     65  O         21.1050  -12.0620   54.5270 O.2    91  ASN91      -0.2718
     66  CB        23.1600  -14.4280   54.3120 C.3    91  ASN91       0.1169
     67  CG        24.2030  -15.0540   53.3870 C.2    91  ASN91       0.2627
     68  OD1       25.1910  -14.4000   53.0330 O.2    91  ASN91      -0.2716
     69  ND2       24.0190  -16.3430   53.0390 N.am   91  ASN91      -0.0877
     70  N         22.1720  -12.2670   56.5120 N.am   92  LEU92      -0.1980
     71  CA        21.0020  -11.7980   57.2560 C.3    92  LEU92       0.1596
     72  C         21.1180  -10.3180   57.6280 C.2    92  LEU92       0.2287
     73  O         20.1020   -9.6200   57.7220 O.2    92  LEU92      -0.2864
     74  CB        20.7920  -12.6540   58.5210 C.3    92  LEU92       0.0297
     75  CG        20.6810  -14.1750   58.2840 C.3    92  LEU92       0.0022
     76  CD1       20.5360  -14.9420   59.6160 C.3    92  LEU92       0.0001
     77  CD2       19.4890  -14.4520   57.4050 C.3    92  LEU92       0.0001
     78  N         23.0740  -10.1830   48.1800 N.3    97  LYS97      -0.1245
     79  CA        22.9040  -10.6470   46.8080 C.3    97  LYS97       0.1561
     80  C         22.3300   -9.5290   45.9460 C.2    97  LYS97       0.2260
     81  O         21.5590   -8.6880   46.4220 O.2    97  LYS97      -0.2867
     82  CB        21.9780  -11.8660   46.7550 C.3    97  LYS97       0.0271
     83  CG        22.4000  -12.9670   47.6920 C.3    97  LYS97       0.0035
     84  CD        23.4910  -13.8020   47.1010 C.3    97  LYS97       0.0206
     85  CE        23.8950  -14.9910   47.9610 C.3    97  LYS97       0.1093
     86  NZ        24.3190  -14.6560   49.3150 N.3    97  LYS97      -0.1314
     87  N         18.6240   -9.0620   46.0010 N.3   100  THR100     -0.1218
     88  CA        17.9930   -8.3300   47.0980 C.3   100  THR100      0.1862
     89  C         17.8230   -6.8580   46.7590 C.2   100  THR100      0.2287
     90  O         16.7770   -6.2620   47.0430 O.2   100  THR100     -0.2866
     91  CB        18.8100   -8.5220   48.3710 C.3   100  THR100      0.1770
     92  OG1       18.9640   -9.9260   48.5870 O.3   100  THR100     -0.2211
     93  CG2       18.0930   -7.9100   49.5820 C.3   100  THR100      0.0375
     94  N         12.9890  -14.4530   47.5910 N.3   125  GLY125     -0.1210
     95  CA        13.4650  -15.1950   48.7620 C.3   125  GLY125      0.1956
     96  C         13.9060  -14.3220   49.9200 C.2   125  GLY125      0.2611
     97  O         14.8860  -14.6580   50.6120 O.2   125  GLY125     -0.2717
     98  N         13.1790  -13.2360   50.1860 N.am  126  VAL126     -0.1979
     99  CA        13.5450  -12.2930   51.2610 C.3   126  VAL126      0.1595
    100  C         12.5980  -12.4070   52.4580 C.2   126  VAL126      0.2287
    101  O         12.5860  -11.5190   53.3300 O.2   126  VAL126     -0.2864
    102  CB        13.6110  -10.8420   50.7690 C.3   126  VAL126      0.0276
    103  CG1       14.7500  -10.6520   49.7300 C.3   126  VAL126      0.0022
    104  CG2       12.2350  -10.3560   50.1700 C.3   126  VAL126      0.0022
    105  N         12.5670  -14.1710   55.1490 N.3   128  PHE128     -0.1227
    106  CA        13.0660  -14.3840   56.5130 C.3   128  PHE128      0.1736
    107  C         12.5970  -13.2840   57.4730 C.2   128  PHE128      0.2595
    108  O         12.1640  -13.5630   58.6080 O.2   128  PHE128     -0.2718
    109  CB        14.5980  -14.4720   56.4950 C.3   128  PHE128      0.0547
    110  CG        15.2220  -14.4510   57.8730 C.ar  128  PHE128     -0.0202
    111  CD1       15.3030  -15.6340   58.6140 C.ar  128  PHE128     -0.0042
    112  CD2       15.7750  -13.2660   58.3680 C.ar  128  PHE128     -0.0042
    113  CE1       15.8750  -15.6290   59.8990 C.ar  128  PHE128     -0.0003
    114  CE2       16.3780  -13.2390   59.6570 C.ar  128  PHE128     -0.0003
    115  CZ        16.4220  -14.4500   60.4130 C.ar  128  PHE128     -0.0000
    116  N         12.6680  -12.0180   57.0430 N.am  129  TYR129     -0.1976
    117  CA        12.3440  -10.9150   57.9520 C.3   129  TYR129      0.1639
    118  C         10.8700  -10.8760   58.3460 C.2   129  TYR129      0.2290
    119  O         10.5270  -10.2240   59.3490 O.2   129  TYR129     -0.2864
    120  CB        12.7240   -9.5610   57.3320 C.3   129  TYR129      0.0560
    121  CG        14.2070   -9.5260   56.9880 C.ar  129  TYR129     -0.0198
    122  CD1       15.1600   -9.5360   57.9910 C.ar  129  TYR129     -0.0009
    123  CD2       14.6270   -9.5630   55.6730 C.ar  129  TYR129     -0.0009
    124  CE1       16.5490   -9.5190   57.6800 C.ar  129  TYR129      0.0417
    125  CE2       15.9840   -9.5940   55.3520 C.ar  129  TYR129      0.0417
    126  CZ        16.9270   -9.5270   56.3500 C.ar  129  TYR129      0.1957
    127  OH        18.2490   -9.5360   55.9850 O.3   129  TYR129     -0.2866
    128  N         20.1830  -25.9050   59.6640 N.3   174  THR174     -0.1218
    129  CA        19.8000  -24.6430   60.3220 C.3   174  THR174      0.1862
    130  C         18.5110  -24.8170   61.1010 C.2   174  THR174      0.2287
    131  O         17.5660  -25.4210   60.5970 O.2   174  THR174     -0.2866
    132  CB        19.5950  -23.5490   59.2500 C.3   174  THR174      0.1770
    133  OG1       20.8220  -23.3130   58.5450 O.3   174  THR174     -0.2211
    134  CG2       19.1970  -22.2200   59.8880 C.3   174  THR174      0.0375
    135  N         15.6290  -22.2890   62.7530 N.3   176  ILE176     -0.1245
    136  CA        15.0700  -20.9670   63.0300 C.3   176  ILE176      0.1561
    137  C         14.2160  -21.1320   64.2680 C.2   176  ILE176      0.2260
    138  O         13.2630  -21.9140   64.2520 O.2   176  ILE176     -0.2867
    139  CB        14.2270  -20.4280   61.8620 C.3   176  ILE176      0.0252
    140  CG1       14.8900  -20.6230   60.4880 C.3   176  ILE176      0.0019
    141  CG2       13.8610  -18.8950   62.1170 C.3   176  ILE176      0.0019
    142  CD1       16.1790  -19.7940   60.2450 C.3   176  ILE176      0.0001
@<TRIPOS>BOND
     1    80    81    2
     2    80    79    1
     3    87    88    1
     4    82    79    1
     5    82    83    1
     6    89    90    2
     7    89    88    1
     8    79    78    1
     9    88    91    1
    10    84    83    1
    11    84    85    1
    12    94    95    1
    13    85    86    1
    14    91    92    1
    15    91    93    1
    16    95    96    1
    17   103   102    1
    18    96    98   am
    19    96    97    2
    20   104   102    1
    21    98    99    1
    22   102    99    1
    23    30    31    1
    24    33    32    2
    25    99   100    1
    26    32    31    1
    27    31    34    1
    28     7     6    1
    29     7     8    1
    30    49    47    1
    31    23    22    2
    32    47    48    1
    33    47    44    1
    34   100   101    2
    35    17    18    1
    36    20    19    2
    37    18    19    1
    38    18    21    1
    39    28    27    2
    40     6     5    1
    41    27    26    1
    42    19    25   am
    43    68    67    2
    44    69    67   am
    45     5     2    1
    46    22    21    1
    47    22    24   am
    48    67    66    1
    49    44    43    1
    50    44    45    1
    51     2     1    1
    52     2     3    1
    53    25    26    1
    54    26    29    1
    55    66    63    1
    56    63    62    1
    57    63    64    1
    58    65    64    2
    59     4     3    2
    60    45    46    2
    61    45    50   am
    62    53    52    2
    63   105   106    1
    64    64    70   am
    65   125   123   ar
    66   125   126   ar
    67    50    51    1
    68    12    11    2
    69   123   121   ar
    70     9    10    1
    71    11    10    1
    72   127   126    1
    73    52    51    1
    74    52    54   am
    75    59    60    1
    76    59    58    1
    77   126   124   ar
    78    10    13    1
    79   109   106    1
    80   109   110    1
    81    70    71    1
    82   106   107    1
    83    41    40   ar
    84    60    61    1
    85    40    39    1
    86    40    42   ar
    87    39    36    1
    88   121   120    1
    89   121   122   ar
    90    55    54    1
    91    55    58    1
    92    55    56    1
    93   116   107   am
    94   116   117    1
    95    71    72    1
    96    71    74    1
    97   120   117    1
    98    77    75    1
    99   107   108    2
   100    72    73    2
   101   124   122   ar
   102   110   112   ar
   103   110   111   ar
   104    56    57    2
   105    13    14    1
   106   117   118    1
   107    36    37    1
   108    36    35    1
   109    37    38    2
   110    75    74    1
   111    75    76    1
   112   118   119    2
   113   112   114   ar
   114    16    14    1
   115   133   132    1
   116   111   113   ar
   117    14    15    1
   118   132   134    1
   119   132   129    1
   120   114   115   ar
   121   128   129    1
   122   113   115   ar
   123   142   140    1
   124   129   130    1
   125   140   139    1
   126   131   130    2
   127   139   141    1
   128   139   136    1
   129   135   136    1
   130   136   137    1
   131   138   137    2
