@<TRIPOS>MOLECULE
tmp/6d31A00.pdb
 141 139 0 0 0
SMALL
GASTEIGER

@<TRIPOS>ATOM
      1  N         -7.2950   22.3340   55.8490 N.3     7  HIS7       -0.1241
      2  CA        -7.7000   20.9300   55.6490 C.3     7  HIS7        0.1621
      3  C         -9.2210   20.9180   55.5950 C.2     7  HIS7        0.2264
      4  O         -9.8630   21.5610   56.3850 O.2     7  HIS7       -0.2867
      5  CB        -7.2160   20.1410   56.8410 C.3     7  HIS7        0.0745
      6  CG        -7.4780   18.6840   56.7910 C.ar    7  HIS7        0.0817
      7  ND1       -7.6410   17.9800   57.9520 N.ar    7  HIS7       -0.2268
      8  CD2       -7.5700   17.7870   55.8080 C.ar    7  HIS7        0.1154
      9  CE1       -7.8050   16.7100   57.7010 C.ar    7  HIS7        0.1986
     10  NE2       -7.8010   16.5630   56.3980 N.ar    7  HIS7       -0.2212
     11  N         -8.1990    9.4650   68.6250 N.3    39  MET39      -0.1245
     12  CA        -8.4320   10.7740   68.0520 C.3    39  MET39       0.1570
     13  C         -9.3450   11.5690   68.9680 C.2    39  MET39       0.2261
     14  O        -10.1920   11.0110   69.6610 O.2    39  MET39      -0.2867
     15  CB        -9.1940   10.6300   66.7590 C.3    39  MET39       0.0387
     16  CG        -8.3880   10.7530   65.5740 C.3    39  MET39       0.0595
     17  SD        -6.9940    9.6590   65.3240 S.3    39  MET39      -0.1393
     18  CE        -6.1220   10.6700   64.2370 C.3    39  MET39       0.0692
     19  N        -13.1130   12.7330   61.6700 N.3    43  HIS43      -0.1241
     20  CA       -13.2640   13.3930   60.3790 C.3    43  HIS43       0.1621
     21  C        -13.0370   12.3690   59.2830 C.2    43  HIS43       0.2264
     22  O        -12.3360   11.3680   59.4810 O.2    43  HIS43      -0.2867
     23  CB       -12.2350   14.5460   60.2370 C.3    43  HIS43       0.0745
     24  CG       -10.8090   14.0760   60.2220 C.ar   43  HIS43       0.0817
     25  ND1      -10.0720   13.8920   61.3730 N.ar   43  HIS43      -0.2268
     26  CD2       -9.9850   13.7430   59.1920 C.ar   43  HIS43       0.1154
     27  CE1       -8.8710   13.4270   61.0640 C.ar   43  HIS43       0.1986
     28  NE2       -8.7880   13.3160   59.7490 N.ar   43  HIS43      -0.2212
     29  N        -11.3630   13.0040   55.6790 N.3    45  SER45      -0.1217
     30  CA       -10.6820   13.9900   54.8550 C.3    45  SER45       0.1889
     31  C        -11.2090   14.0550   53.4170 C.2    45  SER45       0.2288
     32  O        -11.3800   13.0380   52.7770 O.2    45  SER45      -0.2866
     33  CB        -9.1920   13.7540   54.8640 C.3    45  SER45       0.2089
     34  OG        -8.7310   13.9680   56.1660 O.3    45  SER45      -0.2183
     35  N         -3.4410    2.8350   58.1220 N.3    84  TYR84      -0.1227
     36  CA        -2.8920    3.8560   57.2660 C.3    84  TYR84       0.1736
     37  C         -1.5970    4.3530   57.8590 C.2    84  TYR84       0.2596
     38  O         -1.4540    4.3600   59.0750 O.2    84  TYR84      -0.2718
     39  CB        -3.8190    5.0860   57.1290 C.3    84  TYR84       0.0548
     40  CG        -5.1160    4.7070   56.5000 C.ar   84  TYR84      -0.0200
     41  CD1       -5.2860    4.8610   55.1160 C.ar   84  TYR84      -0.0009
     42  CD2       -6.2130    4.2580   57.2370 C.ar   84  TYR84      -0.0009
     43  CE1       -6.5120    4.5460   54.5150 C.ar   84  TYR84       0.0417
     44  CE2       -7.4490    3.9780   56.6170 C.ar   84  TYR84       0.0417
     45  CZ        -7.5280    4.0910   55.2330 C.ar   84  TYR84       0.1957
     46  OH        -8.7830    3.8540   54.6830 O.3    84  TYR84      -0.2866
     47  N         -0.6950    4.8020   57.0100 N.am   85  THR85      -0.1939
     48  CA         0.4330    5.6050   57.4370 C.3    85  THR85       0.2028
     49  C          0.3730    6.9160   56.6840 C.2    85  THR85       0.2642
     50  O         -0.2010    7.0400   55.5930 O.2    85  THR85      -0.2714
     51  CB         1.7920    4.9610   57.1990 C.3    85  THR85       0.1808
     52  OG1        1.8840    4.6010   55.8230 O.3    85  THR85      -0.2208
     53  CG2        1.9430    3.7000   57.9810 C.3    85  THR85       0.0379
     54  N          0.9630    7.9290   57.2930 N.am   86  ASN86      -0.1957
     55  CA         1.2210    9.1240   56.5200 C.3    86  ASN86       0.1819
     56  C          2.3170    8.8430   55.4850 C.2    86  ASN86       0.2621
     57  O          2.8960    7.7450   55.4080 O.2    86  ASN86      -0.2715
     58  CB         1.5480   10.3150   57.4120 C.3    86  ASN86       0.1195
     59  CG         2.8370   10.1280   58.1960 C.2    86  ASN86       0.2630
     60  OD1        3.5260    9.1000   58.0820 O.2    86  ASN86      -0.2716
     61  ND2        3.1740   11.1270   58.9520 N.am   86  ASN86      -0.0877
     62  N          2.5730    9.8500   54.6460 N.am   87  GLN87      -0.1977
     63  CA         3.4690    9.5990   53.5200 C.3    87  GLN87       0.1601
     64  C          4.8860    9.2660   53.9680 C.2    87  GLN87       0.2287
     65  O          5.5500    8.4280   53.3510 O.2    87  GLN87      -0.2864
     66  CB         3.4230   10.7980   52.5700 C.3    87  GLN87       0.0394
     67  CG         4.4610   10.8560   51.5020 C.3    87  GLN87       0.0908
     68  CD         4.3170   12.1460   50.6630 C.2    87  GLN87       0.2608
     69  OE1        3.2030   12.6700   50.4770 O.2    87  GLN87      -0.2717
     70  NE2        5.4300   12.6520   50.1480 N.am   87  GLN87      -0.0878
     71  N         -2.1420    5.0600   61.6110 N.3    93  PHE93      -0.1241
     72  CA        -3.5020    5.2990   61.9740 C.3    93  PHE93       0.1605
     73  C         -4.2860    4.0090   61.8310 C.2    93  PHE93       0.2264
     74  O         -4.0820    3.2510   60.8870 O.2    93  PHE93      -0.2867
     75  CB        -4.1770    6.3520   61.0400 C.3    93  PHE93       0.0534
     76  CG        -3.4690    7.6460   61.0020 C.ar   93  PHE93      -0.0203
     77  CD1       -3.8610    8.7150   61.7870 C.ar   93  PHE93      -0.0042
     78  CD2       -2.3540    7.8020   60.2170 C.ar   93  PHE93      -0.0042
     79  CE1       -3.1650    9.9150   61.7610 C.ar   93  PHE93      -0.0003
     80  CE2       -1.6650    8.9880   60.2310 C.ar   93  PHE93      -0.0003
     81  CZ        -2.0880   10.0320   60.9820 C.ar   93  PHE93      -0.0000
     82  N         -6.3010   16.1580   46.0840 N.3   124  PHE124     -0.1227
     83  CA        -6.3200   15.0030   46.9760 C.3   124  PHE124      0.1736
     84  C         -5.6000   13.8320   46.2950 C.2   124  PHE124      0.2595
     85  O         -5.3610   13.8050   45.0690 O.2   124  PHE124     -0.2718
     86  CB        -7.7710   14.6110   47.3170 C.3   124  PHE124      0.0547
     87  CG        -7.9340   13.7960   48.5960 C.ar  124  PHE124     -0.0202
     88  CD1       -7.3070   14.1700   49.7880 C.ar  124  PHE124     -0.0042
     89  CD2       -8.7150   12.6720   48.5860 C.ar  124  PHE124     -0.0042
     90  CE1       -7.5270   13.4270   50.9470 C.ar  124  PHE124     -0.0003
     91  CE2       -8.9290   11.9830   49.7900 C.ar  124  PHE124     -0.0003
     92  CZ        -8.3000   12.3770   50.9570 C.ar  124  PHE124     -0.0000
     93  N         -5.3420   12.8080   47.0830 N.am  125  TYR125     -0.1976
     94  CA        -4.7190   11.5950   46.5230 C.3   125  TYR125      0.1639
     95  C         -5.4930   11.0700   45.3400 C.2   125  TYR125      0.2290
     96  O         -6.6960   11.0810   45.3640 O.2   125  TYR125     -0.2864
     97  CB        -4.7510   10.5430   47.6300 C.3   125  TYR125      0.0560
     98  CG        -4.1330   11.0520   48.8870 C.ar  125  TYR125     -0.0198
     99  CD1       -2.7850   11.4410   48.9210 C.ar  125  TYR125     -0.0009
    100  CD2       -4.8850   11.2960   50.0080 C.ar  125  TYR125     -0.0009
    101  CE1       -2.2190   11.9600   50.0490 C.ar  125  TYR125      0.0417
    102  CE2       -4.3280   11.8060   51.1370 C.ar  125  TYR125      0.0417
    103  CZ        -2.9910   12.1260   51.1570 C.ar  125  TYR125      0.1957
    104  OH        -2.4680   12.6110   52.3010 O.3   125  TYR125     -0.2866
    105  N         -5.5900    7.9350   44.4030 N.3   127  ASP127     -0.1225
    106  CA        -6.1180    6.6580   44.8260 C.3   127  ASP127      0.1790
    107  C         -6.6850    6.8540   46.2320 C.2   127  ASP127      0.2440
    108  O         -6.2020    6.2630   47.2050 O.2   127  ASP127     -0.2733
    109  CB        -5.0330    5.5750   44.8400 C.3   127  ASP127      0.1423
    110  CG        -4.2940    5.4420   43.5200 C.2   127  ASP127      0.3668
    111  OD1       -4.8780    5.8050   42.4970 O.co2 127  ASP127     -0.2456
    112  OD2       -3.1290    4.9400   43.5240 O.co2 127  ASP127     -0.2456
    113  N         -7.7030    7.6790   46.3950 N.am  128  PRO128     -0.2718
    114  CA        -8.1640    7.9880   47.7450 C.3   128  PRO128      0.1535
    115  C         -8.7950    6.8080   48.4090 C.2   128  PRO128      0.2599
    116  O         -9.5180    6.0290   47.7950 O.2   128  PRO128     -0.2715
    117  CB        -9.1430    9.1090   47.5300 C.3   128  PRO128      0.0310
    118  CG        -9.6870    8.8110   46.2360 C.3   128  PRO128      0.0237
    119  CD        -8.5220    8.3550   45.3930 C.3   128  PRO128      0.0939
    120  N         -8.5480    6.7090   49.7090 N.am  129  SER129     -0.1950
    121  CA        -9.1870    5.7110   50.5490 C.3   129  SER129      0.1924
    122  C         -9.8420    6.5000   51.6530 C.2   129  SER129      0.2314
    123  O         -9.1740    6.9050   52.5820 O.2   129  SER129     -0.2863
    124  CB        -8.1770    4.7220   51.0370 C.3   129  SER129      0.2116
    125  OG        -8.7590    3.8780   52.0040 O.3   129  SER129     -0.2180
    126  N        -11.7360    7.5150   54.9150 N.3   131  HIS131     -0.1241
    127  CA       -11.7550    6.7720   56.1600 C.3   131  HIS131      0.1621
    128  C        -11.9530    7.7240   57.3020 C.2   131  HIS131      0.2264
    129  O        -11.6270    8.9090   57.2260 O.2   131  HIS131     -0.2867
    130  CB       -10.4410    6.0150   56.4120 C.3   131  HIS131      0.0745
    131  CG        -9.2380    6.8740   56.3950 C.ar  131  HIS131      0.0817
    132  ND1       -8.6360    7.3210   55.2400 N.ar  131  HIS131     -0.2268
    133  CD2       -8.5740    7.4800   57.4120 C.ar  131  HIS131      0.1154
    134  CE1       -7.5960    8.0840   55.5380 C.ar  131  HIS131      0.1986
    135  NE2       -7.5610    8.2200   56.8490 N.ar  131  HIS131     -0.2212
    136  N        -10.3320    7.9860   60.7780 N.3   133  SER133     -0.1217
    137  CA        -9.2670    7.5550   61.6970 C.3   133  SER133      0.1889
    138  C         -9.7810    7.5180   63.1090 C.2   133  SER133      0.2288
    139  O        -10.4660    8.4090   63.5660 O.2   133  SER133     -0.2866
    140  CB        -8.0710    8.4790   61.6310 C.3   133  SER133      0.2089
    141  OG        -7.4570    8.2860   60.3600 O.3   133  SER133     -0.2183
@<TRIPOS>BOND
     1   111   110   ar
     2   110   112   ar
     3   110   109    1
     4   105   106    1
     5   106   109    1
     6   106   107    1
     7    85    84    2
     8    95    96    2
     9    95    94    1
    10   119   118    1
    11   119   113    1
    12    82    83    1
    13   107   113   am
    14   107   108    2
    15   118   117    1
    16    84    83    1
    17    84    93   am
    18   113   114    1
    19    94    93    1
    20    94    97    1
    21    83    86    1
    22    86    87    1
    23   117   114    1
    24    97    98    1
    25   114   115    1
    26   116   115    2
    27   115   120   am
    28    89    87   ar
    29    89    91   ar
    30    87    88   ar
    31    98    99   ar
    32    98   100   ar
    33    99   101   ar
    34   120   121    1
    35    88    90   ar
    36    91    92   ar
    37   100   102   ar
    38   101   103   ar
    39    70    68   am
    40    69    68    2
    41   121   124    1
    42   121   122    1
    43    68    67    1
    44    90    92   ar
    45   124   125    1
    46   102   103   ar
    47   103   104    1
    48    67    66    1
    49   122   123    2
    50    66    63    1
    51    32    31    2
    52    65    64    2
    53    31    30    1
    54    63    64    1
    55    63    62    1
    56    43    41   ar
    57    43    45   ar
    58    62    56   am
    59    46    45    1
    60    30    33    1
    61    30    29    1
    62    33    34    1
    63   126   127    1
    64    41    40   ar
    65    45    44   ar
    66   132   134   ar
    67   132   131   ar
    68    57    56    2
    69    56    55    1
    70   134   135   ar
    71    50    49    2
    72     3     2    1
    73     3     4    2
    74     2     1    1
    75     2     5    1
    76     8    10   ar
    77     8     6   ar
    78    52    51    1
    79   127   130    1
    80   127   128    1
    81   131   130    1
    82   131   133   ar
    83    10     9   ar
    84    40    39    1
    85    40    42   ar
    86    55    54    1
    87    55    58    1
    88    44    42   ar
    89    49    54   am
    90    49    48    1
    91     6     5    1
    92     6     7   ar
    93   135   133   ar
    94    47    48    1
    95    47    37   am
    96    39    36    1
    97    51    48    1
    98    51    53    1
    99   129   128    2
   100    36    37    1
   101    36    35    1
   102    58    59    1
   103     9     7   ar
   104    37    38    2
   105    60    59    2
   106    59    61   am
   107    26    28   ar
   108    26    24   ar
   109    21    22    2
   110    21    20    1
   111    28    27   ar
   112    78    80   ar
   113    78    76   ar
   114    24    23    1
   115    24    25   ar
   116    80    81   ar
   117    23    20    1
   118   141   140    1
   119    20    19    1
   120   136   137    1
   121    74    73    2
   122    81    79   ar
   123    76    75    1
   124    76    77   ar
   125    75    72    1
   126    27    25   ar
   127    71    72    1
   128   140   137    1
   129   137   138    1
   130    79    77   ar
   131    73    72    1
   132   138   139    2
   133    18    17    1
   134    17    16    1
   135    16    15    1
   136    15    12    1
   137    12    11    1
   138    12    13    1
   139    13    14    2
