@<TRIPOS>MOLECULE
tmp/6d32A00.pdb
 120 116 0 0 0
SMALL
GASTEIGER

@<TRIPOS>ATOM
      1  N          0.7390  -23.1580   55.6900 N.3    33  ASP33      -0.1239
      2  CA         0.4960  -21.9940   54.8480 C.3    33  ASP33       0.1674
      3  C          0.0900  -22.4460   53.4500 C.2    33  ASP33       0.2266
      4  O         -0.0390  -21.6330   52.5340 O.2    33  ASP33      -0.2867
      5  CB         1.7330  -21.0950   54.7850 C.3    33  ASP33       0.1410
      6  CG         2.8620  -21.7060   53.9780 C.2    33  ASP33       0.3668
      7  OD1        3.0180  -22.9460   54.0050 O.co2  33  ASP33      -0.2456
      8  OD2        3.5970  -20.9430   53.3160 O.co2  33  ASP33      -0.2456
      9  N          5.3300  -21.5590   47.6080 N.3    43  LYS43      -0.1245
     10  CA         5.9970  -21.1920   48.8510 C.3    43  LYS43       0.1561
     11  C          7.4730  -21.5420   48.7710 C.2    43  LYS43       0.2260
     12  O          8.3150  -20.8090   49.2780 O.2    43  LYS43      -0.2867
     13  CB         5.3600  -21.8890   50.0580 C.3    43  LYS43       0.0271
     14  CG         3.8640  -21.6720   50.2050 C.3    43  LYS43       0.0035
     15  CD         3.4640  -20.2340   49.9260 C.3    43  LYS43       0.0206
     16  CE         1.9630  -20.1220   49.7120 C.3    43  LYS43       0.1093
     17  NZ         1.5890  -18.8220   49.0930 N.3    43  LYS43      -0.1314
     18  N          9.1430  -19.0300   46.9640 N.3    46  LEU46      -0.1231
     19  CA         9.3790  -17.8780   47.8290 C.3    46  LEU46       0.1693
     20  C         10.6180  -18.0970   48.6930 C.2    46  LEU46       0.2592
     21  O         11.4050  -17.1760   48.9130 O.2    46  LEU46      -0.2718
     22  CB         8.1590  -17.6120   48.7100 C.3    46  LEU46       0.0284
     23  CG         6.9300  -17.0370   48.0070 C.3    46  LEU46       0.0019
     24  CD1        5.6930  -17.2000   48.8610 C.3    46  LEU46       0.0001
     25  CD2        7.1590  -15.5760   47.6600 C.3    46  LEU46       0.0001
     26  N         10.7850  -19.3280   49.1700 N.am   47  TRP47      -0.1976
     27  CA        11.9570  -19.7070   49.9490 C.3    47  TRP47       0.1640
     28  C         13.1940  -19.7640   49.0650 C.2    47  TRP47       0.2290
     29  O         14.3190  -19.7650   49.5610 O.2    47  TRP47      -0.2864
     30  CB        11.7460  -21.0630   50.6310 C.3    47  TRP47       0.0576
     31  CG        10.8380  -21.0250   51.8200 C.ar   47  TRP47       0.0006
     32  CD1        9.5490  -21.4640   51.8810 C.ar   47  TRP47       0.0946
     33  CD2       11.1540  -20.5240   53.1260 C.ar   47  TRP47       0.0152
     34  NE1        9.0410  -21.2660   53.1420 N.ar   47  TRP47      -0.2442
     35  CE2       10.0050  -20.6910   53.9240 C.ar   47  TRP47       0.0810
     36  CE3       12.2960  -19.9500   53.6940 C.ar   47  TRP47       0.0012
     37  CZ2        9.9670  -20.3020   55.2630 C.ar   47  TRP47       0.0191
     38  CZ3       12.2550  -19.5660   55.0240 C.ar   47  TRP47       0.0001
     39  CH2       11.1000  -19.7470   55.7930 C.ar   47  TRP47       0.0015
     40  N         14.4660  -17.5290   47.1100 N.3    49  GLY49      -0.1210
     41  CA        15.2590  -16.3100   47.1720 C.3    49  GLY49       0.1956
     42  C         16.3180  -16.2820   48.2630 C.2    49  GLY49       0.2611
     43  O         17.1220  -15.3520   48.3350 O.2    49  GLY49      -0.2717
     44  N         16.3200  -17.3050   49.1110 N.am   50  LEU50      -0.1979
     45  CA        17.2770  -17.4120   50.2040 C.3    50  LEU50       0.1596
     46  C         18.5770  -18.0620   49.7270 C.2    50  LEU50       0.2287
     47  O         19.5830  -18.0470   50.4350 O.2    50  LEU50      -0.2864
     48  CB        16.6590  -18.2070   51.3590 C.3    50  LEU50       0.0297
     49  CG        17.2640  -18.1390   52.7620 C.3    50  LEU50       0.0022
     50  CD1       16.1560  -18.1930   53.7990 C.3    50  LEU50       0.0001
     51  CD2       18.2430  -19.2790   52.9850 C.3    50  LEU50       0.0001
     52  N          7.4820  -29.1560   53.6850 N.3    68  TYR68      -0.1241
     53  CA         6.6110  -28.8550   52.5550 C.3    68  TYR68       0.1605
     54  C          6.3250  -30.0730   51.6810 C.2    68  TYR68       0.2264
     55  O          5.2070  -30.2490   51.1980 O.2    68  TYR68      -0.2867
     56  CB         7.2180  -27.7380   51.7080 C.3    68  TYR68       0.0534
     57  CG         6.9580  -26.3590   52.2620 C.ar   68  TYR68      -0.0201
     58  CD1        7.9180  -25.6990   53.0150 C.ar   68  TYR68      -0.0009
     59  CD2        5.7440  -25.7200   52.0390 C.ar   68  TYR68      -0.0009
     60  CE1        7.6800  -24.4360   53.5240 C.ar   68  TYR68       0.0417
     61  CE2        5.4960  -24.4590   52.5460 C.ar   68  TYR68       0.0417
     62  CZ         6.4670  -23.8220   53.2860 C.ar   68  TYR68       0.1957
     63  OH         6.2190  -22.5660   53.7890 O.3    68  TYR68      -0.2866
     64  N         18.8530  -15.2000   60.1650 N.3    94  ILE94      -0.1231
     65  CA        18.4430  -14.1120   59.2840 C.3    94  ILE94       0.1692
     66  C         16.9260  -14.1070   59.0830 C.2    94  ILE94       0.2591
     67  O         16.2830  -13.0560   59.1690 O.2    94  ILE94      -0.2718
     68  CB        19.1630  -14.2030   57.9100 C.3    94  ILE94       0.0266
     69  CG1       18.6160  -13.1610   56.9330 C.3    94  ILE94       0.0019
     70  CG2       19.0710  -15.6110   57.3250 C.3    94  ILE94       0.0020
     71  CD1       19.0230  -11.7430   57.2710 C.3    94  ILE94       0.0001
     72  N         16.3590  -15.2890   58.8500 N.am   95  VAL95      -0.1980
     73  CA        14.9180  -15.4380   58.6710 C.3    95  VAL95       0.1595
     74  C         14.1660  -14.9080   59.8840 C.2    95  VAL95       0.2287
     75  O         13.1110  -14.2880   59.7540 O.2    95  VAL95      -0.2864
     76  CB        14.5250  -16.9110   58.4390 C.3    95  VAL95       0.0276
     77  CG1       13.0350  -17.0260   58.1400 C.3    95  VAL95       0.0022
     78  CG2       15.3440  -17.5040   57.3080 C.3    95  VAL95       0.0022
     79  N         14.2850  -10.7600   59.8760 N.3    98  GLU98      -0.1231
     80  CA        13.7010   -9.9300   58.8310 C.3    98  GLU98       0.1699
     81  C         12.1950  -10.0650   58.6890 C.2    98  GLU98       0.2592
     82  O         11.5220   -9.1040   58.3200 O.2    98  GLU98      -0.2718
     83  CB        14.3680  -10.2390   57.4940 C.3    98  GLU98       0.0402
     84  CG        15.8510   -9.9070   57.4830 C.3    98  GLU98       0.1161
     85  CD        16.4060   -9.7490   56.0920 C.2    98  GLU98       0.3649
     86  OE1       17.4270   -9.0450   55.9470 O.co2  98  GLU98      -0.2457
     87  OE2       15.8250  -10.3130   55.1450 O.co2  98  GLU98      -0.2457
     88  N         11.6640  -11.2470   58.9780 N.am   99  ARG99      -0.1966
     89  CA        10.2260  -11.4460   58.8890 C.3    99  ARG99       0.1729
     90  C          9.7430  -12.4870   59.8870 C.2    99  ARG99       0.2616
     91  O          8.5600  -12.8240   59.9230 O.2    99  ARG99      -0.2715
     92  CB         9.8340  -11.8570   57.4720 C.3    99  ARG99       0.0348
     93  CG         8.4850  -11.3140   57.0330 C.3    99  ARG99       0.0492
     94  CD         8.0430  -11.9290   55.7220 C.3    99  ARG99       0.2205
     95  NE         7.4960  -10.9280   54.8150 N.pl3  99  ARG99      -0.0865
     96  CZ         8.1950  -10.3380   53.8520 C.cat  99  ARG99       0.5346
     97  NH1        9.4690  -10.6560   53.6630 N.pl3  99  ARG99       0.1354
     98  NH2        7.6180   -9.4360   53.0720 N.pl3  99  ARG99       0.1354
     99  N         10.6680  -12.9910   60.6970 N.am  100  GLY100     -0.1955
    100  CA        10.3340  -13.9750   61.7090 C.3   100  GLY100      0.1869
    101  C         10.0640  -15.3450   61.1210 C.2   100  GLY100      0.2309
    102  O         10.0800  -15.5290   59.9030 O.2   100  GLY100     -0.2863
    103  N          7.6160  -18.6740   60.4570 N.3   102  PRO102     -0.2116
    104  CA         6.2630  -19.2320   60.4310 C.3   102  PRO102      0.1372
    105  C          6.0540  -20.1430   61.6330 C.2   102  PRO102      0.2244
    106  O          7.0020  -20.7910   62.0770 O.2   102  PRO102     -0.2868
    107  CB         6.2300  -20.0200   59.1200 C.3   102  PRO102      0.0268
    108  CG         7.2420  -19.3450   58.2570 C.3   102  PRO102      0.0207
    109  CD         8.3320  -18.8960   59.1890 C.3   102  PRO102      0.0892
    110  N          4.5420  -22.9220   62.0190 N.3   104  PHE104     -0.1241
    111  CA         4.7100  -24.3460   61.7600 C.3   104  PHE104      0.1605
    112  C          6.1730  -24.6790   61.4770 C.2   104  PHE104      0.2264
    113  O          6.5290  -25.8430   61.2920 O.2   104  PHE104     -0.2867
    114  CB         3.8160  -24.7990   60.5980 C.3   104  PHE104      0.0534
    115  CG         4.1460  -24.1520   59.2810 C.ar  104  PHE104     -0.0203
    116  CD1        3.6560  -22.8960   58.9680 C.ar  104  PHE104     -0.0042
    117  CD2        4.9260  -24.8130   58.3460 C.ar  104  PHE104     -0.0042
    118  CE1        3.9530  -22.3040   57.7550 C.ar  104  PHE104     -0.0003
    119  CE2        5.2250  -24.2260   57.1310 C.ar  104  PHE104     -0.0003
    120  CZ         4.7380  -22.9700   56.8360 C.ar  104  PHE104     -0.0000
@<TRIPOS>BOND
     1    18    19    1
     2    40    41    1
     3    41    42    1
     4     9    10    1
     5    25    23    1
     6    19    20    1
     7    19    22    1
     8    23    22    1
     9    23    24    1
    10    42    43    2
    11    42    44   am
    12    20    21    2
    13    20    26   am
    14    11    10    1
    15    11    12    2
    16    10    13    1
    17    28    29    2
    18    28    27    1
    19    17    16    1
    20    44    45    1
    21    26    27    1
    22    16    15    1
    23    46    45    1
    24    46    47    2
    25    15    14    1
    26    27    30    1
    27    13    14    1
    28    45    48    1
    29    30    31    1
    30    55    54    2
    31    48    49    1
    32    54    53    1
    33    56    57    1
    34    56    53    1
    35    31    32   ar
    36    31    33   ar
    37    32    34   ar
    38    59    57   ar
    39    59    61   ar
    40    57    58   ar
    41     4     3    2
    42    61    62   ar
    43    53    52    1
    44    49    51    1
    45    49    50    1
    46    58    60   ar
    47    98    96    1
    48    33    36   ar
    49    33    35   ar
    50    34    35   ar
    51    62    60   ar
    52    62    63    1
    53     8     6   ar
    54     3     2    1
    55    97    96    1
    56    36    38   ar
    57    96    95    2
    58    35    37   ar
    59     6     7   ar
    60     6     5    1
    61     5     2    1
    62    95    94    1
    63     2     1    1
    64    38    39   ar
    65    87    85   ar
    66    37    39   ar
    67    94    93    1
    68    86    85   ar
    69    85    84    1
    70   120   119   ar
    71   120   118   ar
    72    69    71    1
    73    69    68    1
    74    93    92    1
    75   119   117   ar
    76    78    76    1
    77    70    68    1
    78    92    89    1
    79    84    83    1
    80    83    80    1
    81   118   116   ar
    82    68    65    1
    83    77    76    1
    84   108   107    1
    85   108   109    1
    86    82    81    2
    87   117   115   ar
    88    76    73    1
    89    73    72    1
    90    73    74    1
    91    81    80    1
    92    81    88   am
    93    80    79    1
    94    72    66   am
    95    89    88    1
    96    89    90    1
    97   116   115   ar
    98    66    67    2
    99    66    65    1
   100   107   104    1
   101   109   103    1
   102   115   114    1
   103    65    64    1
   104    75    74    2
   105    90    91    2
   106    90    99   am
   107   102   101    2
   108   104   103    1
   109   104   105    1
   110   114   111    1
   111    99   100    1
   112   101   100    1
   113   113   112    2
   114   112   111    1
   115   105   106    2
   116   111   110    1
