@<TRIPOS>MOLECULE
tmp/6d32A01.pdb
 202 194 0 0 0
SMALL
GASTEIGER

@<TRIPOS>ATOM
      1  N         20.2900  -32.1880   34.4650 N.3   145  TYR145     -0.1241
      2  CA        18.9960  -32.6970   34.0200 C.3   145  TYR145      0.1605
      3  C         17.8420  -31.9670   34.7000 C.2   145  TYR145      0.2264
      4  O         17.6850  -32.0410   35.9180 O.2   145  TYR145     -0.2867
      5  CB        18.8940  -34.2020   34.2840 C.3   145  TYR145      0.0534
      6  CG        17.5680  -34.8130   33.8900 C.ar  145  TYR145     -0.0201
      7  CD1       17.0140  -34.5760   32.6370 C.ar  145  TYR145     -0.0009
      8  CD2       16.8780  -35.6430   34.7630 C.ar  145  TYR145     -0.0009
      9  CE1       15.8030  -35.1370   32.2720 C.ar  145  TYR145      0.0417
     10  CE2       15.6680  -36.2100   34.4070 C.ar  145  TYR145      0.0417
     11  CZ        15.1350  -35.9540   33.1600 C.ar  145  TYR145      0.1957
     12  OH        13.9320  -36.5160   32.7960 O.3   145  TYR145     -0.2866
     13  N         22.5600  -35.7590   32.8520 N.3   153  ILE153     -0.1245
     14  CA        22.0180  -36.9130   32.1400 C.3   153  ILE153      0.1561
     15  C         23.1250  -37.6190   31.3490 C.2   153  ILE153      0.2260
     16  O         23.7570  -37.0210   30.4790 O.2   153  ILE153     -0.2867
     17  CB        20.8500  -36.4930   31.2160 C.3   153  ILE153      0.0252
     18  CG1       20.3580  -37.6820   30.3970 C.3   153  ILE153      0.0019
     19  CG2       21.2320  -35.3010   30.3420 C.3   153  ILE153      0.0019
     20  CD1       19.7120  -38.7570   31.2310 C.3   153  ILE153      0.0001
     21  N         23.5790  -43.9080   25.5820 N.3   157  ASN157     -0.1226
     22  CA        22.1290  -44.0630   25.5570 C.3   157  ASN157      0.1770
     23  C         21.6210  -44.9800   26.6680 C.2   157  ASN157      0.2439
     24  O         21.9660  -46.1600   26.7120 O.2   157  ASN157     -0.2733
     25  CB        21.6850  -44.5970   24.1940 C.3   157  ASN157      0.1168
     26  CG        20.2340  -44.2910   23.8930 C.2   157  ASN157      0.2627
     27  OD1       19.3740  -44.3620   24.7690 O.2   157  ASN157     -0.2716
     28  ND2       19.9550  -43.9440   22.6440 N.am  157  ASN157     -0.0877
     29  N         20.8000  -44.4290   27.5780 N.am  158  PRO158     -0.2718
     30  CA        20.2480  -45.1730   28.7160 C.3   158  PRO158      0.1535
     31  C         19.0160  -46.0070   28.3640 C.2   158  PRO158      0.2598
     32  O         18.2520  -46.3640   29.2600 O.2   158  PRO158     -0.2715
     33  CB        19.8820  -44.0630   29.7020 C.3   158  PRO158      0.0310
     34  CG        19.5380  -42.9070   28.8350 C.3   158  PRO158      0.0237
     35  CD        20.4390  -43.0000   27.6300 C.3   158  PRO158      0.0939
     36  N         18.8290  -46.3090   27.0830 N.am  159  LEU159     -0.1964
     37  CA        17.7060  -47.1320   26.6480 C.3   159  LEU159      0.1728
     38  C         18.1900  -48.4370   26.0170 C.2   159  LEU159      0.2616
     39  O         17.4100  -49.3680   25.8160 O.2   159  LEU159     -0.2715
     40  CB        16.8260  -46.3580   25.6640 C.3   159  LEU159      0.0311
     41  CG        16.0580  -45.1640   26.2390 C.3   159  LEU159      0.0022
     42  CD1       15.3150  -44.4180   25.1430 C.3   159  LEU159      0.0001
     43  CD2       15.0930  -45.6180   27.3210 C.3   159  LEU159      0.0001
     44  N         19.4820  -48.4930   25.7060 N.am  160  PHE160     -0.1974
     45  CA        20.1080  -49.7040   25.1850 C.3   160  PHE160      0.1639
     46  C         21.4360  -49.9360   25.8980 C.2   160  PHE160      0.2290
     47  O         22.2080  -48.9990   26.0870 O.2   160  PHE160     -0.2864
     48  CB        20.3370  -49.6050   23.6730 C.3   160  PHE160      0.0560
     49  CG        19.2550  -48.8640   22.9330 C.ar  160  PHE160     -0.0200
     50  CD1       19.3740  -47.5070   22.6850 C.ar  160  PHE160     -0.0042
     51  CD2       18.1300  -49.5250   22.4720 C.ar  160  PHE160     -0.0042
     52  CE1       18.3870  -46.8220   22.0000 C.ar  160  PHE160     -0.0003
     53  CE2       17.1390  -48.8450   21.7860 C.ar  160  PHE160     -0.0003
     54  CZ        17.2690  -47.4920   21.5500 C.ar  160  PHE160     -0.0000
     55  N         25.6570  -36.6290   27.4770 N.3   239  MET239     -0.1245
     56  CA        25.3490  -36.6170   26.0460 C.3   239  MET239      0.1570
     57  C         25.0530  -35.2210   25.5070 C.2   239  MET239      0.2261
     58  O         24.3410  -34.4360   26.1340 O.2   239  MET239     -0.2867
     59  CB        24.1670  -37.5440   25.7520 C.3   239  MET239      0.0387
     60  CG        22.9120  -37.2300   26.5510 C.3   239  MET239      0.0595
     61  SD        21.5560  -38.3580   26.1780 S.3   239  MET239     -0.1393
     62  CE        21.3870  -38.1130   24.4140 C.3   239  MET239      0.0692
     63  N         23.3910  -32.3290   23.7960 N.3   241  LEU241     -0.1245
     64  CA        22.0120  -32.0000   23.4740 C.3   241  LEU241      0.1561
     65  C         21.8840  -30.5040   23.2290 C.2   241  LEU241      0.2260
     66  O         22.5940  -29.7060   23.8420 O.2   241  LEU241     -0.2867
     67  CB        21.0750  -32.4380   24.6010 C.3   241  LEU241      0.0270
     68  CG        21.0020  -33.9340   24.9160 C.3   241  LEU241      0.0019
     69  CD1       20.4490  -34.1560   26.3130 C.3   241  LEU241      0.0001
     70  CD2       20.1550  -34.6600   23.8860 C.3   241  LEU241      0.0001
     71  N         23.0730  -35.7610   20.2290 N.3   314  GLY314     -0.1210
     72  CA        24.0640  -36.8030   20.0260 C.3   314  GLY314      0.1956
     73  C         23.5920  -38.1970   20.4030 C.2   314  GLY314      0.2611
     74  O         23.0970  -38.4230   21.5080 O.2   314  GLY314     -0.2717
     75  N         23.7460  -39.1380   19.4770 N.am  315  ASP315     -0.1973
     76  CA        23.4010  -40.5310   19.7390 C.3   315  ASP315      0.1709
     77  C         24.6340  -41.4270   19.7490 C.2   315  ASP315      0.2293
     78  O         25.4560  -41.3960   18.8210 O.2   315  ASP315     -0.2864
     79  CB        22.4020  -41.0550   18.7070 C.3   315  ASP315      0.1436
     80  CG        22.0280  -42.5070   18.9500 C.2   315  ASP315      0.3671
     81  OD1       21.9500  -42.9140   20.1300 O.co2 315  ASP315     -0.2456
     82  OD2       21.8290  -43.2470   17.9660 O.co2 315  ASP315     -0.2456
     83  N         24.4010  -44.8340   20.0540 N.3   317  VAL317     -0.1231
     84  CA        24.0770  -46.0630   19.3430 C.3   317  VAL317      0.1692
     85  C         24.4590  -45.9340   17.8720 C.2   317  VAL317      0.2592
     86  O         25.2230  -46.7450   17.3430 O.2   317  VAL317     -0.2718
     87  CB        22.5860  -46.4050   19.4710 C.3   317  VAL317      0.0266
     88  CG1       22.2890  -47.7220   18.7820 C.3   317  VAL317      0.0020
     89  CG2       22.1980  -46.4710   20.9350 C.3   317  VAL317      0.0020
     90  N         23.9390  -44.8990   17.2200 N.am  318  SER318     -0.1952
     91  CA        24.3220  -44.6030   15.8460 C.3   318  SER318      0.1924
     92  C         25.7510  -44.0790   15.8150 C.2   318  SER318      0.2314
     93  O         26.4830  -44.2920   14.8490 O.2   318  SER318     -0.2863
     94  CB        23.3680  -43.5870   15.2140 C.3   318  SER318      0.2116
     95  OG        23.4010  -42.3580   15.9170 O.3   318  SER318     -0.2180
     96  N         16.4480  -35.4890   17.9670 N.3   325  TYR325     -0.1227
     97  CA        16.3270  -36.6970   18.7720 C.3   325  TYR325      0.1736
     98  C         15.4330  -36.4100   19.9720 C.2   325  TYR325      0.2595
     99  O         14.3270  -36.9400   20.0740 O.2   325  TYR325     -0.2718
    100  CB        17.6980  -37.1930   19.2320 C.3   325  TYR325      0.0548
    101  CG        18.5180  -37.8670   18.1530 C.ar  325  TYR325     -0.0200
    102  CD1       17.9090  -38.6010   17.1430 C.ar  325  TYR325     -0.0009
    103  CD2       19.9030  -37.7730   18.1490 C.ar  325  TYR325     -0.0009
    104  CE1       18.6570  -39.2200   16.1580 C.ar  325  TYR325      0.0417
    105  CE2       20.6590  -38.3870   17.1680 C.ar  325  TYR325      0.0417
    106  CZ        20.0320  -39.1100   16.1770 C.ar  325  TYR325      0.1957
    107  OH        20.7890  -39.7210   15.2040 O.3   325  TYR325     -0.2866
    108  N         15.9310  -35.5650   20.8710 N.am  326  LYS326     -0.1980
    109  CA        15.2000  -35.1270   22.0570 C.3   326  LYS326      0.1596
    110  C         13.7920  -34.6550   21.7150 C.2   326  LYS326      0.2287
    111  O         12.8030  -35.2160   22.1930 O.2   326  LYS326     -0.2864
    112  CB        15.9760  -34.0090   22.7540 C.3   326  LYS326      0.0298
    113  CG        15.2670  -33.3620   23.9280 C.3   326  LYS326      0.0038
    114  CD        15.7030  -31.9120   24.0660 C.3   326  LYS326      0.0206
    115  CE        15.4540  -31.3790   25.4650 C.3   326  LYS326      0.1093
    116  NZ        16.3800  -32.0050   26.4490 N.3   326  LYS326     -0.1314
    117  N         12.6850  -33.6270   13.8900 N.3   331  ARG331     -0.1245
    118  CA        13.1040  -34.6880   12.9860 C.3   331  ARG331      0.1563
    119  C         12.0630  -34.8760   11.8920 C.2   331  ARG331      0.2260
    120  O         12.4020  -35.0910   10.7310 O.2   331  ARG331     -0.2867
    121  CB        13.3280  -35.9940   13.7520 C.3   331  ARG331      0.0307
    122  CG        13.9570  -37.1040   12.9270 C.3   331  ARG331      0.0489
    123  CD        15.1170  -37.7450   13.6760 C.3   331  ARG331      0.2205
    124  NE        15.0200  -39.2020   13.6950 N.pl3 331  ARG331     -0.0865
    125  CZ        14.4310  -39.9000   14.6630 C.cat 331  ARG331      0.5346
    126  NH1       13.8870  -39.2740   15.6980 N.pl3 331  ARG331      0.1354
    127  NH2       14.3860  -41.2250   14.5970 N.pl3 331  ARG331      0.1354
    128  N          8.8930  -44.2550   15.5920 N.3   494  ASP494     -0.1239
    129  CA         9.6080  -43.5180   16.6280 C.3   494  ASP494      0.1674
    130  C          8.8340  -42.2580   16.9960 C.2   494  ASP494      0.2266
    131  O          8.6720  -41.9370   18.1740 O.2   494  ASP494     -0.2867
    132  CB        11.0210  -43.1630   16.1650 C.3   494  ASP494      0.1410
    133  CG        11.8650  -44.3890   15.8820 C.2   494  ASP494      0.3668
    134  OD1       11.5960  -45.4490   16.4860 O.co2 494  ASP494     -0.2456
    135  OD2       12.7970  -44.2910   15.0550 O.co2 494  ASP494     -0.2456
    136  N          7.6710  -42.0610   20.9210 N.3   498  GLN498     -0.1245
    137  CA         8.6170  -41.2400   21.6700 C.3   498  GLN498      0.1566
    138  C          7.8850  -40.4660   22.7630 C.2   498  GLN498      0.2260
    139  O          8.5020  -39.9690   23.7010 O.2   498  GLN498     -0.2867
    140  CB         9.3720  -40.2810   20.7460 C.3   498  GLN498      0.0367
    141  CG        10.5920  -39.6360   21.3940 C.3   498  GLN498      0.0905
    142  CD        11.5160  -38.9690   20.3920 C.2   498  GLN498      0.2608
    143  OE1       11.6770  -39.4410   19.2660 O.2   498  GLN498     -0.2717
    144  NE2       12.1230  -37.8590   20.7960 N.am  498  GLN498     -0.0878
    145  N          8.0440  -43.3940   25.5010 N.3   501  TRP501     -0.1227
    146  CA         9.3950  -43.7620   25.9120 C.3   501  TRP501      0.1737
    147  C          9.9770  -42.7660   26.9160 C.2   501  TRP501      0.2595
    148  O         10.7310  -43.1480   27.8120 O.2   501  TRP501     -0.2718
    149  CB        10.3060  -43.8740   24.6880 C.3   501  TRP501      0.0564
    150  CG         9.9120  -44.9850   23.7530 C.ar  501  TRP501      0.0003
    151  CD1        9.2600  -46.1380   24.0810 C.ar  501  TRP501      0.0946
    152  CD2       10.1320  -45.0380   22.3380 C.ar  501  TRP501      0.0152
    153  NE1        9.0680  -46.9100   22.9610 N.ar  501  TRP501     -0.2442
    154  CE2        9.5940  -46.2560   21.8770 C.ar  501  TRP501      0.0810
    155  CE3       10.7340  -44.1760   21.4160 C.ar  501  TRP501      0.0012
    156  CZ2        9.6410  -46.6330   20.5400 C.ar  501  TRP501      0.0191
    157  CZ3       10.7790  -44.5530   20.0880 C.ar  501  TRP501      0.0001
    158  CH2       10.2360  -45.7690   19.6620 C.ar  501  TRP501      0.0015
    159  N          9.6150  -41.4950   26.7690 N.am  502  GLU502     -0.1979
    160  CA        10.0630  -40.4620   27.6960 C.3   502  GLU502      0.1602
    161  C          9.3950  -40.6190   29.0600 C.2   502  GLU502      0.2287
    162  O         10.0320  -40.4180   30.0960 O.2   502  GLU502     -0.2864
    163  CB         9.7840  -39.0690   27.1270 C.3   502  GLU502      0.0415
    164  CG        10.5100  -38.7800   25.8240 C.3   502  GLU502      0.1163
    165  CD        10.2300  -37.3890   25.2900 C.2   502  GLU502      0.3649
    166  OE1       10.0560  -36.4610   26.1070 O.co2 502  GLU502     -0.2457
    167  OE2       10.1820  -37.2220   24.0530 O.co2 502  GLU502     -0.2457
    168  N         11.0520  -43.6420   30.6710 N.3   505  PHE505     -0.1241
    169  CA        12.4000  -43.2500   31.0620 C.3   505  PHE505      0.1605
    170  C         12.3970  -42.4110   32.3370 C.2   505  PHE505      0.2264
    171  O         13.1890  -42.6550   33.2480 O.2   505  PHE505     -0.2867
    172  CB        13.0830  -42.4760   29.9340 C.3   505  PHE505      0.0534
    173  CG        14.3640  -41.8170   30.3470 C.ar  505  PHE505     -0.0203
    174  CD1       15.5020  -42.5720   30.5800 C.ar  505  PHE505     -0.0042
    175  CD2       14.4310  -40.4430   30.5030 C.ar  505  PHE505     -0.0042
    176  CE1       16.6850  -41.9690   30.9630 C.ar  505  PHE505     -0.0003
    177  CE2       15.6100  -39.8330   30.8850 C.ar  505  PHE505     -0.0003
    178  CZ        16.7400  -40.5980   31.1150 C.ar  505  PHE505     -0.0000
    179  N         12.6960  -48.0500   22.4980 N.3   534  PRO534     -0.2116
    180  CA        12.7380  -48.2110   21.0410 C.3   534  PRO534      0.1372
    181  C         13.1660  -49.6110   20.6120 C.2   534  PRO534      0.2244
    182  O         13.9810  -50.2400   21.2870 O.2   534  PRO534     -0.2868
    183  CB        13.7760  -47.1760   20.6060 C.3   534  PRO534      0.0268
    184  CG        13.6980  -46.1200   21.6420 C.3   534  PRO534      0.0207
    185  CD        13.4010  -46.8290   22.9330 C.3   534  PRO534      0.0892
    186  N         15.4280  -49.6250   13.9850 N.3   539  GLU539     -0.1245
    187  CA        16.5890  -48.8150   13.6420 C.3   539  GLU539      0.1567
    188  C         17.4530  -49.5560   12.6240 C.2   539  GLU539      0.2260
    189  O         17.9900  -48.9490   11.6890 O.2   539  GLU539     -0.2867
    190  CB        17.3970  -48.4720   14.8950 C.3   539  GLU539      0.0388
    191  CG        16.5440  -48.1010   16.1050 C.3   539  GLU539      0.1160
    192  CD        15.6310  -46.9100   15.8560 C.2   539  GLU539      0.3649
    193  OE1       14.5470  -46.8500   16.4780 O.co2 539  GLU539     -0.2457
    194  OE2       15.9990  -46.0280   15.0500 O.co2 539  GLU539     -0.2457
    195  N         18.3400  -47.8560    8.9800 N.3   543  LEU543     -0.1245
    196  CA        19.7240  -47.8390    8.5240 C.3   543  LEU543      0.1561
    197  C         19.8640  -48.6140    7.2210 C.2   543  LEU543      0.2260
    198  O         20.4540  -48.1230    6.2550 O.2   543  LEU543     -0.2867
    199  CB        20.6500  -48.4170    9.5910 C.3   543  LEU543      0.0270
    200  CG        20.8230  -47.5600   10.8490 C.3   543  LEU543      0.0019
    201  CD1       21.5060  -48.3460   11.9630 C.3   543  LEU543      0.0001
    202  CD2       21.6110  -46.2940   10.5310 C.3   543  LEU543      0.0001
@<TRIPOS>BOND
     1   198   197    2
     2   197   196    1
     3   196   195    1
     4   196   199    1
     5   199   200    1
     6   202   200    1
     7   120   119    2
     8   200   201    1
     9   189   188    2
    10   119   118    1
    11   188   187    1
    12   122   123    1
    13   122   121    1
    14   118   121    1
    15   118   117    1
    16   187   186    1
    17   187   190    1
    18   123   124    1
    19   124   125    2
    20   127   125    1
    21   125   126    1
    22    93    92    2
    23   190   191    1
    24   194   192   ar
    25   135   133   ar
    26   107   106    1
    27    94    91    1
    28    94    95    1
    29   128   129    1
    30    92    91    1
    31    91    90    1
    32   192   191    1
    33   192   193   ar
    34   133   132    1
    35   133   134   ar
    36   104   106   ar
    37   104   102   ar
    38   132   129    1
    39   106   105   ar
    40   129   130    1
    41   130   131    2
    42   102   101   ar
    43   105   103   ar
    44    90    85   am
    45    86    85    2
    46    85    84    1
    47    82    80   ar
    48    96    97    1
    49   103   101   ar
    50   101   100    1
    51    79    80    1
    52    79    76    1
    53    97   100    1
    54    97    98    1
    55    88    87    1
    56    78    77    2
    57    80    81   ar
    58   143   142    2
    59    84    87    1
    60    84    83    1
    61    87    89    1
    62    75    76    1
    63    75    73   am
    64   158   157   ar
    65   158   156   ar
    66    76    77    1
    67    98    99    2
    68    98   108   am
    69    72    71    1
    70    72    73    1
    71   157   155   ar
    72   142   144   am
    73   142   141    1
    74    73    74    2
    75   156   154   ar
    76   183   180    1
    77   183   184    1
    78   181   180    1
    79   181   182    2
    80   140   141    1
    81   140   137    1
    82   108   109    1
    83   136   137    1
    84   180   179    1
    85   155   152   ar
    86    54    53   ar
    87    54    52   ar
    88   184   185    1
    89   137   138    1
    90   110   109    1
    91   110   111    2
    92    53    51   ar
    93   154   152   ar
    94   154   153   ar
    95    52    50   ar
    96   109   112    1
    97   152   150   ar
    98    51    49   ar
    99   179   185    1
   100    28    26   am
   101    50    49   ar
   102   112   113    1
   103   138   139    2
   104    49    48    1
   105   153   151   ar
   106    65    64    1
   107    65    66    2
   108    64    63    1
   109    64    67    1
   110    48    45    1
   111   150   151   ar
   112   150   149    1
   113    70    68    1
   114    26    25    1
   115    26    27    2
   116   113   114    1
   117   167   165   ar
   118   114   115    1
   119    25    22    1
   120    62    61    1
   121    67    68    1
   122   149   146    1
   123    68    69    1
   124    42    41    1
   125    45    44    1
   126    45    46    1
   127   165   164    1
   128   165   166   ar
   129   115   116    1
   130   145   146    1
   131    57    56    1
   132    57    58    2
   133    22    21    1
   134    22    23    1
   135    40    41    1
   136    40    37    1
   137    44    38   am
   138    59    56    1
   139    59    60    1
   140    39    38    2
   141   164   163    1
   142    46    47    2
   143   146   147    1
   144    38    37    1
   145    56    55    1
   146    61    60    1
   147    41    43    1
   148    37    36    1
   149    23    24    2
   150    23    29   am
   151   159   147   am
   152   159   160    1
   153   147   148    2
   154    36    31   am
   155   163   160    1
   156    29    35    1
   157    29    30    1
   158    35    34    1
   159   160   161    1
   160    31    30    1
   161    31    32    2
   162    30    33    1
   163    34    33    1
   164   161   162    2
   165   172   173    1
   166   172   169    1
   167    19    17    1
   168   173   175   ar
   169   173   174   ar
   170    18    17    1
   171    18    20    1
   172    16    15    2
   173   175   177   ar
   174   174   176   ar
   175   168   169    1
   176   177   178   ar
   177   176   178   ar
   178   169   170    1
   179    17    14    1
   180    15    14    1
   181    14    13    1
   182     9     7   ar
   183     9    11   ar
   184   170   171    2
   185     7     6   ar
   186    12    11    1
   187    11    10   ar
   188     6     5    1
   189     6     8   ar
   190     2     5    1
   191     2     1    1
   192     2     3    1
   193    10     8   ar
   194     3     4    2
