@<TRIPOS>MOLECULE
tmp/6d3aC00.pdb
 217 209 0 0 0
SMALL
GASTEIGER

@<TRIPOS>ATOM
      1  N         26.3700   -9.3880   47.4640 N.3    28  GLU28      -0.1245
      2  CA        27.6850   -8.8230   47.2090 C.3    28  GLU28       0.1567
      3  C         28.6070   -9.0080   48.4020 C.2    28  GLU28       0.2260
      4  O         29.7880   -8.6490   48.3230 O.2    28  GLU28      -0.2867
      5  CB        27.5670   -7.3440   46.8490 C.3    28  GLU28       0.0388
      6  CG        26.9450   -7.1340   45.4890 C.3    28  GLU28       0.1160
      7  CD        27.3090   -5.8080   44.8740 C.2    28  GLU28       0.3649
      8  OE1       28.3880   -5.2670   45.1930 O.co2  28  GLU28      -0.2457
      9  OE2       26.5120   -5.3000   44.0710 O.co2  28  GLU28      -0.2457
     10  N         23.4820    2.3290   49.6940 N.3    62  ASP62      -0.1225
     11  CA        23.3510    3.6320   49.0490 C.3    62  ASP62       0.1805
     12  C         22.2270    3.6620   48.0030 C.2    62  ASP62       0.2597
     13  O         21.6510    4.7220   47.7560 O.2    62  ASP62      -0.2718
     14  CB        24.6970    4.0470   48.4260 C.3    62  ASP62       0.1424
     15  CG        25.1690    3.1070   47.3310 C.2    62  ASP62       0.3668
     16  OD1       24.9980    1.8820   47.4630 O.co2  62  ASP62      -0.2456
     17  OD2       25.7530    3.5920   46.3350 O.co2  62  ASP62      -0.2456
     18  N         21.9050    2.5300   47.3680 N.am   63  ASP63      -0.1974
     19  CA        20.8120    2.5060   46.3950 C.3    63  ASP63       0.1709
     20  C         19.5310    3.0430   47.0240 C.2    63  ASP63       0.2293
     21  O         18.8600    3.9280   46.4720 O.2    63  ASP63      -0.2864
     22  CB        20.5720    1.0760   45.8890 C.3    63  ASP63       0.1436
     23  CG        21.7480    0.4910   45.1470 C.2    63  ASP63       0.3671
     24  OD1       22.7950    0.2760   45.7770 O.co2  63  ASP63      -0.2456
     25  OD2       21.6040    0.2070   43.9210 O.co2  63  ASP63      -0.2456
     26  N         19.7350    6.8430   48.5640 N.3    66  MET66      -0.1245
     27  CA        19.5990    7.8950   47.5610 C.3    66  MET66       0.1570
     28  C         18.2010    7.9030   46.9630 C.2    66  MET66       0.2261
     29  O         17.6330    8.9710   46.7150 O.2    66  MET66      -0.2867
     30  CB        20.6620    7.7220   46.4720 C.3    66  MET66       0.0387
     31  CG        22.0840    7.9370   46.9930 C.3    66  MET66       0.0595
     32  SD        23.1920    8.4300   45.6490 S.3    66  MET66      -0.1393
     33  CE        22.8320   10.1970   45.6220 C.3    66  MET66       0.0692
     34  N         28.1920    2.1120   51.3590 N.3   100  GLY100     -0.1210
     35  CA        28.8090    1.5830   50.1580 C.3   100  GLY100      0.1956
     36  C         28.6640    2.4640   48.9360 C.2   100  GLY100      0.2612
     37  O         28.4120    1.9530   47.8410 O.2   100  GLY100     -0.2717
     38  N         28.8480    3.7700   49.0930 N.am  101  TYR101     -0.1962
     39  CA        28.8050    4.7170   47.9890 C.3   101  TYR101      0.1771
     40  C         29.9760    4.5220   47.0280 C.2   101  TYR101      0.2620
     41  O         31.0350    4.0130   47.3890 O.2   101  TYR101     -0.2715
     42  CB        28.8310    6.1490   48.5250 C.3   101  TYR101      0.0574
     43  CG        27.5220    6.6340   49.1380 C.ar  101  TYR101     -0.0198
     44  CD1       26.5060    7.1300   48.3390 C.ar  101  TYR101     -0.0009
     45  CD2       27.3210    6.6270   50.5220 C.ar  101  TYR101     -0.0009
     46  CE1       25.3220    7.5900   48.8930 C.ar  101  TYR101      0.0417
     47  CE2       26.1460    7.0880   51.0820 C.ar  101  TYR101      0.0417
     48  CZ        25.1430    7.5670   50.2600 C.ar  101  TYR101      0.1957
     49  OH        23.9820    8.0420   50.8030 O.3   101  TYR101     -0.2866
     50  N         29.7770    4.9680   45.7860 N.am  102  GLY102     -0.1940
     51  CA        30.8320    4.8580   44.7980 C.3   102  GLY102      0.2014
     52  C         32.0630    5.6490   45.1880 C.2   102  GLY102      0.2639
     53  O         31.9920    6.6600   45.8950 O.2   102  GLY102     -0.2714
     54  N         33.2120    5.1790   44.6950 N.am  103  ALA103     -0.1963
     55  CA        34.4780    5.8300   45.0150 C.3   103  ALA103      0.1728
     56  C         34.5160    7.2510   44.4730 C.2   103  ALA103      0.2617
     57  O         35.0720    8.1540   45.1050 O.2   103  ALA103     -0.2715
     58  CB        35.6360    5.0150   44.4420 C.3   103  ALA103      0.0334
     59  N         33.9310    7.4650   43.3030 N.am  104  GLY104     -0.1940
     60  CA        33.9660    8.7680   42.6720 C.3   104  GLY104      0.2014
     61  C         32.9530    9.7580   43.2050 C.2   104  GLY104      0.2638
     62  O         33.2830   10.9210   43.4480 O.2   104  GLY104     -0.2714
     63  N         31.7120    9.3070   43.4020 N.am  105  VAL105     -0.1977
     64  CA        30.6180   10.2240   43.7000 C.3   105  VAL105      0.1596
     65  C         30.7720   10.9110   45.0530 C.2   105  VAL105      0.2287
     66  O         30.1920   11.9760   45.2740 O.2   105  VAL105     -0.2864
     67  CB        29.2720    9.4680   43.5990 C.3   105  VAL105      0.0276
     68  CG1       29.1060    8.4310   44.7260 C.3   105  VAL105      0.0022
     69  CG2       28.0970   10.4530   43.5600 C.3   105  VAL105      0.0022
     70  N         33.8390   15.4460   37.4140 N.3   127  GLN127     -0.1231
     71  CA        34.2140   14.0590   37.6400 C.3   127  GLN127      0.1698
     72  C         34.9430   13.4770   36.4330 C.2   127  GLN127      0.2592
     73  O         34.6020   13.7600   35.2770 O.2   127  GLN127     -0.2718
     74  CB        32.9630   13.2360   37.9340 C.3   127  GLN127      0.0381
     75  CG        32.2470   13.6470   39.2090 C.3   127  GLN127      0.0905
     76  CD        33.0070   13.2280   40.4380 C.2   127  GLN127      0.2608
     77  OE1       33.8990   13.9390   40.9130 O.2   127  GLN127     -0.2717
     78  NE2       32.6610   12.0550   40.9690 N.am  127  GLN127     -0.0878
     79  N         35.9450   12.6450   36.7140 N.am  128  PHE128     -0.1976
     80  CA        36.6830   11.8830   35.7040 C.3   128  PHE128      0.1639
     81  C         37.1970   12.7970   34.5880 C.2   128  PHE128      0.2290
     82  O         36.8670   12.6550   33.4070 O.2   128  PHE128     -0.2864
     83  CB        35.8140   10.7380   35.1720 C.3   128  PHE128      0.0560
     84  CG        35.3540    9.8070   36.2600 C.ar  128  PHE128     -0.0200
     85  CD1       36.2170    8.8540   36.7790 C.ar  128  PHE128     -0.0042
     86  CD2       34.0860    9.9230   36.8050 C.ar  128  PHE128     -0.0042
     87  CE1       35.8130    8.0120   37.7980 C.ar  128  PHE128     -0.0003
     88  CE2       33.6820    9.0880   37.8350 C.ar  128  PHE128     -0.0003
     89  CZ        34.5480    8.1340   38.3310 C.ar  128  PHE128     -0.0000
     90  N         34.7650   14.5550   32.1470 N.3   131  LYS131     -0.1231
     91  CA        33.8960   13.7530   31.2990 C.3   131  LYS131      0.1693
     92  C         32.6270   13.2950   32.0040 C.2   131  LYS131      0.2593
     93  O         31.6460   12.9720   31.3270 O.2   131  LYS131     -0.2718
     94  CB        34.6540   12.5250   30.7830 C.3   131  LYS131      0.0285
     95  CG        35.9150   12.8530   29.9800 C.3   131  LYS131      0.0035
     96  CD        35.5990   13.7320   28.7750 C.3   131  LYS131      0.0206
     97  CE        36.8380   13.9950   27.9250 C.3   131  LYS131      0.1093
     98  NZ        36.5500   14.9450   26.8140 N.3   131  LYS131     -0.1314
     99  N         32.6200   13.2650   33.3310 N.am  132  GLY132     -0.1942
    100  CA        31.4500   12.8630   34.0870 C.3   132  GLY132      0.2014
    101  C         31.3780   11.3600   34.3010 C.2   132  GLY132      0.2640
    102  O         31.9810   10.5680   33.5880 O.2   132  GLY132     -0.2714
    103  N         30.5950   10.9630   35.3020 N.am  133  SER133     -0.1935
    104  CA        30.4660    9.5480   35.6420 C.3   133  SER133      0.2055
    105  C         29.4800    8.8320   34.7350 C.2   133  SER133      0.2643
    106  O         28.4080    9.3570   34.4190 O.2   133  SER133     -0.2714
    107  CB        30.0030    9.3900   37.0890 C.3   133  SER133      0.2130
    108  OG        29.8950    8.0170   37.4200 O.3   133  SER133     -0.2179
    109  N         29.8360    7.6070   34.3470 N.am  134  TYR134     -0.1959
    110  CA        28.9090    6.6920   33.7010 C.3   134  TYR134      0.1771
    111  C         28.5250    5.5430   34.6200 C.2   134  TYR134      0.2620
    112  O         28.0080    4.5250   34.1540 O.2   134  TYR134     -0.2715
    113  CB        29.4720    6.1560   32.3760 C.3   134  TYR134      0.0574
    114  CG        30.8430    5.5140   32.4150 C.ar  134  TYR134     -0.0198
    115  CD1       31.0830    4.3620   33.1490 C.ar  134  TYR134     -0.0009
    116  CD2       31.8890    6.0340   31.6580 C.ar  134  TYR134     -0.0009
    117  CE1       32.3370    3.7720   33.1720 C.ar  134  TYR134      0.0417
    118  CE2       33.1380    5.4540   31.6690 C.ar  134  TYR134      0.0417
    119  CZ        33.3580    4.3210   32.4220 C.ar  134  TYR134      0.1957
    120  OH        34.6020    3.7390   32.4290 O.3   134  TYR134     -0.2866
    121  N         28.7480    5.6900   35.9270 N.am  135  GLY135     -0.1940
    122  CA        28.3010    4.6730   36.8520 C.3   135  GLY135      0.2014
    123  C         26.7820    4.5840   36.9150 C.2   135  GLY135      0.2639
    124  O         26.0420    5.4420   36.4270 O.2   135  GLY135     -0.2714
    125  N         26.3020    3.5090   37.5480 N.am  136  ASN136     -0.1958
    126  CA        24.8660    3.2480   37.6130 C.3   136  ASN136      0.1819
    127  C         24.1490    3.9340   38.7860 C.2   136  ASN136      0.2621
    128  O         22.9510    3.7040   38.9670 O.2   136  ASN136     -0.2715
    129  CB        24.6030    1.7370   37.6100 C.3   136  ASN136      0.1195
    130  CG        25.2040    1.0060   38.7810 C.2   136  ASN136      0.2630
    131  OD1       25.4940    1.5790   39.8330 O.2   136  ASN136     -0.2716
    132  ND2       25.3700   -0.3040   38.6060 N.am  136  ASN136     -0.0877
    133  N         24.8270    4.8130   39.5330 N.am  137  GLY137     -0.1954
    134  CA        24.2010    5.4940   40.6560 C.3   137  GLY137      0.1869
    135  C         23.0400    6.4000   40.2890 C.2   137  GLY137      0.2309
    136  O         22.1060    6.5810   41.0800 O.2   137  GLY137     -0.2863
    137  N         20.1630    3.8300   39.7840 N.3   140  MET140     -0.1230
    138  CA        19.7710    2.9760   40.9030 C.3   140  MET140      0.1702
    139  C         18.6900    3.6170   41.7600 C.2   140  MET140      0.2592
    140  O         17.9610    2.9030   42.4600 O.2   140  MET140     -0.2718
    141  CB        20.9840    2.6500   41.7780 C.3   140  MET140      0.0401
    142  CG        21.4490    3.7670   42.6610 C.3   140  MET140      0.0596
    143  SD        22.9770    3.3960   43.5510 S.3   140  MET140     -0.1393
    144  CE        23.2830    4.9880   44.3090 C.3   140  MET140      0.0692
    145  N         18.6030    4.9450   41.7370 N.am  141  ARG141     -0.1980
    146  CA        17.7400    5.7140   42.6240 C.3   141  ARG141      0.1597
    147  C         16.5440    6.3270   41.9170 C.2   141  ARG141      0.2287
    148  O         15.7670    7.0470   42.5530 O.2   141  ARG141     -0.2864
    149  CB        18.5540    6.8380   43.2650 C.3   141  ARG141      0.0334
    150  CG        19.0720    7.8590   42.2250 C.3   141  ARG141      0.0492
    151  CD        19.9160    8.9030   42.8810 C.3   141  ARG141      0.2205
    152  NE        20.3070    9.9660   41.9540 N.pl3 141  ARG141     -0.0865
    153  CZ        21.5540   10.2950   41.6470 C.cat 141  ARG141      0.5346
    154  NH1       22.6050    9.6560   42.1740 N.pl3 141  ARG141      0.1354
    155  NH2       21.7570   11.3130   40.8240 N.pl3 141  ARG141      0.1354
    156  N         24.7600   13.9230   39.9740 N.3   166  THR166     -0.1203
    157  CA        25.9710   13.1470   40.2390 C.3   166  THR166      0.1994
    158  C         26.6190   12.5510   38.9900 C.2   166  THR166      0.2617
    159  O         27.8160   12.2190   39.0440 O.2   166  THR166     -0.2717
    160  CB        25.6710   11.9970   41.2270 C.3   166  THR166      0.1784
    161  OG1       24.5870   11.2150   40.7270 O.3   166  THR166     -0.2211
    162  CG2       25.3040   12.5490   42.6100 C.3   166  THR166      0.0376
    163  N         25.8790   12.3990   37.8840 N.am  167  HIS167     -0.1975
    164  CA        26.3120   11.6740   36.6830 C.3   167  HIS167      0.1656
    165  C         26.1020   12.5650   35.4620 C.2   167  HIS167      0.2291
    166  O         25.0250   12.5590   34.8630 O.2   167  HIS167     -0.2864
    167  CB        25.5640   10.3700   36.5510 C.3   167  HIS167      0.0771
    168  CG        25.9410    9.3660   37.5920 C.ar  167  HIS167      0.0820
    169  ND1       25.6210    9.5210   38.9240 N.ar  167  HIS167     -0.2267
    170  CD2       26.6490    8.2140   37.5030 C.ar  167  HIS167      0.1154
    171  CE1       26.1050    8.4970   39.6060 C.ar  167  HIS167      0.1986
    172  NE2       26.7400    7.6950   38.7690 N.ar  167  HIS167     -0.2212
    173  N         34.6400    6.9340   24.1500 N.3   220  LEU220     -0.1245
    174  CA        34.8590    5.7470   24.9660 C.3   220  LEU220      0.1561
    175  C         35.0630    4.4920   24.1270 C.2   220  LEU220      0.2260
    176  O         35.1970    3.4010   24.6890 O.2   220  LEU220     -0.2867
    177  CB        33.6750    5.5400   25.9190 C.3   220  LEU220      0.0270
    178  CG        33.3990    6.6520   26.9360 C.3   220  LEU220      0.0019
    179  CD1       32.0800    6.4000   27.6530 C.3   220  LEU220      0.0001
    180  CD2       34.5280    6.7640   27.9420 C.3   220  LEU220      0.0001
    181  N         29.4470   -2.1670   37.0980 N.3   256  ILE256     -0.1231
    182  CA        29.1470   -0.9110   37.7700 C.3   256  ILE256      0.1692
    183  C         28.7110    0.1750   36.7910 C.2   256  ILE256      0.2591
    184  O         27.9770    1.0980   37.1720 O.2   256  ILE256     -0.2718
    185  CB        30.3830   -0.4620   38.5760 C.3   256  ILE256      0.0266
    186  CG1       30.6310   -1.4060   39.7550 C.3   256  ILE256      0.0019
    187  CG2       30.2220    0.9710   39.0850 C.3   256  ILE256      0.0020
    188  CD1       31.9930   -1.1980   40.4200 C.3   256  ILE256      0.0001
    189  N         29.1550    0.1110   35.5370 N.am  257  ALA257     -0.1980
    190  CA        28.7140    1.0910   34.5540 C.3   257  ALA257      0.1597
    191  C         27.2150    0.9480   34.2910 C.2   257  ALA257      0.2287
    192  O         26.6710   -0.1590   34.2660 O.2   257  ALA257     -0.2864
    193  CB        29.4980    0.9220   33.2470 C.3   257  ALA257      0.0319
    194  N         27.4440   -7.0860   40.1570 N.3   299  GLU299     -0.1245
    195  CA        26.8240   -6.0040   40.9270 C.3   299  GLU299      0.1567
    196  C         25.3750   -6.3510   41.2660 C.2   299  GLU299      0.2260
    197  O         24.4260   -5.6900   40.8370 O.2   299  GLU299     -0.2867
    198  CB        26.9110   -4.6890   40.1590 C.3   299  GLU299      0.0388
    199  CG        28.3260   -4.1690   40.0110 C.3   299  GLU299      0.1160
    200  CD        28.9840   -3.9570   41.3540 C.2   299  GLU299      0.3649
    201  OE1       28.3760   -3.2710   42.1990 O.co2 299  GLU299     -0.2457
    202  OE2       30.0880   -4.4960   41.5750 O.co2 299  GLU299     -0.2457
    203  N         23.5910   -6.1230   43.9060 N.3   301  ASP301     -0.1225
    204  CA        22.8190   -5.1350   44.6440 C.3   301  ASP301      0.1805
    205  C         22.0710   -4.1830   43.7150 C.2   301  ASP301      0.2598
    206  O         20.8370   -4.0460   43.7860 O.2   301  ASP301     -0.2718
    207  CB        23.7850   -4.3820   45.5650 C.3   301  ASP301      0.1424
    208  CG        23.1190   -3.3350   46.3720 C.2   301  ASP301      0.3668
    209  OD1       21.8840   -3.2450   46.3100 O.co2 301  ASP301     -0.2456
    210  OD2       23.8460   -2.5980   47.0730 O.co2 301  ASP301     -0.2456
    211  N         22.7870   -3.5250   42.8140 N.am  302  THR302     -0.1953
    212  CA        22.1210   -2.5420   41.9710 C.3   302  THR302      0.1897
    213  C         21.3110   -3.1810   40.8440 C.2   302  THR302      0.2313
    214  O         20.2600   -2.6560   40.4810 O.2   302  THR302     -0.2863
    215  CB        23.1540   -1.5710   41.4240 C.3   302  THR302      0.1794
    216  OG1       23.7710   -0.9180   42.5410 O.3   302  THR302     -0.2208
    217  CG2       22.5180   -0.5160   40.5380 C.3   302  THR302      0.0378
@<TRIPOS>BOND
     1   175   176    2
     2   175   174    1
     3   173   174    1
     4   174   177    1
     5   177   178    1
     6    98    97    1
     7   178   179    1
     8   178   180    1
     9    97    96    1
    10    96    95    1
    11    95    94    1
    12    94    91    1
    13    91    92    1
    14    91    90    1
    15    93    92    2
    16   116   118   ar
    17   116   114   ar
    18   118   119   ar
    19    92    99   am
    20   113   114    1
    21   113   110    1
    22   114   115   ar
    23   119   120    1
    24   119   117   ar
    25   115   117   ar
    26   193   190    1
    27    99   100    1
    28    82    81    2
    29   102   101    2
    30   110   109    1
    31   110   111    1
    32   100   101    1
    33   112   111    2
    34   192   191    2
    35   191   190    1
    36   101   103   am
    37   109   105   am
    38   106   105    2
    39   190   189    1
    40    81    80    1
    41   111   121   am
    42   105   104    1
    43   166   165    2
    44    83    80    1
    45    83    84    1
    46    73    72    2
    47   103   104    1
    48   165   164    1
    49   189   183   am
    50   104   107    1
    51    80    79    1
    52   121   122    1
    53    84    85   ar
    54    84    86   ar
    55   124   123    2
    56    72    79   am
    57    72    71    1
    58   167   164    1
    59   167   168    1
    60   164   163    1
    61    85    87   ar
    62   183   184    2
    63   183   182    1
    64    86    88   ar
    65   122   123    1
    66   123   125   am
    67   107   108    1
    68   181   182    1
    69    70    71    1
    70   170   168   ar
    71   170   172   ar
    72   125   126    1
    73   168   169   ar
    74   129   126    1
    75   129   130    1
    76   126   127    1
    77    71    74    1
    78   182   185    1
    79    87    89   ar
    80    88    89   ar
    81   163   158   am
    82    74    75    1
    83   185   187    1
    84   185   186    1
    85   132   130   am
    86   172   171   ar
    87   130   131    2
    88   127   128    2
    89   127   133   am
    90   169   171   ar
    91   158   159    2
    92   158   157    1
    93    75    76    1
    94   133   134    1
    95   186   188    1
    96   137   138    1
    97   156   157    1
    98   199   198    1
    99   199   200    1
   100   194   195    1
   101   198   195    1
   102   157   160    1
   103   135   134    1
   104   135   136    2
   105    76    77    2
   106    76    78   am
   107   214   213    2
   108   217   215    1
   109   161   160    1
   110   155   153    1
   111   197   196    2
   112   213   212    1
   113   138   139    1
   114   138   141    1
   115   195   196    1
   116   160   162    1
   117   200   202   ar
   118   200   201   ar
   119   215   212    1
   120   215   216    1
   121   153   152    2
   122   153   154    1
   123   145   139   am
   124   145   146    1
   125   139   140    2
   126   141   142    1
   127   147   148    2
   128   147   146    1
   129   152   151    1
   130   212   211    1
   131   150   151    1
   132   150   149    1
   133   146   149    1
   134   142   143    1
   135    60    61    1
   136    60    59    1
   137   211   205   am
   138    61    63   am
   139    61    62    2
   140    59    56   am
   141    63    64    1
   142   143   144    1
   143    69    67    1
   144    67    64    1
   145    67    68    1
   146    64    65    1
   147   205   206    2
   148   205   204    1
   149   203   204    1
   150    25    23   ar
   151     9     7   ar
   152    58    55    1
   153    56    55    1
   154    56    57    2
   155   204   207    1
   156    54    55    1
   157    54    52   am
   158    51    52    1
   159    51    50    1
   160     7     8   ar
   161     7     6    1
   162    65    66    2
   163    23    24   ar
   164    23    22    1
   165    52    53    2
   166     6     5    1
   167   207   208    1
   168    33    32    1
   169    32    31    1
   170    50    40   am
   171    22    19    1
   172   209   208   ar
   173    17    15   ar
   174   208   210   ar
   175    19    20    1
   176    19    18    1
   177    21    20    2
   178    30    31    1
   179    30    27    1
   180    29    28    2
   181     5     2    1
   182    28    27    1
   183    40    41    2
   184    40    39    1
   185     2     1    1
   186     2     3    1
   187    15    16   ar
   188    15    14    1
   189    18    12   am
   190    27    26    1
   191    13    12    2
   192    37    36    2
   193    39    42    1
   194    39    38    1
   195    12    11    1
   196     4     3    2
   197    44    46   ar
   198    44    43   ar
   199    14    11    1
   200    42    43    1
   201    46    48   ar
   202    36    38   am
   203    36    35    1
   204    11    10    1
   205    43    45   ar
   206    35    34    1
   207    48    49    1
   208    48    47   ar
   209    45    47   ar
