@<TRIPOS>MOLECULE
tmp/6d3eA00.pdb
 221 208 0 0 0
SMALL
GASTEIGER

@<TRIPOS>ATOM
      1  N         22.0260   37.8160    9.5800 N.3    68  ILE68      -0.1231
      2  CA        21.4490   36.4760    9.5390 C.3    68  ILE68       0.1692
      3  C         21.3250   35.9060   10.9460 C.2    68  ILE68       0.2592
      4  O         20.3400   35.2340   11.2740 O.2    68  ILE68      -0.2718
      5  CB        22.2860   35.5630    8.6250 C.3    68  ILE68       0.0266
      6  CG1       22.2500   36.0760    7.1850 C.3    68  ILE68       0.0019
      7  CG2       21.7840   34.1290    8.6880 C.3    68  ILE68       0.0020
      8  CD1       23.1520   35.3120    6.2470 C.3    68  ILE68       0.0001
      9  N         22.3120   36.1730   11.8040 N.am   69  PHE69      -0.1976
     10  CA        22.2430   35.6770   13.1750 C.3    69  PHE69       0.1639
     11  C         21.1160   36.3500   13.9480 C.2    69  PHE69       0.2290
     12  O         20.4470   35.7070   14.7640 O.2    69  PHE69      -0.2864
     13  CB        23.5830   35.8850   13.8810 C.3    69  PHE69       0.0560
     14  CG        23.7000   35.1480   15.1850 C.ar   69  PHE69      -0.0200
     15  CD1       24.0920   33.8200   15.2100 C.ar   69  PHE69      -0.0042
     16  CD2       23.4180   35.7820   16.3850 C.ar   69  PHE69      -0.0042
     17  CE1       24.2000   33.1360   16.4060 C.ar   69  PHE69      -0.0003
     18  CE2       23.5260   35.1020   17.5850 C.ar   69  PHE69      -0.0003
     19  CZ        23.9170   33.7780   17.5950 C.ar   69  PHE69      -0.0000
     20  N         18.3700   37.3450   12.5710 N.3    71  GLY71      -0.1210
     21  CA        17.1670   36.7120   12.0600 C.3    71  GLY71       0.1956
     22  C         16.9060   35.3510   12.6700 C.2    71  GLY71       0.2612
     23  O         15.7490   34.9680   12.8630 O.2    71  GLY71      -0.2717
     24  N         17.9690   34.6030   12.9790 N.am   72  CYS72      -0.1956
     25  CA        17.7980   33.3210   13.6530 C.3    72  CYS72       0.1843
     26  C         17.2350   33.4970   15.0550 C.2    72  CYS72       0.2625
     27  O         16.4760   32.6440   15.5270 O.2    72  CYS72      -0.2714
     28  CB        19.1300   32.5710   13.7150 C.3    72  CYS72       0.0997
     29  SG        19.8340   32.1280   12.1120 S.3    72  CYS72      -0.0797
     30  N         17.5930   34.5910   15.7340 N.am   73  GLN73      -0.1977
     31  CA        17.0760   34.8250   17.0780 C.3    73  GLN73       0.1601
     32  C         15.5790   35.0980   17.0540 C.2    73  GLN73       0.2287
     33  O         14.8300   34.5520   17.8730 O.2    73  GLN73      -0.2864
     34  CB        17.8160   35.9890   17.7370 C.3    73  GLN73       0.0394
     35  CG        19.3050   35.7650   17.9340 C.3    73  GLN73       0.0908
     36  CD        19.9360   36.8300   18.8110 C.2    73  GLN73       0.2608
     37  OE1       19.2590   37.4620   19.6230 O.2    73  GLN73      -0.2717
     38  NE2       21.2370   37.0380   18.6480 N.am   73  GLN73      -0.0878
     39  N         13.3390   34.1550   14.8530 N.3    75  ARG75      -0.1231
     40  CA        12.6340   32.9050   14.5950 C.3    75  ARG75       0.1694
     41  C         12.6940   31.9830   15.8080 C.2    75  ARG75       0.2592
     42  O         11.7150   31.2960   16.1210 O.2    75  ARG75      -0.2718
     43  CB        13.2150   32.2220   13.3550 C.3    75  ARG75       0.0321
     44  CG        12.6790   30.8230   13.0960 C.3    75  ARG75       0.0489
     45  CD        11.1590   30.8030   13.0360 C.3    75  ARG75       0.2205
     46  NE        10.6340   29.4450   13.1400 N.pl3  75  ARG75      -0.0865
     47  CZ         9.3900   29.1520   13.5040 C.cat  75  ARG75       0.5346
     48  NH1        8.5400   30.1240   13.8090 N.pl3  75  ARG75       0.1354
     49  NH2        8.9970   27.8870   13.5730 N.pl3  75  ARG75       0.1354
     50  N         13.8300   31.9620   16.5080 N.am   76  SER76      -0.1952
     51  CA        13.9330   31.1630   17.7250 C.3    76  SER76       0.1924
     52  C         12.9710   31.6670   18.7930 C.2    76  SER76       0.2314
     53  O         12.2690   30.8780   19.4350 O.2    76  SER76      -0.2863
     54  CB        15.3710   31.1770   18.2430 C.3    76  SER76       0.2116
     55  OG        16.2450   30.5320   17.3340 O.3    76  SER76      -0.2180
     56  N          9.6370   30.6920   17.8460 N.3    79  ALA79      -0.1245
     57  CA         9.4380   29.2630   18.0620 C.3    79  ALA79       0.1562
     58  C          9.1530   28.9600   19.5280 C.2    79  ALA79       0.2260
     59  O          8.3350   28.0850   19.8380 O.2    79  ALA79      -0.2867
     60  CB        10.6580   28.4810   17.5770 C.3    79  ALA79       0.0290
     61  N         12.9700   23.5820   25.3510 N.3   109  VAL109     -0.1231
     62  CA        12.7040   24.3600   24.1470 C.3   109  VAL109      0.1692
     63  C         13.8190   24.2220   23.1150 C.2   109  VAL109      0.2592
     64  O         13.5710   24.3940   21.9170 O.2   109  VAL109     -0.2718
     65  CB        12.4640   25.8390   24.5120 C.3   109  VAL109      0.0266
     66  CG1       13.7790   26.5540   24.7810 C.3   109  VAL109      0.0020
     67  CG2       11.6760   26.5350   23.4180 C.3   109  VAL109      0.0020
     68  N         15.0420   23.9000   23.5420 N.am  110  HIS110     -0.1976
     69  CA        16.1360   23.7320   22.5900 C.3   110  HIS110      0.1656
     70  C         16.0090   22.4190   21.8330 C.2   110  HIS110      0.2291
     71  O         16.1610   22.3790   20.6060 O.2   110  HIS110     -0.2864
     72  CB        17.4780   23.7960   23.3140 C.3   110  HIS110      0.0771
     73  CG        18.1080   25.1500   23.2910 C.ar  110  HIS110      0.0820
     74  ND1       17.5590   26.2360   23.9380 N.ar  110  HIS110     -0.2267
     75  CD2       19.2350   25.5980   22.6910 C.ar  110  HIS110      0.1154
     76  CE1       18.3230   27.2940   23.7400 C.ar  110  HIS110      0.1986
     77  NE2       19.3470   26.9330   22.9860 N.ar  110  HIS110     -0.2212
     78  N         13.1910   22.7750   19.1640 N.3   113  ILE113     -0.1231
     79  CA        13.4650   23.6460   18.0240 C.3   113  ILE113      0.1692
     80  C         14.3360   22.9230   17.0030 C.2   113  ILE113      0.2592
     81  O         14.0420   22.9210   15.8020 O.2   113  ILE113     -0.2718
     82  CB        14.1100   24.9620   18.4950 C.3   113  ILE113      0.0266
     83  CG1       13.0600   25.8530   19.1610 C.3   113  ILE113      0.0019
     84  CG2       14.7650   25.6900   17.3290 C.3   113  ILE113      0.0020
     85  CD1       13.6080   27.1470   19.7220 C.3   113  ILE113      0.0001
     86  N         15.4080   22.2800   17.4690 N.am  114  TYR114     -0.1976
     87  CA        16.2760   21.5320   16.5650 C.3   114  TYR114      0.1639
     88  C         15.6040   20.2750   16.0270 C.2   114  TYR114      0.2290
     89  O         15.9820   19.7970   14.9530 O.2   114  TYR114     -0.2864
     90  CB        17.5840   21.1760   17.2740 C.3   114  TYR114      0.0560
     91  CG        18.3250   22.3850   17.7980 C.ar  114  TYR114     -0.0198
     92  CD1       18.2950   23.5920   17.1100 C.ar  114  TYR114     -0.0009
     93  CD2       19.0400   22.3270   18.9870 C.ar  114  TYR114     -0.0009
     94  CE1       18.9630   24.7030   17.5850 C.ar  114  TYR114      0.0417
     95  CE2       19.7120   23.4340   19.4710 C.ar  114  TYR114      0.0417
     96  CZ        19.6700   24.6190   18.7650 C.ar  114  TYR114      0.1957
     97  OH        20.3370   25.7250   19.2400 O.3   114  TYR114     -0.2866
     98  N         13.3540   21.7580   13.4170 N.3   117  LEU117     -0.1245
     99  CA        14.2160   22.3170   12.3820 C.3   117  LEU117      0.1561
    100  C         14.5860   21.2700   11.3410 C.2   117  LEU117      0.2260
    101  O         14.8170   21.6090   10.1750 O.2   117  LEU117     -0.2867
    102  CB        15.4750   22.9110   13.0170 C.3   117  LEU117      0.0270
    103  CG        16.4810   23.6280   12.1150 C.3   117  LEU117      0.0019
    104  CD1       15.8050   24.7380   11.3290 C.3   117  LEU117      0.0001
    105  CD2       17.6260   24.1800   12.9500 C.3   117  LEU117      0.0001
    106  N         12.4180   21.2770    8.3080 N.3   120  LEU120     -0.1245
    107  CA        12.6740   22.3450    7.3530 C.3   120  LEU120      0.1561
    108  C         14.0190   22.1980    6.6540 C.2   120  LEU120      0.2260
    109  O         14.4520   23.1310    5.9700 O.2   120  LEU120     -0.2867
    110  CB        12.6050   23.7040    8.0560 C.3   120  LEU120      0.0270
    111  CG        11.4730   23.9190    9.0640 C.3   120  LEU120      0.0019
    112  CD1       11.5470   25.3150    9.6620 C.3   120  LEU120      0.0001
    113  CD2       10.1140   23.6800    8.4250 C.3   120  LEU120      0.0001
    114  N         18.1210   24.7940    4.3170 N.3   126  VAL126     -0.1231
    115  CA        17.0300   24.9050    5.2800 C.3   126  VAL126      0.1692
    116  C         16.0400   25.9590    4.7980 C.2   126  VAL126      0.2592
    117  O         16.4320   26.9870    4.2350 O.2   126  VAL126     -0.2718
    118  CB        17.5670   25.2510    6.6870 C.3   126  VAL126      0.0266
    119  CG1       18.4010   26.5260    6.6450 C.3   126  VAL126      0.0020
    120  CG2       16.4270   25.3820    7.6920 C.3   126  VAL126      0.0020
    121  N         14.7510   25.6980    5.0130 N.am  127  LEU127     -0.1966
    122  CA        13.7230   26.6810    4.6970 C.3   127  LEU127      0.1728
    123  C         13.7640   27.8370    5.6890 C.2   127  LEU127      0.2616
    124  O         14.0000   27.6460    6.8840 O.2   127  LEU127     -0.2715
    125  CB        12.3370   26.0340    4.7150 C.3   127  LEU127      0.0311
    126  CG        11.9940   25.0460    3.5980 C.3   127  LEU127      0.0022
    127  CD1       10.6330   24.4190    3.8500 C.3   127  LEU127      0.0001
    128  CD2       12.0240   25.7340    2.2390 C.3   127  LEU127      0.0001
    129  N         13.5330   29.0480    5.1820 N.am  128  ILE128     -0.1963
    130  CA        13.5020   30.2580    5.9910 C.3   128  ILE128      0.1727
    131  C         12.2720   31.0680    5.6010 C.2   128  ILE128      0.2616
    132  O         11.6100   30.7930    4.5990 O.2   128  ILE128     -0.2715
    133  CB        14.7740   31.1160    5.8250 C.3   128  ILE128      0.0290
    134  CG1       14.8580   31.6620    4.3970 C.3   128  ILE128      0.0022
    135  CG2       16.0180   30.3130    6.1770 C.3   128  ILE128      0.0023
    136  CD1       15.9790   32.6550    4.1810 C.3   128  ILE128      0.0001
    137  N         11.9790   32.0810    6.4150 N.am  129  SER129     -0.1950
    138  CA        10.9240   33.0560    6.1440 C.3   129  SER129      0.1924
    139  C          9.5890   32.3690    5.8500 C.2   129  SER129      0.2314
    140  O          8.9670   32.5700    4.8040 O.2   129  SER129     -0.2863
    141  CB        11.3280   33.9840    4.9950 C.3   129  SER129      0.2116
    142  OG        10.2920   34.9020    4.6930 O.3   129  SER129     -0.2180
    143  N         17.8390   28.9040    2.4290 N.3   135  MET135     -0.1245
    144  CA        19.2490   29.2380    2.5600 C.3   135  MET135      0.1570
    145  C         20.0740   27.9600    2.4980 C.2   135  MET135      0.2261
    146  O         19.8050   27.0050    3.2340 O.2   135  MET135     -0.2867
    147  CB        19.5100   29.9890    3.8670 C.3   135  MET135      0.0387
    148  CG        20.8390   30.7190    3.9110 C.3   135  MET135      0.0595
    149  SD        20.9070   31.9440    5.2320 S.3   135  MET135     -0.1393
    150  CE        19.5750   33.0400    4.7530 C.3   135  MET135      0.0692
    151  N         25.6320   29.1790    4.6080 N.3   140  LEU140     -0.1245
    152  CA        25.7270   29.3320    6.0550 C.3   140  LEU140      0.1561
    153  C         27.0900   28.8990    6.5740 C.2   140  LEU140      0.2260
    154  O         27.5980   29.4760    7.5430 O.2   140  LEU140     -0.2867
    155  CB        24.6190   28.5310    6.7390 C.3   140  LEU140      0.0270
    156  CG        23.2080   29.1140    6.6550 C.3   140  LEU140      0.0019
    157  CD1       22.1750   28.0840    7.0800 C.3   140  LEU140      0.0001
    158  CD2       23.1100   30.3590    7.5210 C.3   140  LEU140      0.0001
    159  N         25.2750   26.2460   12.1810 N.3   151  MET151     -0.1245
    160  CA        24.2330   25.3870   11.6340 C.3   151  MET151      0.1570
    161  C         24.7260   24.0020   11.2370 C.2   151  MET151      0.2261
    162  O         23.8980   23.1060   11.0400 O.2   151  MET151     -0.2867
    163  CB        23.5830   26.0630   10.4220 C.3   151  MET151      0.0387
    164  CG        22.9210   27.3890   10.7540 C.3   151  MET151      0.0595
    165  SD        21.6150   27.2110   11.9870 S.3   151  MET151     -0.1393
    166  CE        20.3870   26.3190   11.0430 C.3   151  MET151      0.0692
    167  N         23.4540   21.1680   13.2700 N.3   154  LYS154     -0.1245
    168  CA        22.0220   20.9810   13.0610 C.3   154  LYS154      0.1561
    169  C         21.7470   20.2330   11.7620 C.2   154  LYS154      0.2260
    170  O         20.8460   19.3880   11.7060 O.2   154  LYS154     -0.2867
    171  CB        21.3050   22.3320   13.0660 C.3   154  LYS154      0.0271
    172  CG        21.1600   22.9770   14.4420 C.3   154  LYS154      0.0035
    173  CD        22.4300   23.6930   14.8740 C.3   154  LYS154      0.0206
    174  CE        22.2530   24.3760   16.2190 C.3   154  LYS154      0.1093
    175  NZ        23.4990   25.0610   16.6590 N.3   154  LYS154     -0.1314
    176  N         26.0530   24.3620   21.0360 N.3   236  HIS236     -0.1241
    177  CA        25.4690   25.6560   20.7010 C.3   236  HIS236      0.1621
    178  C         25.7380   26.6890   21.7900 C.2   236  HIS236      0.2264
    179  O         26.0550   27.8460   21.4880 O.2   236  HIS236     -0.2867
    180  CB        23.9670   25.5070   20.4620 C.3   236  HIS236      0.0745
    181  CG        23.2880   26.7840   20.0750 C.ar  236  HIS236      0.0817
    182  ND1       23.2920   27.2690   18.7850 N.ar  236  HIS236     -0.2268
    183  CD2       22.5870   27.6780   20.8110 C.ar  236  HIS236      0.1154
    184  CE1       22.6200   28.4060   18.7420 C.ar  236  HIS236      0.1986
    185  NE2       22.1820   28.6770   19.9590 N.ar  236  HIS236     -0.2212
    186  N         27.8020   30.4070   21.7050 N.3   240  LEU240     -0.1245
    187  CA        27.2310   31.6640   22.1770 C.3   240  LEU240      0.1561
    188  C         28.1220   32.3340   23.2140 C.2   240  LEU240      0.2260
    189  O         28.1310   33.5660   23.3200 O.2   240  LEU240     -0.2867
    190  CB        25.8360   31.4240   22.7500 C.3   240  LEU240      0.0270
    191  CG        24.7900   30.9280   21.7510 C.3   240  LEU240      0.0019
    192  CD1       23.4610   30.7270   22.4440 C.3   240  LEU240      0.0001
    193  CD2       24.6480   31.9010   20.5930 C.3   240  LEU240      0.0001
    194  N         21.9170   38.7600   23.1310 N.3   252  LEU252     -0.1245
    195  CA        20.8210   37.8600   22.8150 C.3   252  LEU252      0.1561
    196  C         19.4810   38.5060   23.1540 C.2   252  LEU252      0.2260
    197  O         19.4030   39.5150   23.8610 O.2   252  LEU252     -0.2867
    198  CB        20.9710   36.5430   23.5760 C.3   252  LEU252      0.0270
    199  CG        22.2340   35.7250   23.3050 C.3   252  LEU252      0.0019
    200  CD1       22.3080   34.5360   24.2490 C.3   252  LEU252      0.0001
    201  CD2       22.2750   35.2660   21.8550 C.3   252  LEU252      0.0001
    202  N         15.5380   34.7320   25.1190 N.3   256  LEU256     -0.1245
    203  CA        16.5950   33.7410   24.9570 C.3   256  LEU256      0.1561
    204  C         17.6040   33.8040   26.0970 C.2   256  LEU256      0.2260
    205  O         18.1370   32.7670   26.5050 O.2   256  LEU256     -0.2867
    206  CB        17.2960   33.9350   23.6110 C.3   256  LEU256      0.0270
    207  CG        16.4400   33.6930   22.3660 C.3   256  LEU256      0.0019
    208  CD1       17.2170   34.0190   21.0990 C.3   256  LEU256      0.0001
    209  CD2       15.9320   32.2590   22.3330 C.3   256  LEU256      0.0001
    210  N         18.9680   30.6940   28.6840 N.3   260  TYR260     -0.1241
    211  CA        20.3680   30.3300   28.8640 C.3   260  TYR260      0.1605
    212  C         20.9080   30.6580   30.2490 C.2   260  TYR260      0.2264
    213  O         22.0420   30.2700   30.5530 O.2   260  TYR260     -0.2867
    214  CB        21.2340   31.0250   27.8130 C.3   260  TYR260      0.0534
    215  CG        21.0480   30.4750   26.4230 C.ar  260  TYR260     -0.0201
    216  CD1       21.4130   29.1720   26.1220 C.ar  260  TYR260     -0.0009
    217  CD2       20.5140   31.2580   25.4100 C.ar  260  TYR260     -0.0009
    218  CE1       21.2460   28.6630   24.8550 C.ar  260  TYR260      0.0417
    219  CE2       20.3430   30.7570   24.1390 C.ar  260  TYR260      0.0417
    220  CZ        20.7120   29.4580   23.8680 C.ar  260  TYR260      0.1957
    221  OH        20.5500   28.9420   22.6040 O.3   260  TYR260     -0.2866
@<TRIPOS>BOND
     1   128   126    1
     2   143   144    1
     3   145   144    1
     4   145   146    2
     5   144   147    1
     6   126   127    1
     7   126   125    1
     8   147   148    1
     9   148   149    1
    10   136   134    1
    11   117   116    2
    12   114   115    1
    13   134   133    1
    14   132   131    2
    15   151   152    1
    16   142   141    1
    17   122   125    1
    18   122   121    1
    19   122   123    1
    20   150   149    1
    21   116   121   am
    22   116   115    1
    23   140   139    2
    24   141   138    1
    25   129   123   am
    26   129   130    1
    27   115   118    1
    28   131   130    1
    29   131   137   am
    30   123   124    2
    31   133   130    1
    32   133   135    1
    33   139   138    1
    34   109   108    2
    35   152   153    1
    36   152   155    1
    37   138   137    1
    38     8     6    1
    39   153   154    2
    40   119   118    1
    41   108   107    1
    42   156   155    1
    43   156   157    1
    44   156   158    1
    45   118   120    1
    46     6     5    1
    47   107   110    1
    48   107   106    1
    49   110   111    1
    50   113   111    1
    51     5     7    1
    52     5     2    1
    53   111   112    1
    54     2     1    1
    55     2     3    1
    56   101   100    2
    57   163   164    1
    58   163   160    1
    59   164   165    1
    60     3     4    2
    61     3     9   am
    62   162   161    2
    63   166   165    1
    64   161   160    1
    65   104   103    1
    66   100    99    1
    67   160   159    1
    68   170   169    2
    69   169   168    1
    70     9    10    1
    71    21    20    1
    72    21    22    1
    73    29    28    1
    74   103   105    1
    75   103   102    1
    76    99   102    1
    77    99    98    1
    78    22    23    2
    79    22    24   am
    80    24    25    1
    81    45    44    1
    82    45    46    1
    83   168   171    1
    84   168   167    1
    85   171   172    1
    86    44    43    1
    87    46    47    2
    88    10    13    1
    89    10    11    1
    90    43    40    1
    91    47    49    1
    92    47    48    1
    93    25    28    1
    94    25    26    1
    95    13    14    1
    96    11    12    2
    97   172   173    1
    98    40    39    1
    99    40    41    1
   100   173   174    1
   101    89    88    2
   102    26    27    2
   103    26    30   am
   104    14    15   ar
   105    14    16   ar
   106    15    17   ar
   107    30    31    1
   108    81    80    2
   109    41    42    2
   110    41    50   am
   111    88    87    1
   112   174   175    1
   113    16    18   ar
   114    17    19   ar
   115    50    51    1
   116    87    90    1
   117    87    86    1
   118    80    86   am
   119    80    79    1
   120    32    31    1
   121    32    33    2
   122    31    34    1
   123    92    94   ar
   124    92    91   ar
   125    90    91    1
   126    84    82    1
   127    55    54    1
   128    60    57    1
   129    94    96   ar
   130    18    19   ar
   131    51    54    1
   132    51    52    1
   133    34    35    1
   134    91    93   ar
   135    56    57    1
   136    35    36    1
   137    79    82    1
   138    79    78    1
   139    57    58    1
   140    82    83    1
   141    38    36   am
   142   184   182   ar
   143   184   185   ar
   144    96    97    1
   145    96    95   ar
   146   182   181   ar
   147    52    53    2
   148    36    37    2
   149    93    95   ar
   150    83    85    1
   151    58    59    2
   152   185   183   ar
   153   181   180    1
   154   181   183   ar
   155   180   177    1
   156   193   191    1
   157    71    70    2
   158   177   176    1
   159   177   178    1
   160   208   207    1
   161   179   178    2
   162   186   187    1
   163   191   192    1
   164   191   190    1
   165    70    69    1
   166   201   199    1
   167    64    63    2
   168   187   190    1
   169   187   188    1
   170   209   207    1
   171   207   206    1
   172    69    72    1
   173    69    68    1
   174   221   220    1
   175    75    77   ar
   176    75    73   ar
   177   195   194    1
   178   195   196    1
   179   195   198    1
   180    77    76   ar
   181    63    68   am
   182    63    62    1
   183   196   197    2
   184   188   189    2
   185    73    72    1
   186    73    74   ar
   187   199   198    1
   188   199   200    1
   189    67    65    1
   190   206   203    1
   191    76    74   ar
   192   220   219   ar
   193   220   218   ar
   194   219   217   ar
   195    62    65    1
   196    62    61    1
   197    65    66    1
   198   218   216   ar
   199   203   202    1
   200   203   204    1
   201   217   215   ar
   202   204   205    2
   203   216   215   ar
   204   215   214    1
   205   214   211    1
   206   210   211    1
   207   211   212    1
   208   212   213    2
