@<TRIPOS>MOLECULE
tmp/6d3hB00.pdb
 160 151 0 0 0
SMALL
GASTEIGER

@<TRIPOS>ATOM
      1  N         33.4660  -33.3050  -23.7980 N.3    71  VAL71      -0.1245
      2  CA        33.8780  -34.6560  -23.5560 C.3    71  VAL71       0.1561
      3  C         33.5870  -35.4930  -24.7950 C.2    71  VAL71       0.2260
      4  O         32.6750  -35.1740  -25.6090 O.2    71  VAL71      -0.2867
      5  CB        33.2050  -35.2520  -22.2810 C.3    71  VAL71       0.0252
      6  CG1       33.6920  -34.4140  -21.0630 C.3    71  VAL71       0.0019
      7  CG2       31.6080  -35.2280  -22.4230 C.3    71  VAL71       0.0019
      8  N         32.0820  -38.2990  -25.4230 N.3    73  ILE73      -0.1231
      9  CA        30.9870  -39.2490  -25.6860 C.3    73  ILE73       0.1692
     10  C         29.6110  -38.5720  -25.9530 C.2    73  ILE73       0.2591
     11  O         28.7350  -39.1650  -26.5830 O.2    73  ILE73      -0.2718
     12  CB        30.8720  -40.2540  -24.5410 C.3    73  ILE73       0.0266
     13  CG1       30.1200  -41.5300  -25.0760 C.3    73  ILE73       0.0019
     14  CG2       30.2490  -39.5440  -23.2420 C.3    73  ILE73       0.0020
     15  CD1       29.8510  -42.6090  -24.0500 C.3    73  ILE73       0.0001
     16  N         29.4320  -37.3190  -25.5100 N.am   74  LEU74      -0.1980
     17  CA        28.0570  -36.6940  -25.4990 C.3    74  LEU74       0.1596
     18  C         27.7680  -35.8880  -26.8060 C.2    74  LEU74       0.2287
     19  O         28.6930  -35.1970  -27.3100 O.2    74  LEU74      -0.2864
     20  CB        27.8810  -35.7770  -24.2560 C.3    74  LEU74       0.0297
     21  CG        28.0310  -36.4860  -22.8970 C.3    74  LEU74       0.0022
     22  CD1       27.9010  -35.4310  -21.7410 C.3    74  LEU74       0.0001
     23  CD2       26.9560  -37.5460  -22.7720 C.3    74  LEU74       0.0001
     24  N         22.6870  -33.7770  -21.3980 N.3    86  ILE86      -0.1245
     25  CA        22.3280  -34.9640  -20.6120 C.3    86  ILE86       0.1561
     26  C         20.7890  -35.0360  -20.6930 C.2    86  ILE86       0.2260
     27  O         20.0800  -34.3880  -19.9140 O.2    86  ILE86      -0.2867
     28  CB        22.8120  -34.8150  -19.1470 C.3    86  ILE86       0.0252
     29  CG1       24.3780  -34.8200  -19.1890 C.3    86  ILE86       0.0019
     30  CG2       22.2310  -36.0080  -18.2120 C.3    86  ILE86       0.0019
     31  CD1       25.0160  -36.1730  -19.6120 C.3    86  ILE86       0.0001
     32  N         20.1230  -47.8280  -20.4700 N.3    95  ARG95      -0.1245
     33  CA        20.9250  -47.4730  -19.3070 C.3    95  ARG95       0.1563
     34  C         20.9070  -45.9690  -18.9930 C.2    95  ARG95       0.2260
     35  O         20.9290  -45.1560  -19.8880 O.2    95  ARG95      -0.2867
     36  CB        22.3820  -47.8540  -19.5430 C.3    95  ARG95       0.0307
     37  CG        23.1470  -47.7200  -18.1960 C.3    95  ARG95       0.0489
     38  CD        24.3740  -48.5790  -18.1290 C.3    95  ARG95       0.2205
     39  NE        24.9880  -48.3050  -16.8270 N.pl3  95  ARG95      -0.0865
     40  CZ        26.2690  -48.5450  -16.5530 C.cat  95  ARG95       0.5346
     41  NH1       27.0410  -49.0930  -17.4930 N.pl3  95  ARG95       0.1354
     42  NH2       26.7710  -48.2420  -15.3390 N.pl3  95  ARG95       0.1354
     43  N         22.6130  -42.5990  -18.0070 N.3    97  ILE97      -0.1231
     44  CA        23.9850  -42.0970  -18.1390 C.3    97  ILE97       0.1692
     45  C         24.5950  -41.7410  -16.7750 C.2    97  ILE97       0.2593
     46  O         23.9760  -41.0140  -15.9760 O.2    97  ILE97      -0.2718
     47  CB        23.9850  -40.7990  -19.0080 C.3    97  ILE97       0.0266
     48  CG1       23.6370  -41.1010  -20.4870 C.3    97  ILE97       0.0019
     49  CG2       25.3960  -40.1160  -18.9400 C.3    97  ILE97       0.0020
     50  CD1       23.1370  -39.7870  -21.2890 C.3    97  ILE97       0.0001
     51  N         25.8140  -42.2220  -16.5120 N.am   98  GLY98      -0.1942
     52  CA        26.5180  -41.7870  -15.3020 C.3    98  GLY98       0.2014
     53  C         25.9340  -42.3920  -14.0130 C.2    98  GLY98       0.2639
     54  O         26.1160  -41.8580  -12.9250 O.2    98  GLY98      -0.2714
     55  N         25.3120  -43.5490  -14.0910 N.am   99  ASP99      -0.1957
     56  CA        24.6170  -44.0610  -12.8580 C.3    99  ASP99       0.1840
     57  C         25.5420  -44.9020  -11.8990 C.2    99  ASP99       0.2622
     58  O         25.0560  -45.8390  -11.1940 O.2    99  ASP99      -0.2715
     59  CB        23.3720  -44.8870  -13.2400 C.3    99  ASP99       0.1450
     60  CG        23.7220  -46.1940  -14.0170 C.2    99  ASP99       0.3671
     61  OD1       24.8800  -46.3970  -14.4700 O.co2  99  ASP99      -0.2456
     62  OD2       22.8020  -47.0490  -14.1860 O.co2  99  ASP99      -0.2456
     63  N         26.8470  -44.6610  -11.9400 N.am  100  ASP100     -0.1971
     64  CA        27.8090  -45.2860  -10.9720 C.3   100  ASP100      0.1709
     65  C         28.6860  -44.1380  -10.5520 C.2   100  ASP100      0.2293
     66  O         28.8170  -43.1560  -11.3340 O.2   100  ASP100     -0.2864
     67  CB        28.6580  -46.3480  -11.6800 C.3   100  ASP100      0.1436
     68  CG        27.9650  -47.7540  -11.6650 C.2   100  ASP100      0.3671
     69  OD1       27.4170  -48.1500  -10.5850 O.co2 100  ASP100     -0.2456
     70  OD2       27.9940  -48.4690  -12.7030 O.co2 100  ASP100     -0.2456
     71  N         31.6590  -41.8880  -10.4400 N.3   102  HIS102     -0.1241
     72  CA        32.8290  -41.7420  -11.3530 C.3   102  HIS102      0.1621
     73  C         33.2580  -40.2910  -11.3280 C.2   102  HIS102      0.2264
     74  O         32.5590  -39.4270  -10.7440 O.2   102  HIS102     -0.2867
     75  CB        32.4280  -42.1030  -12.7880 C.3   102  HIS102      0.0745
     76  CG        31.3360  -41.2070  -13.3460 C.ar  102  HIS102      0.0817
     77  ND1       30.0130  -41.3490  -13.0060 N.ar  102  HIS102     -0.2268
     78  CD2       31.3800  -40.1600  -14.2100 C.ar  102  HIS102      0.1154
     79  CE1       29.2920  -40.3880  -13.5710 C.ar  102  HIS102      0.1986
     80  NE2       30.0860  -39.6880  -14.3470 N.ar  102  HIS102     -0.2212
     81  N         34.4920  -37.5300  -14.6240 N.3   104  ASP104     -0.1225
     82  CA        34.3280  -37.6160  -16.0580 C.3   104  ASP104      0.1805
     83  C         35.5880  -37.8800  -16.8430 C.2   104  ASP104      0.2598
     84  O         36.5970  -37.2290  -16.6180 O.2   104  ASP104     -0.2718
     85  CB        33.6460  -36.3690  -16.6380 C.3   104  ASP104      0.1424
     86  CG        32.1620  -36.3290  -16.2650 C.2   104  ASP104      0.3668
     87  OD1       31.4960  -35.3500  -16.5910 O.co2 104  ASP104     -0.2456
     88  OD2       31.6740  -37.3670  -15.7270 O.co2 104  ASP104     -0.2456
     89  N         35.4100  -38.6950  -17.8750 N.am  105  SER105     -0.1952
     90  CA        36.3690  -38.8570  -19.0230 C.3   105  SER105      0.1924
     91  C         37.8290  -39.0470  -18.5300 C.2   105  SER105      0.2314
     92  O         38.7540  -38.4440  -19.0830 O.2   105  SER105     -0.2863
     93  CB        36.1800  -37.6740  -20.0420 C.3   105  SER105      0.2116
     94  OG        34.9290  -37.8250  -20.7630 O.3   105  SER105     -0.2180
     95  N         39.7510  -41.6170  -18.8060 N.3   107  PHE107     -0.1241
     96  CA        40.5230  -42.3240  -19.8240 C.3   107  PHE107      0.1605
     97  C         41.3500  -41.3490  -20.6940 C.2   107  PHE107      0.2264
     98  O         42.2340  -41.7790  -21.4150 O.2   107  PHE107     -0.2867
     99  CB        39.5540  -43.1650  -20.7010 C.3   107  PHE107      0.0534
    100  CG        38.5170  -42.3210  -21.4510 C.ar  107  PHE107     -0.0203
    101  CD1       38.8150  -41.7670  -22.7430 C.ar  107  PHE107     -0.0042
    102  CD2       37.2580  -42.0840  -20.8810 C.ar  107  PHE107     -0.0042
    103  CE1       37.8320  -40.9930  -23.4400 C.ar  107  PHE107     -0.0003
    104  CE2       36.2650  -41.3020  -21.5730 C.ar  107  PHE107     -0.0003
    105  CZ        36.5290  -40.7800  -22.8220 C.ar  107  PHE107     -0.0000
    106  N         32.6490  -48.4500  -21.2400 N.3   161  VAL161     -0.1245
    107  CA        31.6620  -47.4760  -21.6160 C.3   161  VAL161      0.1561
    108  C         31.4510  -47.4690  -23.1200 C.2   161  VAL161      0.2260
    109  O         30.3110  -47.3440  -23.5860 O.2   161  VAL161     -0.2867
    110  CB        32.0460  -46.0620  -21.0870 C.3   161  VAL161      0.0252
    111  CG1       30.9420  -45.0270  -21.4890 C.3   161  VAL161      0.0019
    112  CG2       32.1890  -46.1360  -19.5700 C.3   161  VAL161      0.0019
    113  N         23.2970  -47.4730  -23.7550 N.3   173  PHE173     -0.1241
    114  CA        22.7520  -46.1320  -23.6440 C.3   173  PHE173      0.1605
    115  C         21.9530  -45.9190  -24.8780 C.2   173  PHE173      0.2264
    116  O         22.1930  -46.5910  -25.9030 O.2   173  PHE173     -0.2867
    117  CB        23.8750  -45.0830  -23.6050 C.3   173  PHE173      0.0534
    118  CG        24.8120  -45.2540  -22.4500 C.ar  173  PHE173     -0.0203
    119  CD1       24.3840  -45.0000  -21.1540 C.ar  173  PHE173     -0.0042
    120  CD2       26.1290  -45.6940  -22.6570 C.ar  173  PHE173     -0.0042
    121  CE1       25.2300  -45.1980  -20.0740 C.ar  173  PHE173     -0.0003
    122  CE2       26.9940  -45.8670  -21.5660 C.ar  173  PHE173     -0.0003
    123  CZ        26.5300  -45.6460  -20.2810 C.ar  173  PHE173     -0.0000
    124  N         24.0490  -39.8850  -26.4210 N.3   178  VAL178     -0.1245
    125  CA        25.3190  -40.6140  -26.5220 C.3   178  VAL178      0.1561
    126  C         25.6500  -40.9110  -28.0190 C.2   178  VAL178      0.2260
    127  O         24.8190  -41.4620  -28.7670 O.2   178  VAL178     -0.2867
    128  CB        25.3080  -41.9010  -25.6550 C.3   178  VAL178      0.0252
    129  CG1       26.5570  -42.8190  -25.9270 C.3   178  VAL178      0.0019
    130  CG2       25.2390  -41.5110  -24.1960 C.3   178  VAL178      0.0019
    131  N         34.3100  -46.8000  -12.9370 N.3   211  VAL211     -0.1231
    132  CA        33.8190  -46.7590  -14.2990 C.3   211  VAL211      0.1692
    133  C         35.0030  -46.8640  -15.3180 C.2   211  VAL211      0.2592
    134  O         34.9350  -47.6550  -16.2970 O.2   211  VAL211     -0.2718
    135  CB        33.0050  -45.4770  -14.5790 C.3   211  VAL211      0.0266
    136  CG1       32.6400  -45.4190  -16.0860 C.3   211  VAL211      0.0020
    137  CG2       31.7040  -45.4840  -13.7410 C.3   211  VAL211      0.0020
    138  N         36.0510  -46.0500  -15.0960 N.am  212  TYR212     -0.1976
    139  CA        37.2190  -46.0410  -16.0110 C.3   212  TYR212      0.1639
    140  C         38.4990  -46.7160  -15.5420 C.2   212  TYR212      0.2290
    141  O         39.3500  -47.0120  -16.4060 O.2   212  TYR212     -0.2864
    142  CB        37.5890  -44.5920  -16.3940 C.3   212  TYR212      0.0560
    143  CG        36.4700  -43.8860  -17.1240 C.ar  212  TYR212     -0.0198
    144  CD1       36.0300  -44.3610  -18.3350 C.ar  212  TYR212     -0.0009
    145  CD2       35.7740  -42.8250  -16.5210 C.ar  212  TYR212     -0.0009
    146  CE1       34.9250  -43.7480  -19.0190 C.ar  212  TYR212      0.0417
    147  CE2       34.7090  -42.1530  -17.2080 C.ar  212  TYR212      0.0417
    148  CZ        34.3180  -42.6130  -18.4600 C.ar  212  TYR212      0.1957
    149  OH        33.2280  -42.0350  -19.1110 O.3   212  TYR212     -0.2866
    150  N         25.5150  -29.0790  -20.4720 N.3   276  ARG276     -0.1245
    151  CA        26.7710  -28.8990  -19.7050 C.3   276  ARG276      0.1563
    152  C         27.8620  -28.4820  -20.6390 C.2   276  ARG276      0.2260
    153  O         27.8890  -28.9250  -21.8100 O.2   276  ARG276     -0.2867
    154  CB        27.1700  -30.2580  -18.9650 C.3   276  ARG276      0.0307
    155  CG        26.9350  -31.4660  -19.9510 C.3   276  ARG276      0.0489
    156  CD        27.5980  -32.7550  -19.3890 C.3   276  ARG276      0.2205
    157  NE        29.0700  -32.7230  -19.4800 N.pl3 276  ARG276     -0.0865
    158  CZ        29.8400  -33.5560  -18.7700 C.cat 276  ARG276      0.5346
    159  NH1       29.2810  -34.4660  -17.9710 N.pl3 276  ARG276      0.1354
    160  NH2       31.1550  -33.5310  -18.8760 N.pl3 276  ARG276      0.1354
@<TRIPOS>BOND
     1   127   126    2
     2   126   125    1
     3    19    18    2
     4    18    17    1
     5    11    10    2
     6   125   124    1
     7   125   128    1
     8    10     9    1
     9    10    16   am
    10   129   128    1
    11   116   115    2
    12     9     8    1
    13     9    12    1
    14   128   130    1
    15     4     3    2
    16    16    17    1
    17    17    20    1
    18    13    12    1
    19    13    15    1
    20   115   114    1
    21     3     2    1
    22    12    14    1
    23    20    21    1
    24     1     2    1
    25   113   114    1
    26   114   117    1
    27   117   118    1
    28   109   108    2
    29     2     5    1
    30   103   105   ar
    31   103   101   ar
    32   108   107    1
    33    21    23    1
    34    21    22    1
    35   105   104   ar
    36   101   100   ar
    37   120   118   ar
    38   120   122   ar
    39   118   119   ar
    40     7     5    1
    41     5     6    1
    42   153   152    2
    43   107   106    1
    44   107   110    1
    45   104   102   ar
    46   122   123   ar
    47   111   110    1
    48   100   102   ar
    49   100    99    1
    50    98    97    2
    51    24    25    1
    52    50    48    1
    53   119   121   ar
    54   110   112    1
    55    94    93    1
    56    99    96    1
    57    97    96    1
    58    26    25    1
    59    26    27    2
    60   152   151    1
    61    25    28    1
    62    48    47    1
    63   150   151    1
    64    32    33    1
    65   123   121   ar
    66    93    90    1
    67   155   156    1
    68   155   154    1
    69    35    34    2
    70    96    95    1
    71   151   154    1
    72    31    29    1
    73    36    33    1
    74    36    37    1
    75   157   156    1
    76   157   158    2
    77    33    34    1
    78    29    28    1
    79    28    30    1
    80   149   148    1
    81    92    91    2
    82    90    91    1
    83    90    89    1
    84   146   148   ar
    85   146   144   ar
    86    47    49    1
    87    47    44    1
    88   160   158    1
    89   158   159    1
    90   148   147   ar
    91   144   143   ar
    92    37    38    1
    93    44    43    1
    94    44    45    1
    95    38    39    1
    96    89    83   am
    97    41    40    1
    98   147   145   ar
    99   143   145   ar
   100   143   142    1
   101    83    84    2
   102    83    82    1
   103    39    40    2
   104    45    51   am
   105    45    46    2
   106    85    86    1
   107    85    82    1
   108    87    86   ar
   109    40    42    1
   110    51    52    1
   111   141   140    2
   112   142   139    1
   113   134   133    2
   114    86    88   ar
   115   136   135    1
   116    82    81    1
   117   139   140    1
   118   139   138    1
   119   133   138   am
   120   133   132    1
   121    52    53    1
   122   135   132    1
   123   135   137    1
   124    61    60   ar
   125    80    78   ar
   126    80    79   ar
   127   132   131    1
   128    78    76   ar
   129    62    60   ar
   130    55    53   am
   131    55    56    1
   132    60    59    1
   133    53    54    2
   134    79    77   ar
   135    76    77   ar
   136    76    75    1
   137    59    56    1
   138    56    57    1
   139    75    72    1
   140    70    68   ar
   141    63    57   am
   142    63    64    1
   143    57    58    2
   144    67    68    1
   145    67    64    1
   146    68    69   ar
   147    72    73    1
   148    72    71    1
   149    66    65    2
   150    73    74    2
   151    64    65    1
