@<TRIPOS>MOLECULE
tmp/6d3mA00.pdb
 190 181 0 0 0
SMALL
GASTEIGER

@<TRIPOS>ATOM
      1  N         11.9960  -45.4160   23.8980 N.3    71  VAL71      -0.1245
      2  CA        12.9160  -46.4920   23.6280 C.3    71  VAL71       0.1561
      3  C         13.8260  -46.6540   24.8530 C.2    71  VAL71       0.2260
      4  O         14.0060  -45.7130   25.6240 O.2    71  VAL71      -0.2867
      5  CB        13.7700  -46.2090   22.3190 C.3    71  VAL71       0.0252
      6  CG1       12.8780  -46.2090   21.0960 C.3    71  VAL71       0.0019
      7  CG2       14.5550  -44.8660   22.4310 C.3    71  VAL71       0.0019
      8  N         17.0890  -46.7670   25.4960 N.3    73  ILE73      -0.1231
      9  CA        18.4260  -46.2680   25.7350 C.3    73  ILE73       0.1692
     10  C         18.5020  -44.7400   26.0000 C.2    73  ILE73       0.2591
     11  O         19.4770  -44.2630   26.6030 O.2    73  ILE73      -0.2718
     12  CB        19.3430  -46.6960   24.5850 C.3    73  ILE73       0.0266
     13  CG1       20.7970  -46.6630   25.0440 C.3    73  ILE73       0.0019
     14  CG2       19.0320  -45.8680   23.2520 C.3    73  ILE73       0.0020
     15  CD1       21.8290  -46.9810   23.9330 C.3    73  ILE73       0.0001
     16  N         17.5070  -43.9690   25.5580 N.am   74  LEU74      -0.1980
     17  CA        17.6790  -42.4780   25.5420 C.3    74  LEU74       0.1596
     18  C         17.1300  -41.8050   26.8180 C.2    74  LEU74       0.2287
     19  O         16.0880  -42.2560   27.3330 O.2    74  LEU74      -0.2864
     20  CB        16.9660  -41.8620   24.3110 C.3    74  LEU74       0.0297
     21  CG        17.4590  -42.3800   22.9350 C.3    74  LEU74       0.0022
     22  CD1       16.6200  -41.6990   21.8050 C.3    74  LEU74       0.0001
     23  CD2       18.9460  -42.0610   22.7830 C.3    74  LEU74       0.0001
     24  N         17.8670  -36.3290   21.4290 N.3    86  ILE86      -0.1245
     25  CA        19.0460  -36.6540   20.6500 C.3    86  ILE86       0.1561
     26  C         19.8840  -35.3580   20.7360 C.2    86  ILE86       0.2260
     27  O         19.6330  -34.4250   20.0170 O.2    86  ILE86      -0.2867
     28  CB        18.6920  -37.0510   19.1880 C.3    86  ILE86       0.0252
     29  CG1       17.9540  -38.4210   19.1710 C.3    86  ILE86       0.0019
     30  CG2       20.0080  -37.1150   18.2440 C.3    86  ILE86       0.0019
     31  CD1       18.8170  -39.6410   19.6390 C.3    86  ILE86       0.0001
     32  N         31.3160  -41.1960   20.5140 N.3    95  ARG95      -0.1245
     33  CA        30.6650  -41.6720   19.3150 C.3    95  ARG95       0.1563
     34  C         29.3310  -40.9230   19.0270 C.2    95  ARG95       0.2260
     35  O         28.6100  -40.5470   19.9670 O.2    95  ARG95      -0.2867
     36  CB        30.3820  -43.1420   19.4730 C.3    95  ARG95       0.0307
     37  CG        30.5420  -43.8610   18.1550 C.3    95  ARG95       0.0489
     38  CD        29.4240  -44.8400   17.9350 C.3    95  ARG95       0.2205
     39  NE        29.4340  -45.3430   16.5690 N.pl3  95  ARG95      -0.0865
     40  CZ        29.8710  -46.5530   16.2160 C.cat  95  ARG95       0.5346
     41  NH1       30.3230  -47.4040   17.1430 N.pl3  95  ARG95       0.1354
     42  NH2       29.8320  -46.9200   14.9280 N.pl3  95  ARG95       0.1354
     43  N         25.5260  -40.7430   18.0350 N.3    97  ILE97      -0.1231
     44  CA        24.4250  -41.6790   18.1460 C.3    97  ILE97       0.1692
     45  C         23.8190  -42.0200   16.7620 C.2    97  ILE97       0.2593
     46  O         23.5160  -41.1230   15.9840 O.2    97  ILE97      -0.2718
     47  CB        23.2640  -41.1150   19.0650 C.3    97  ILE97       0.0266
     48  CG1       23.7250  -40.8550   20.5060 C.3    97  ILE97       0.0019
     49  CG2       22.0440  -42.0590   19.0510 C.3    97  ILE97       0.0020
     50  CD1       22.8470  -39.7190   21.2410 C.3    97  ILE97       0.0001
     51  N         23.5750  -43.3090   16.5010 N.am   98  GLY98      -0.1942
     52  CA        22.9030  -43.7350   15.2900 C.3    98  GLY98       0.2014
     53  C         23.7030  -43.4950   13.9990 C.2    98  GLY98       0.2639
     54  O         23.1350  -43.3410   12.9450 O.2    98  GLY98      -0.2714
     55  N         25.0230  -43.5120   14.0590 N.am   99  ASP99      -0.1957
     56  CA        25.7960  -43.1280   12.8410 C.3    99  ASP99       0.1840
     57  C         26.0780  -44.2940   11.8510 C.2    99  ASP99       0.2622
     58  O         27.1230  -44.3340   11.1720 O.2    99  ASP99      -0.2715
     59  CB        27.0950  -42.3880   13.2080 C.3    99  ASP99       0.1450
     60  CG        28.1340  -43.3010   13.9000 C.2    99  ASP99       0.3671
     61  OD1       27.7940  -44.4140   14.3660 O.co2  99  ASP99      -0.2456
     62  OD2       29.3180  -42.9030   13.9390 O.co2  99  ASP99      -0.2456
     63  N         25.1960  -45.2740   11.8030 N.am  100  ASP100     -0.1971
     64  CA        25.2150  -46.2230   10.6910 C.3   100  ASP100      0.1709
     65  C         23.7820  -46.6080   10.4290 C.2   100  ASP100      0.2293
     66  O         22.9210  -46.3410   11.2740 O.2   100  ASP100     -0.2864
     67  CB        26.0160  -47.4610   11.0040 C.3   100  ASP100      0.1436
     68  CG        26.7610  -48.0210    9.7110 C.2   100  ASP100      0.3671
     69  OD1       26.2600  -47.8660    8.5240 O.co2 100  ASP100     -0.2456
     70  OD2       27.8700  -48.5750    9.9080 O.co2 100  ASP100     -0.2456
     71  N         20.3710  -48.2460   10.4660 N.3   102  HIS102     -0.1241
     72  CA        19.6810  -49.1460   11.3840 C.3   102  HIS102      0.1621
     73  C         18.2180  -48.7680   11.3720 C.2   102  HIS102      0.2264
     74  O         17.8170  -47.7510   10.7620 O.2   102  HIS102     -0.2867
     75  CB        20.2420  -48.9690   12.8180 C.3   102  HIS102      0.0745
     76  CG        20.0370  -47.5740   13.3820 C.ar  102  HIS102      0.0817
     77  ND1       20.8190  -46.4970   13.0110 N.ar  102  HIS102     -0.2268
     78  CD2       19.1140  -47.0860   14.2580 C.ar  102  HIS102      0.1154
     79  CE1       20.3770  -45.4070   13.6310 C.ar  102  HIS102      0.1986
     80  NE2       19.3540  -45.7420   14.3970 N.ar  102  HIS102     -0.2212
     81  N         15.1980  -48.5510   14.6500 N.3   104  ASP104     -0.1225
     82  CA        15.3040  -48.4040   16.0930 C.3   104  ASP104      0.1805
     83  C         14.8970  -49.6100   16.8730 C.2   104  ASP104      0.2598
     84  O         13.8420  -50.1810   16.6090 O.2   104  ASP104     -0.2718
     85  CB        14.5230  -47.1730   16.5810 C.3   104  ASP104      0.1424
     86  CG        15.3120  -45.9080   16.3530 C.2   104  ASP104      0.3668
     87  OD1       14.8430  -44.8410   16.6920 O.co2 104  ASP104     -0.2456
     88  OD2       16.4230  -46.0340   15.8100 O.co2 104  ASP104     -0.2456
     89  N         15.7290  -49.9430   17.8570 N.am  105  SER105     -0.1952
     90  CA        15.3340  -50.8660   18.9810 C.3   105  SER105      0.1924
     91  C         14.7440  -52.2030   18.5260 C.2   105  SER105      0.2314
     92  O         13.7270  -52.6650   19.0890 O.2   105  SER105     -0.2863
     93  CB        14.3520  -50.1740   19.9600 C.3   105  SER105      0.2116
     94  OG        14.9970  -49.1100   20.6570 O.3   105  SER105     -0.2180
     95  N         16.0400  -55.0970   18.8170 N.3   107  PHE107     -0.1241
     96  CA        16.2300  -56.1150   19.8640 C.3   107  PHE107      0.1605
     97  C         14.9580  -56.3540   20.6930 C.2   107  PHE107      0.2264
     98  O         14.8740  -57.3320   21.4250 O.2   107  PHE107     -0.2867
     99  CB        17.3740  -55.7320   20.8180 C.3   107  PHE107      0.0534
    100  CG        17.1750  -54.3930   21.5080 C.ar  107  PHE107     -0.0203
    101  CD1       16.5660  -54.3100   22.7740 C.ar  107  PHE107     -0.0042
    102  CD2       17.6530  -53.2220   20.9060 C.ar  107  PHE107     -0.0042
    103  CE1       16.4060  -53.0430   23.4200 C.ar  107  PHE107     -0.0003
    104  CE2       17.5050  -51.9780   21.5260 C.ar  107  PHE107     -0.0003
    105  CZ        16.9060  -51.8780   22.7830 C.ar  107  PHE107     -0.0000
    106  N         25.9190  -55.0960   20.8600 N.3   160  LYS160     -0.1231
    107  CA        26.9410  -54.1310   20.3840 C.3   160  LYS160      0.1693
    108  C         26.7000  -52.7310   20.8740 C.2   160  LYS160      0.2591
    109  O         27.6250  -51.8910   20.8170 O.2   160  LYS160     -0.2718
    110  CB        27.0300  -54.0610   18.8440 C.3   160  LYS160      0.0285
    111  CG        27.1030  -55.4130   18.1760 C.3   160  LYS160      0.0035
    112  CD        27.6480  -55.3230   16.7390 C.3   160  LYS160      0.0206
    113  CE        27.9170  -56.7580   16.1190 C.3   160  LYS160      0.1093
    114  NZ        27.8350  -56.7470   14.6050 N.3   160  LYS160     -0.1314
    115  N         25.4610  -52.4610   21.2960 N.am  161  VAL161     -0.1980
    116  CA        25.0680  -51.1520   21.7220 C.3   161  VAL161      0.1595
    117  C         25.1710  -50.9470   23.2210 C.2   161  VAL161      0.2287
    118  O         25.6660  -49.9010   23.6870 O.2   161  VAL161     -0.2864
    119  CB        23.6340  -50.7800   21.2210 C.3   161  VAL161      0.0276
    120  CG1       23.2920  -49.3080   21.6230 C.3   161  VAL161      0.0022
    121  CG2       23.5970  -50.9300   19.7220 C.3   161  VAL161      0.0022
    122  N         34.4520  -53.3020   23.9150 N.3   169  THR169     -0.1218
    123  CA        35.1390  -52.3430   23.0460 C.3   169  THR169      0.1862
    124  C         35.4850  -51.0550   23.7940 C.2   169  THR169      0.2287
    125  O         35.1440  -50.8700   24.9760 O.2   169  THR169     -0.2866
    126  CB        34.3860  -52.0060   21.6950 C.3   169  THR169      0.1770
    127  OG1       33.4300  -50.9520   21.9020 O.3   169  THR169     -0.2211
    128  CG2       33.7030  -53.2370   21.0450 C.3   169  THR169      0.0375
    129  N         35.2180  -47.4440   22.2880 N.3   171  TRP171     -0.1241
    130  CA        34.3450  -46.2690   22.0730 C.3   171  TRP171      0.1605
    131  C         33.1470  -46.2320   23.0560 C.2   171  TRP171      0.2264
    132  O         32.6660  -47.2760   23.5180 O.2   171  TRP171     -0.2867
    133  CB        33.8570  -46.2070   20.6270 C.3   171  TRP171      0.0550
    134  CG        32.8790  -47.3070   20.3060 C.ar  171  TRP171      0.0003
    135  CD1       33.1650  -48.5290   19.7540 C.ar  171  TRP171      0.0946
    136  CD2       31.4580  -47.2930   20.5310 C.ar  171  TRP171      0.0152
    137  NE1       32.0070  -49.2680   19.6150 N.ar  171  TRP171     -0.2442
    138  CE2       30.9500  -48.5340   20.0840 C.ar  171  TRP171      0.0810
    139  CE3       30.5710  -46.3530   21.0680 C.ar  171  TRP171      0.0012
    140  CZ2       29.5940  -48.8610   20.1580 C.ar  171  TRP171      0.0191
    141  CZ3       29.2260  -46.6720   21.1380 C.ar  171  TRP171      0.0001
    142  CH2       28.7490  -47.9210   20.6860 C.ar  171  TRP171      0.0015
    143  N         29.3430  -43.7590   23.9610 N.3   173  PHE173     -0.1241
    144  CA        28.4660  -42.6090   23.8100 C.3   173  PHE173      0.1605
    145  C         28.6650  -41.7560   25.0330 C.2   173  PHE173      0.2264
    146  O         29.0490  -42.2760   26.0860 O.2   173  PHE173     -0.2867
    147  CB        27.0210  -43.0680   23.8140 C.3   173  PHE173      0.0534
    148  CG        26.6670  -43.9420   22.6550 C.ar  173  PHE173     -0.0203
    149  CD1       26.6830  -43.4400   21.3640 C.ar  173  PHE173     -0.0042
    150  CD2       26.3010  -45.2740   22.8590 C.ar  173  PHE173     -0.0042
    151  CE1       26.3390  -44.2490   20.2800 C.ar  173  PHE173     -0.0003
    152  CE2       25.9420  -46.0970   21.7690 C.ar  173  PHE173     -0.0003
    153  CZ        25.9680  -45.5880   20.4980 C.ar  173  PHE173     -0.0000
    154  N         22.3700  -40.6370   26.4840 N.3   178  VAL178     -0.1245
    155  CA        22.3500  -42.0950   26.5840 C.3   178  VAL178      0.1561
    156  C         22.4540  -42.5210   28.0770 C.2   178  VAL178      0.2260
    157  O         23.3720  -42.0770   28.7810 O.2   178  VAL178     -0.2867
    158  CB        23.4930  -42.7160   25.7020 C.3   178  VAL178      0.0252
    159  CG1       23.6520  -44.2540   25.9190 C.3   178  VAL178      0.0019
    160  CG2       23.2200  -42.4180   24.2350 C.3   178  VAL178      0.0019
    161  N         23.2860  -53.0390   13.0510 N.3   211  VAL211     -0.1231
    162  CA        23.4690  -52.6030   14.4370 C.3   211  VAL211      0.1692
    163  C         22.9540  -53.7150   15.3970 C.2   211  VAL211      0.2592
    164  O         23.6780  -54.1310   16.3090 O.2   211  VAL211     -0.2718
    165  CB        22.7760  -51.2420   14.7170 C.3   211  VAL211      0.0266
    166  CG1       22.8390  -50.8650   16.2220 C.3   211  VAL211      0.0020
    167  CG2       23.4000  -50.1090   13.8730 C.3   211  VAL211      0.0020
    168  N         21.7360  -54.2110   15.1680 N.am  212  TYR212     -0.1976
    169  CA        21.1490  -55.1840   16.0840 C.3   212  TYR212      0.1639
    170  C         21.0790  -56.6410   15.6140 C.2   212  TYR212      0.2290
    171  O         20.8920  -57.5370   16.4620 O.2   212  TYR212     -0.2864
    172  CB        19.7130  -54.7590   16.4180 C.3   212  TYR212      0.0560
    173  CG        19.6560  -53.4440   17.1290 C.ar  212  TYR212     -0.0198
    174  CD1       20.2750  -53.2900   18.3420 C.ar  212  TYR212     -0.0009
    175  CD2       19.0450  -52.3250   16.5390 C.ar  212  TYR212     -0.0009
    176  CE1       20.2620  -52.0330   19.0320 C.ar  212  TYR212      0.0417
    177  CE2       19.0220  -51.0590   17.2200 C.ar  212  TYR212      0.0417
    178  CZ        19.5980  -50.9540   18.4780 C.ar  212  TYR212      0.1957
    179  OH        19.6130  -49.7330   19.1780 O.3   212  TYR212     -0.2866
    180  N         12.3260  -36.4990   20.4860 N.3   276  ARG276     -0.1245
    181  CA        11.5510  -37.5100   19.7350 C.3   276  ARG276      0.1563
    182  C         10.6520  -38.3020   20.6620 C.2   276  ARG276      0.2260
    183  O         10.9990  -38.5570   21.8420 O.2   276  ARG276     -0.2867
    184  CB        12.5220  -38.5030   18.9920 C.3   276  ARG276      0.0307
    185  CG        13.6310  -38.9750   19.9340 C.3   276  ARG276      0.0489
    186  CD        14.4770  -40.1240   19.3290 C.3   276  ARG276      0.2205
    187  NE        13.7910  -41.3880   19.4380 N.pl3 276  ARG276     -0.0865
    188  CZ        14.1430  -42.4720   18.7620 C.cat 276  ARG276      0.5346
    189  NH1       15.2330  -42.4740   17.9980 N.pl3 276  ARG276      0.1354
    190  NH2       13.4480  -43.5740   18.8740 N.pl3 276  ARG276      0.1354
@<TRIPOS>BOND
     1    69    68   ar
     2    68    70   ar
     3    68    67    1
     4    65    64    1
     5    65    66    2
     6    71    72    1
     7    64    67    1
     8    64    63    1
     9    74    73    2
    10    58    57    2
    11    73    72    1
    12    72    75    1
    13    63    57   am
    14    57    56    1
    15    75    76    1
    16    56    59    1
    17    56    55    1
    18    54    53    2
    19    77    76   ar
    20    77    79   ar
    21   161   162    1
    22    59    60    1
    23    76    78   ar
    24    79    80   ar
    25   167   165    1
    26    60    62   ar
    27    60    61   ar
    28    53    55   am
    29    53    52    1
    30    78    80   ar
    31   162   165    1
    32   162   163    1
    33   114   113    1
    34    81    82    1
    35   165   166    1
    36    42    40    1
    37   168   163   am
    38   168   169    1
    39    52    51    1
    40   163   164    2
    41   170   169    1
    42   170   171    2
    43    88    86   ar
    44    46    45    2
    45   169   172    1
    46    82    85    1
    47    82    83    1
    48   113   112    1
    49    40    39    2
    50    40    41    1
    51    86    85    1
    52    86    87   ar
    53   172   173    1
    54    51    45   am
    55   175   173   ar
    56   175   177   ar
    57    39    38    1
    58    84    83    2
    59   112   111    1
    60    45    44    1
    61    83    89   am
    62   173   174   ar
    63   177   178   ar
    64    89    90    1
    65    38    37    1
    66   189   188    1
    67    43    44    1
    68    44    47    1
    69    37    36    1
    70   111   110    1
    71    30    28    1
    72   174   176   ar
    73   178   176   ar
    74   178   179    1
    75    91    90    1
    76    91    92    2
    77   188   190    1
    78   188   187    2
    79    95    96    1
    80   110   107    1
    81    90    93    1
    82   184   181    1
    83   184   185    1
    84    34    33    1
    85    34    35    2
    86    49    47    1
    87    47    48    1
    88    29    28    1
    89    29    31    1
    90    28    25    1
    91    33    36    1
    92    33    32    1
    93   186   187    1
    94   186   185    1
    95   137   135   ar
    96   137   138   ar
    97   121   119    1
    98   181   180    1
    99   181   182    1
   100   135   134   ar
   101    96    97    1
   102    96    99    1
   103    93    94    1
   104    27    26    2
   105   138   140   ar
   106   138   136   ar
   107   140   142   ar
   108   151   153   ar
   109   151   149   ar
   110   134   136   ar
   111   134   133    1
   112   107   106    1
   113   107   108    1
   114   153   152   ar
   115    48    50    1
   116   136   139   ar
   117   133   130    1
   118    25    26    1
   119    25    24    1
   120   182   183    2
   121   142   141   ar
   122    97    98    2
   123   109   108    2
   124    99   100    1
   125   108   115   am
   126   102   100   ar
   127   102   104   ar
   128   128   126    1
   129   139   141   ar
   130     6     5    1
   131   119   120    1
   132   119   116    1
   133   115   116    1
   134   149   148   ar
   135   100   101   ar
   136   104   105   ar
   137   126   127    1
   138   126   123    1
   139   116   117    1
   140   152   150   ar
   141    22    21    1
   142   130   129    1
   143   130   131    1
   144     5     7    1
   145     5     2    1
   146   148   150   ar
   147   148   147    1
   148   101   103   ar
   149    23    21    1
   150   105   103   ar
   151    21    20    1
   152   123   124    1
   153   123   122    1
   154   131   132    2
   155   117   118    2
   156    14    12    1
   157     2     1    1
   158     2     3    1
   159   124   125    2
   160   144   147    1
   161   144   143    1
   162   144   145    1
   163    15    13    1
   164   160   158    1
   165    20    17    1
   166    12    13    1
   167    12     9    1
   168     3     4    2
   169   145   146    2
   170     8     9    1
   171    17    16    1
   172    17    18    1
   173    16    10   am
   174   158   159    1
   175   158   155    1
   176     9    10    1
   177    10    11    2
   178   154   155    1
   179   155   156    1
   180    18    19    2
   181   156   157    2
