@<TRIPOS>MOLECULE
tmp/6d3uA00.pdb
 115 106 0 0 0
SMALL
GASTEIGER

@<TRIPOS>ATOM
      1  N         31.2280   39.4470   37.5960 N.3    71  LEU71      -0.1231
      2  CA        29.9760   39.2810   36.8730 C.3    71  LEU71       0.1693
      3  C         29.4670   37.8450   36.9510 C.2    71  LEU71       0.2591
      4  O         30.2150   36.9050   37.1980 O.2    71  LEU71      -0.2718
      5  CB        30.1720   39.6840   35.4260 C.3    71  LEU71       0.0284
      6  CG        30.7600   41.0770   35.2200 C.3    71  LEU71       0.0019
      7  CD1       30.9540   41.3740   33.7330 C.3    71  LEU71       0.0001
      8  CD2       29.8500   42.1110   35.8730 C.3    71  LEU71       0.0001
      9  N         28.1670   37.6830   36.7380 N.am   72  GLN72      -0.1979
     10  CA        27.5700   36.3580   36.8140 C.3    72  GLN72       0.1601
     11  C         27.9620   35.5410   35.5860 C.2    72  GLN72       0.2287
     12  O         28.3370   36.0940   34.5520 O.2    72  GLN72      -0.2864
     13  CB        26.0490   36.4620   36.9120 C.3    72  GLN72       0.0394
     14  CG        25.5080   36.8190   38.2920 C.3    72  GLN72       0.0908
     15  CD        25.6060   35.6650   39.2570 C.2    72  GLN72       0.2608
     16  OE1       25.1630   34.5480   38.9680 O.2    72  GLN72      -0.2717
     17  NE2       26.2240   35.9160   40.4070 N.am   72  GLN72      -0.0878
     18  N         18.2010   35.6390   33.5170 N.3   114  TYR114     -0.1241
     19  CA        17.8190   36.4600   32.3760 C.3   114  TYR114      0.1605
     20  C         17.8840   35.6450   31.0940 C.2   114  TYR114      0.2264
     21  O         18.9100   35.0190   30.8010 O.2   114  TYR114     -0.2867
     22  CB        18.7270   37.6870   32.2290 C.3   114  TYR114      0.0534
     23  CG        18.9320   38.5500   33.4490 C.ar  114  TYR114     -0.0201
     24  CD1       17.8960   39.3360   33.9720 C.ar  114  TYR114     -0.0009
     25  CD2       20.1900   38.6190   34.0560 C.ar  114  TYR114     -0.0009
     26  CE1       18.1200   40.1480   35.0840 C.ar  114  TYR114      0.0417
     27  CE2       20.4180   39.4270   35.1730 C.ar  114  TYR114      0.0417
     28  CZ        19.3890   40.1820   35.6840 C.ar  114  TYR114      0.1957
     29  OH        19.6500   40.9720   36.7840 O.3   114  TYR114     -0.2866
     30  N         18.0210   40.6970   27.1930 N.3   117  GLN117     -0.1245
     31  CA        18.1750   42.0100   27.8030 C.3   117  GLN117      0.1566
     32  C         18.3350   43.0400   26.7140 C.2   117  GLN117      0.2260
     33  O         18.8510   42.7460   25.6330 O.2   117  GLN117     -0.2867
     34  CB        19.3840   42.0900   28.7330 C.3   117  GLN117      0.0367
     35  CG        20.6890   41.6540   28.0520 C.3   117  GLN117      0.0905
     36  CD        21.9080   42.0060   28.8820 C.2   117  GLN117      0.2608
     37  OE1       21.9850   43.1070   29.4130 O.2   117  GLN117     -0.2717
     38  NE2       22.8510   41.0570   29.0290 N.am  117  GLN117     -0.0878
     39  N         27.9890   51.7110   34.7500 N.3   128  SER128     -0.1217
     40  CA        29.1320   51.0260   34.1740 C.3   128  SER128      0.1889
     41  C         29.3970   51.4930   32.7390 C.2   128  SER128      0.2288
     42  O         28.5370   52.0930   32.0910 O.2   128  SER128     -0.2866
     43  CB        28.9020   49.5200   34.2130 C.3   128  SER128      0.2089
     44  OG        28.0490   49.1310   33.1620 O.3   128  SER128     -0.2183
     45  N         23.4550   48.1580   31.3410 N.3   132  ALA132     -0.1245
     46  CA        22.1690   47.5710   30.9960 C.3   132  ALA132      0.1562
     47  C         21.0540   48.6200   31.0410 C.2   132  ALA132      0.2260
     48  O         21.1140   49.5930   31.7970 O.2   132  ALA132     -0.2867
     49  CB        21.8400   46.4180   31.9390 C.3   132  ALA132      0.0290
     50  N         16.4050   44.1130   31.7150 N.3   135  LEU135     -0.1245
     51  CA        16.5900   42.6960   31.5020 C.3   135  LEU135      0.1561
     52  C         15.2990   41.9410   31.8000 C.2   135  LEU135      0.2260
     53  O         14.4800   42.3530   32.6290 O.2   135  LEU135     -0.2867
     54  CB        17.7200   42.1800   32.3700 C.3   135  LEU135      0.0270
     55  CG        18.9730   43.0540   32.3490 C.3   135  LEU135      0.0019
     56  CD1       18.8630   44.1430   33.4190 C.3   135  LEU135      0.0001
     57  CD2       20.2440   42.1810   32.5230 C.3   135  LEU135      0.0001
     58  N         13.4010   43.7980   34.9270 N.3   160  GLU160     -0.1245
     59  CA        14.2740   44.5880   35.7930 C.3   160  GLU160      0.1567
     60  C         14.7620   45.7770   34.9770 C.2   160  GLU160      0.2260
     61  O         15.4960   45.6030   34.0010 O.2   160  GLU160     -0.2867
     62  CB        15.4330   43.7410   36.2890 C.3   160  GLU160      0.0388
     63  CG        16.4490   44.4860   37.0840 C.3   160  GLU160      0.1160
     64  CD        17.6100   43.6050   37.4600 C.2   160  GLU160      0.3649
     65  OE1       17.4490   42.3680   37.3680 O.co2 160  GLU160     -0.2457
     66  OE2       18.6650   44.1310   37.8750 O.co2 160  GLU160     -0.2457
     67  N         21.6810   50.9980   38.9740 N.3   168  SER168     -0.1217
     68  CA        21.8660   49.6360   39.4350 C.3   168  SER168      0.1889
     69  C         21.5270   49.5880   40.9170 C.2   168  SER168      0.2288
     70  O         21.5400   50.6080   41.6070 O.2   168  SER168     -0.2866
     71  CB        23.2910   49.1550   39.2400 C.3   168  SER168      0.2089
     72  OG        24.1170   49.7770   40.1950 O.3   168  SER168     -0.2183
     73  N         17.1960   50.4790   39.9860 N.3   173  ARG173     -0.1245
     74  CA        16.3200   49.6750   39.1480 C.3   173  ARG173      0.1563
     75  C         15.0450   49.3200   39.8880 C.2   173  ARG173      0.2260
     76  O         15.0420   49.1670   41.1080 O.2   173  ARG173     -0.2867
     77  CB        17.0220   48.3790   38.6950 C.3   173  ARG173      0.0307
     78  CG        18.1340   48.6400   37.6980 C.3   173  ARG173      0.0489
     79  CD        18.9610   47.4030   37.4370 C.3   173  ARG173      0.2205
     80  NE        20.0980   47.7150   36.5700 N.pl3 173  ARG173     -0.0865
     81  CZ        20.9970   46.8220   36.1820 C.cat 173  ARG173      0.5346
     82  NH1       20.8950   45.5560   36.5710 N.pl3 173  ARG173      0.1354
     83  NH2       21.9990   47.2020   35.4200 N.pl3 173  ARG173      0.1354
     84  N         21.9050   34.3150   31.3860 N.3   238  TYR238     -0.1227
     85  CA        22.7460   35.2320   32.1490 C.3   238  TYR238      0.1736
     86  C         22.1550   35.3120   33.5430 C.2   238  TYR238      0.2595
     87  O         20.9340   35.4290   33.6830 O.2   238  TYR238     -0.2718
     88  CB        22.7780   36.6180   31.5020 C.3   238  TYR238      0.0548
     89  CG        23.6430   37.6870   32.1710 C.ar  238  TYR238     -0.0200
     90  CD1       24.7670   37.3630   32.9300 C.ar  238  TYR238     -0.0009
     91  CD2       23.3140   39.0300   32.0340 C.ar  238  TYR238     -0.0009
     92  CE1       25.5310   38.3480   33.5310 C.ar  238  TYR238      0.0417
     93  CE2       24.0670   40.0180   32.6210 C.ar  238  TYR238      0.0417
     94  CZ        25.1720   39.6790   33.3630 C.ar  238  TYR238      0.1957
     95  OH        25.8980   40.6960   33.9260 O.3   238  TYR238     -0.2866
     96  N         23.0170   35.1900   34.5520 N.am  239  ARG239     -0.1980
     97  CA        22.6750   35.2930   35.9680 C.3   239  ARG239      0.1597
     98  C         22.1110   34.0010   36.5180 C.2   239  ARG239      0.2287
     99  O         21.0340   33.5570   36.1130 O.2   239  ARG239     -0.2864
    100  CB        21.6680   36.4180   36.2260 C.3   239  ARG239      0.0334
    101  CG        21.0730   36.3760   37.6490 C.3   239  ARG239      0.0492
    102  CD        20.0030   37.4390   37.7880 C.3   239  ARG239      0.2205
    103  NE        19.1670   37.3420   38.9900 N.pl3 239  ARG239     -0.0865
    104  CZ        19.1280   38.2830   39.9320 C.cat 239  ARG239      0.5346
    105  NH1       19.8930   39.3660   39.8200 N.pl3 239  ARG239      0.1354
    106  NH2       18.3320   38.1490   40.9790 N.pl3 239  ARG239      0.1354
    107  N         22.4330   32.9090   40.5440 N.3   241  LYS241     -0.1245
    108  CA        23.1080   33.0500   41.8300 C.3   241  LYS241      0.1561
    109  C         22.9230   31.8460   42.7440 C.2   241  LYS241      0.2260
    110  O         23.5880   31.7640   43.7760 O.2   241  LYS241     -0.2867
    111  CB        22.6630   34.3400   42.5150 C.3   241  LYS241      0.0271
    112  CG        23.0640   35.5890   41.7210 C.3   241  LYS241      0.0035
    113  CD        22.8720   36.8730   42.5180 C.3   241  LYS241      0.0206
    114  CE        23.5230   38.0440   41.8130 C.3   241  LYS241      0.1093
    115  NZ        23.3340   39.3220   42.5450 N.3   241  LYS241     -0.1314
@<TRIPOS>BOND
     1    33    32    2
     2    32    31    1
     3    30    31    1
     4    31    34    1
     5    35    34    1
     6    35    36    1
     7    36    38   am
     8    36    37    2
     9    21    20    2
    10    46    47    1
    11    46    45    1
    12    46    49    1
    13    47    48    2
    14    20    19    1
    15    84    85    1
    16    51    50    1
    17    51    52    1
    18    51    54    1
    19    88    85    1
    20    88    89    1
    21    52    53    2
    22    91    89   ar
    23    91    93   ar
    24    42    41    2
    25    85    86    1
    26    89    90   ar
    27    22    19    1
    28    22    23    1
    29    55    54    1
    30    55    57    1
    31    55    56    1
    32    19    18    1
    33    93    94   ar
    34    41    40    1
    35    90    92   ar
    36    44    43    1
    37    94    92   ar
    38    94    95    1
    39    23    24   ar
    40    23    25   ar
    41    86    87    2
    42    86    96   am
    43     7     6    1
    44    24    26   ar
    45    61    60    2
    46    25    27   ar
    47    40    43    1
    48    40    39    1
    49    12    11    2
    50    96    97    1
    51    58    59    1
    52    60    59    1
    53    26    28   ar
    54    27    28   ar
    55     6     5    1
    56     6     8    1
    57    83    81    1
    58     5     2    1
    59    11    10    1
    60    28    29    1
    61    59    62    1
    62    97   100    1
    63    97    98    1
    64    99    98    2
    65    81    80    2
    66    81    82    1
    67   100   101    1
    68    62    63    1
    69    80    79    1
    70     9    10    1
    71     9     3   am
    72    10    13    1
    73     2     3    1
    74     2     1    1
    75    13    14    1
    76     3     4    2
    77    63    64    1
    78    65    64   ar
    79    79    78    1
    80    64    66   ar
    81   101   102    1
    82    78    77    1
    83   102   103    1
    84    14    15    1
    85    77    74    1
    86    16    15    2
    87    67    68    1
    88   103   104    2
    89    74    75    1
    90    74    73    1
    91    71    68    1
    92    71    72    1
    93    15    17   am
    94    68    69    1
    95   105   104    1
    96    75    76    2
    97   104   106    1
    98   107   108    1
    99    69    70    2
   100   112   111    1
   101   112   113    1
   102   114   113    1
   103   114   115    1
   104   108   111    1
   105   108   109    1
   106   109   110    2
