@<TRIPOS>MOLECULE
tmp/6d46A00.pdb
 118 115 0 0 0
SMALL
GASTEIGER

@<TRIPOS>ATOM
      1  N         23.9510   13.8300   -2.6520 N.3    27  TYR27      -0.1241
      2  CA        23.2640   12.8070   -1.8700 C.3    27  TYR27       0.1605
      3  C         22.3860   11.9040   -2.7260 C.2    27  TYR27       0.2264
      4  O         22.0140   10.8160   -2.2730 O.2    27  TYR27      -0.2867
      5  CB        22.4190   13.4640   -0.7800 C.3    27  TYR27       0.0534
      6  CG        23.2320   14.1450    0.2990 C.ar   27  TYR27      -0.0201
      7  CD1       24.5440   13.7580    0.5570 C.ar   27  TYR27      -0.0009
      8  CD2       22.6880   15.1770    1.0570 C.ar   27  TYR27      -0.0009
      9  CE1       25.2920   14.3780    1.5470 C.ar   27  TYR27       0.0417
     10  CE2       23.4270   15.8040    2.0470 C.ar   27  TYR27       0.0417
     11  CZ        24.7280   15.4010    2.2900 C.ar   27  TYR27       0.1957
     12  OH        25.4620   16.0230    3.2760 O.3    27  TYR27      -0.2866
     13  N         25.1780    8.3130    1.2840 N.3    44  THR44      -0.1203
     14  CA        25.2840    9.2290    2.4080 C.3    44  THR44       0.1994
     15  C         24.2000   10.2910    2.3030 C.2    44  THR44       0.2618
     16  O         23.7300   10.6160    1.2090 O.2    44  THR44      -0.2717
     17  CB        26.6730    9.8820    2.4590 C.3    44  THR44       0.1784
     18  OG1       26.7870   10.6800    3.6420 O.3    44  THR44      -0.2211
     19  CG2       26.8840   10.7740    1.2410 C.3    44  THR44       0.0376
     20  N         23.7870   10.8040    3.4560 N.am   45  ASN45      -0.1960
     21  CA        22.9800   12.0170    3.5210 C.3    45  ASN45       0.1819
     22  C         23.5850   12.9380    4.5740 C.2    45  ASN45       0.2621
     23  O         24.7780   12.8260    4.8800 O.2    45  ASN45      -0.2715
     24  CB        21.5020   11.7010    3.8150 C.3    45  ASN45       0.1195
     25  CG        21.2880   11.0030    5.1600 C.2    45  ASN45       0.2630
     26  OD1       22.0610   11.1780    6.0930 O.2    45  ASN45      -0.2716
     27  ND2       20.2130   10.2280    5.2640 N.am   45  ASN45      -0.0877
     28  N         22.7760   13.8260    5.1570 N.am   46  MET46      -0.1963
     29  CA        23.2960   14.7860    6.1210 C.3    46  MET46       0.1736
     30  C         23.7290   14.1360    7.4350 C.2    46  MET46       0.2616
     31  O         24.5550   14.7120    8.1520 O.2    46  MET46      -0.2715
     32  CB        22.2510   15.8700    6.4000 C.3    46  MET46       0.0427
     33  CG        22.7650   16.9370    7.3130 C.3    46  MET46       0.0599
     34  SD        23.8490   18.0030    6.3590 S.3    46  MET46      -0.1393
     35  CE        22.6370   19.2120    5.8670 C.3    46  MET46       0.0692
     36  N         23.1970   12.9610    7.7700 N.am   47  ASP47      -0.1957
     37  CA        23.4020   12.3860    9.0860 C.3    47  ASP47       0.1840
     38  C         23.9970   10.9920    9.0690 C.2    47  ASP47       0.2622
     39  O         24.5280   10.5570   10.1000 O.2    47  ASP47      -0.2715
     40  CB        22.0740   12.3380    9.8590 C.3    47  ASP47       0.1450
     41  CG        21.4500   13.7120   10.0350 C.2    47  ASP47       0.3671
     42  OD1       21.0730   14.3340    9.0170 O.co2  47  ASP47      -0.2456
     43  OD2       21.3430   14.1710   11.1900 O.co2  47  ASP47      -0.2456
     44  N         23.9270   10.2890    7.9420 N.am   48  LEU48      -0.1963
     45  CA        24.3230    8.8960    7.8170 C.3    48  LEU48       0.1728
     46  C         25.3450    8.7230    6.7070 C.2    48  LEU48       0.2616
     47  O         25.2880    9.3930    5.6660 O.2    48  LEU48      -0.2715
     48  CB        23.1270    7.9960    7.4720 C.3    48  LEU48       0.0311
     49  CG        22.0060    7.8870    8.4880 C.3    48  LEU48       0.0022
     50  CD1       20.8760    7.0710    7.8800 C.3    48  LEU48       0.0001
     51  CD2       22.5520    7.2370    9.7490 C.3    48  LEU48       0.0001
     52  N         26.2430    7.7690    6.9090 N.am   49  TYR49      -0.1974
     53  CA        27.0960    7.2760    5.8350 C.3    49  TYR49       0.1639
     54  C         27.0320    5.7610    5.8700 C.2    49  TYR49       0.2290
     55  O         27.3690    5.1450    6.8860 O.2    49  TYR49      -0.2864
     56  CB        28.5410    7.7770    5.9780 C.3    49  TYR49       0.0560
     57  CG        29.3240    7.7050    4.6720 C.ar   49  TYR49      -0.0198
     58  CD1       29.6760    6.4800    4.1200 C.ar   49  TYR49      -0.0009
     59  CD2       29.7170    8.8610    4.0060 C.ar   49  TYR49      -0.0009
     60  CE1       30.3930    6.4090    2.9030 C.ar   49  TYR49       0.0417
     61  CE2       30.4430    8.8020    2.8140 C.ar   49  TYR49       0.0417
     62  CZ        30.7680    7.5750    2.2660 C.ar   49  TYR49       0.1957
     63  OH        31.4760    7.5180    1.0760 O.3    49  TYR49      -0.2866
     64  N         31.5700   12.2750   -1.4910 N.3   113  PRO113     -0.2116
     65  CA        32.2470   12.3950   -0.1910 C.3   113  PRO113      0.1372
     66  C         32.7140   11.0560    0.3490 C.2   113  PRO113      0.2244
     67  O         31.9870   10.0640    0.3220 O.2   113  PRO113     -0.2868
     68  CB        31.1630   12.9890    0.7130 C.3   113  PRO113      0.0268
     69  CG        29.8770   12.4720    0.0980 C.3   113  PRO113      0.0207
     70  CD        30.1280   12.5480   -1.3890 C.3   113  PRO113      0.0892
     71  N         33.7400    9.8980    7.0990 N.3   116  ASP116     -0.1239
     72  CA        34.5530   10.4020    8.2000 C.3   116  ASP116      0.1674
     73  C         34.9510    9.2290    9.1020 C.2   116  ASP116      0.2266
     74  O         34.6910    8.0660    8.7910 O.2   116  ASP116     -0.2867
     75  CB        33.8010   11.5000    8.9520 C.3   116  ASP116      0.1410
     76  CG        33.8900   12.8490    8.2580 C.2   116  ASP116      0.3668
     77  OD1       34.6680   12.9890    7.2870 O.co2 116  ASP116     -0.2456
     78  OD2       33.1690   13.7760    8.6710 O.co2 116  ASP116     -0.2456
     79  N         30.7020   12.2120   19.5720 N.3   220  ASN220     -0.1225
     80  CA        30.1130   12.9360   18.4620 C.3   220  ASN220      0.1785
     81  C         29.6210   12.0520   17.3270 C.2   220  ASN220      0.2597
     82  O         29.0450   12.5830   16.3710 O.2   220  ASN220     -0.2718
     83  CB        31.0990   13.9900   17.9250 C.3   220  ASN220      0.1169
     84  CG        32.0350   13.4430   16.8710 C.2   220  ASN220      0.2627
     85  OD1       32.5400   12.3250   16.9840 O.2   220  ASN220     -0.2716
     86  ND2       32.2900   14.2440   15.8380 N.am  220  ASN220     -0.0877
     87  N         29.8020   10.7330   17.4010 N.am  221  LYS221     -0.1980
     88  CA        29.1890    9.8660   16.4030 C.3   221  LYS221      0.1596
     89  C         29.1610    8.4320   16.9150 C.2   221  LYS221      0.2287
     90  O         29.7740    8.0930   17.9270 O.2   221  LYS221     -0.2864
     91  CB        29.9030    9.9750   15.0450 C.3   221  LYS221      0.0298
     92  CG        31.3100    9.4890   15.0070 C.3   221  LYS221      0.0038
     93  CD        31.9820    9.9500   13.7080 C.3   221  LYS221      0.0206
     94  CE        32.5460   11.3690   13.8300 C.3   221  LYS221      0.1093
     95  NZ        32.5970   12.0920   12.5220 N.3   221  LYS221     -0.1314
     96  N         27.6730    4.8540    9.6670 N.3   233  LEU233     -0.1231
     97  CA        28.2390    5.8930   10.5130 C.3   233  LEU233      0.1693
     98  C         27.1920    6.9810   10.6660 C.2   233  LEU233      0.2593
     99  O         26.6520    7.4590    9.6660 O.2   233  LEU233     -0.2718
    100  CB        29.5250    6.4690    9.8950 C.3   233  LEU233      0.0284
    101  CG        30.3330    7.4600   10.7290 C.3   233  LEU233      0.0019
    102  CD1       30.8490    6.7840   12.0060 C.3   233  LEU233      0.0001
    103  CD2       31.5040    8.0760    9.9210 C.3   233  LEU233      0.0001
    104  N         26.8800    7.3580   11.9080 N.am  234  SER234     -0.1938
    105  CA        25.7610    8.2600   12.1420 C.3   234  SER234      0.2055
    106  C         26.1800    9.4040   13.0470 C.2   234  SER234      0.2642
    107  O         27.0060    9.2340   13.9510 O.2   234  SER234     -0.2714
    108  CB        24.5540    7.5150   12.7560 C.3   234  SER234      0.2130
    109  OG        23.5480    8.4280   13.1620 O.3   234  SER234     -0.2179
    110  N         25.6130   10.5740   12.7820 N.am  235  LYS235     -0.1977
    111  CA        25.6750   11.6650   13.7280 C.3   235  LYS235      0.1596
    112  C         24.8070   11.3300   14.9410 C.2   235  LYS235      0.2287
    113  O         24.0180   10.3810   14.9300 O.2   235  LYS235     -0.2864
    114  CB        25.2240   12.9650   13.0670 C.3   235  LYS235      0.0298
    115  CG        26.2970   13.5690   12.1820 C.3   235  LYS235      0.0038
    116  CD        25.7970   14.7760   11.4020 C.3   235  LYS235      0.0206
    117  CE        26.8270   15.1970   10.3490 C.3   235  LYS235      0.1093
    118  NZ        26.6260   16.5930    9.8760 N.3   235  LYS235     -0.1314
@<TRIPOS>BOND
     1     3     4    2
     2     3     2    1
     3     1     2    1
     4     2     5    1
     5    64    70    1
     6    64    65    1
     7    70    69    1
     8     5     6    1
     9    65    66    1
    10    65    68    1
    11    69    68    1
    12     6     7   ar
    13     6     8   ar
    14    67    66    2
    15     7     9   ar
    16     8    10   ar
    17    63    62    1
    18    16    15    2
    19    19    17    1
    20    13    14    1
    21     9    11   ar
    22    10    11   ar
    23    62    61   ar
    24    62    60   ar
    25    11    12    1
    26    15    14    1
    27    15    20   am
    28    14    17    1
    29    17    18    1
    30    61    59   ar
    31    60    58   ar
    32    20    21    1
    33    21    24    1
    34    21    22    1
    35    24    25    1
    36    59    57   ar
    37    58    57   ar
    38    22    23    2
    39    22    28   am
    40    57    56    1
    41    28    29    1
    42    25    27   am
    43    25    26    2
    44    47    46    2
    45    53    54    1
    46    53    56    1
    47    53    52    1
    48    35    34    1
    49    54    55    2
    50    29    32    1
    51    29    30    1
    52    34    33    1
    53    32    33    1
    54    46    52   am
    55    46    45    1
    56    71    72    1
    57    77    76   ar
    58    30    36   am
    59    30    31    2
    60    48    45    1
    61    48    49    1
    62    36    37    1
    63    45    44    1
    64    50    49    1
    65    44    38   am
    66    72    75    1
    67    72    73    1
    68    76    78   ar
    69    76    75    1
    70    49    51    1
    71    74    73    2
    72    42    41   ar
    73    38    37    1
    74    38    39    2
    75    37    40    1
    76    99    98    2
    77    96    97    1
    78    40    41    1
    79   118   117    1
    80   100    97    1
    81   100   101    1
    82   103   101    1
    83    41    43   ar
    84   117   116    1
    85    97    98    1
    86    98   104   am
    87   101   102    1
    88   116   115    1
    89   104   105    1
    90   105   108    1
    91   105   106    1
    92   115   114    1
    93    95    94    1
    94   108   109    1
    95   110   106   am
    96   110   111    1
    97   106   107    2
    98   114   111    1
    99    93    94    1
   100    93    92    1
   101   111   112    1
   102   113   112    2
   103    92    91    1
   104    91    88    1
   105    86    84   am
   106    82    81    2
   107    88    89    1
   108    88    87    1
   109    84    85    2
   110    84    83    1
   111    89    90    2
   112    81    87   am
   113    81    80    1
   114    83    80    1
   115    80    79    1
