@<TRIPOS>MOLECULE
tmp/6d4gA00.pdb
 161 152 0 0 0
SMALL
GASTEIGER

@<TRIPOS>ATOM
      1  N          4.7660    7.2800  149.7820 N.3     9  SER9       -0.1217
      2  CA         5.8920    6.9130  148.9410 C.3     9  SER9        0.1889
      3  C          5.5630    7.2930  147.5070 C.2     9  SER9        0.2288
      4  O          4.3960    7.4450  147.1390 O.2     9  SER9       -0.2866
      5  CB         6.2080    5.4170  149.0440 C.3     9  SER9        0.2089
      6  OG         6.2490    4.9950  150.3950 O.3     9  SER9       -0.2183
      7  N          6.8590   13.0220  147.0540 N.3    15  LYS15      -0.1245
      8  CA         7.4150   13.0900  148.4010 C.3    15  LYS15       0.1561
      9  C          8.0260   14.4420  148.7420 C.2    15  LYS15       0.2260
     10  O          8.6330   14.5780  149.8090 O.2    15  LYS15      -0.2867
     11  CB         8.4740   12.0040  148.6100 C.3    15  LYS15       0.0271
     12  CG         7.9830   10.5760  148.4770 C.3    15  LYS15       0.0035
     13  CD         9.1420    9.6010  148.6530 C.3    15  LYS15       0.0206
     14  CE        10.3270    9.9640  147.7740 C.3    15  LYS15       0.1093
     15  NZ        11.1320    8.7670  147.4060 N.3    15  LYS15      -0.1314
     16  N         11.5550   14.4500  150.0440 N.3    18  CYS18      -0.1221
     17  CA        11.8680   14.1340  151.4420 C.3    18  CYS18       0.1808
     18  C         10.9470   12.9970  151.8910 C.2    18  CYS18       0.2602
     19  O          9.7700   13.2400  152.1720 O.2    18  CYS18      -0.2717
     20  CB        11.7270   15.3550  152.3390 C.3    18  CYS18       0.0970
     21  SG        12.3320   15.0800  154.0270 S.3    18  CYS18      -0.0800
     22  N         11.4720   11.7760  151.9560 N.am   19  GLY19      -0.1942
     23  CA        10.6410   10.6750  152.4060 C.3    19  GLY19       0.2014
     24  C         10.2290   10.8470  153.8560 C.2    19  GLY19       0.2639
     25  O         10.7890   11.6370  154.6170 O.2    19  GLY19      -0.2714
     26  N          9.2340   10.0460  154.2570 N.am   20  ILE20      -0.1963
     27  CA         8.6090   10.2470  155.5650 C.3    20  ILE20       0.1727
     28  C          9.3050    9.5540  156.7330 C.2    20  ILE20       0.2617
     29  O          8.8770    9.7420  157.8820 O.2    20  ILE20      -0.2715
     30  CB         7.1210    9.8480  155.4740 C.3    20  ILE20       0.0290
     31  CG1        6.9410    8.3410  155.3100 C.3    20  ILE20       0.0022
     32  CG2        6.4760   10.5540  154.2930 C.3    20  ILE20       0.0023
     33  CD1        6.6240    7.6350  156.6110 C.3    20  ILE20       0.0001
     34  N         10.3230    8.7320  156.4930 N.am   21  GLY21      -0.1940
     35  CA        11.0820    8.1420  157.5800 C.3    21  GLY21       0.2014
     36  C         10.9550    6.6410  157.7740 C.2    21  GLY21       0.2639
     37  O         11.4230    6.1300  158.7990 O.2    21  GLY21      -0.2714
     38  N         10.3270    5.9260  156.8390 N.am   22  LYS22      -0.1963
     39  CA        10.1530    4.4800  156.9700 C.3    22  LYS22       0.1728
     40  C         11.4890    3.7740  157.1640 C.2    22  LYS22       0.2617
     41  O         11.6740    3.0050  158.1180 O.2    22  LYS22      -0.2715
     42  CB         9.4290    3.9080  155.7500 C.3    22  LYS22       0.0311
     43  CG         8.1150    4.5750  155.3950 C.3    22  LYS22       0.0038
     44  CD         7.4870    3.9040  154.1770 C.3    22  LYS22       0.0206
     45  CE         8.2440    4.2210  152.8950 C.3    22  LYS22       0.1093
     46  NZ         8.2700    5.6800  152.6010 N.3    22  LYS22      -0.1314
     47  N         12.4290    4.0260  156.2530 N.am   23  SER23      -0.1936
     48  CA        13.7080    3.3250  156.2580 C.3    23  SER23       0.2055
     49  C         14.4830    3.5520  157.5500 C.2    23  SER23       0.2643
     50  O         15.0170    2.6010  158.1280 O.2    23  SER23      -0.2714
     51  CB        14.5330    3.7690  155.0500 C.3    23  SER23       0.2130
     52  OG        13.9890    3.2560  153.8480 O.3    23  SER23      -0.2179
     53  N         14.5860    4.8020  158.0120 N.am   24  CYS24      -0.1967
     54  CA        15.3310    5.0320  159.2480 C.3    24  CYS24       0.1712
     55  C         14.6470    4.4000  160.4570 C.2    24  CYS24       0.2296
     56  O         15.3310    3.9110  161.3630 O.2    24  CYS24      -0.2864
     57  CB        15.5380    6.5290  159.4730 C.3    24  CYS24       0.0983
     58  SG        16.6100    7.3160  158.2500 S.3    24  CYS24      -0.0798
     59  N         21.2980    7.1460  158.3170 N.3    39  LEU39      -0.1231
     60  CA        20.2730    8.1660  158.1390 C.3    39  LEU39       0.1693
     61  C         19.8440    8.3000  156.6870 C.2    39  LEU39       0.2592
     62  O         18.7760    8.8600  156.4180 O.2    39  LEU39      -0.2718
     63  CB        20.7670    9.5180  158.6580 C.3    39  LEU39       0.0284
     64  CG        20.5400    9.7820  160.1470 C.3    39  LEU39       0.0019
     65  CD1       21.2030   11.0810  160.5700 C.3    39  LEU39       0.0001
     66  CD2       19.0520    9.8130  160.4560 C.3    39  LEU39       0.0001
     67  N         20.6450    7.7980  155.7520 N.am   40  ASP40      -0.1960
     68  CA        20.4550    8.0370  154.3270 C.3    40  ASP40       0.1840
     69  C         20.2240    6.6980  153.6380 C.2    40  ASP40       0.2622
     70  O         21.1250    5.8540  153.5910 O.2    40  ASP40      -0.2715
     71  CB        21.6620    8.7540  153.7250 C.3    40  ASP40       0.1450
     72  CG        21.5430    8.9340  152.2240 C.2    40  ASP40       0.3671
     73  OD1       20.4020    9.0210  151.7220 O.co2  40  ASP40      -0.2456
     74  OD2       22.5900    8.9770  151.5450 O.co2  40  ASP40      -0.2456
     75  N         19.0120    6.5050  153.1170 N.am   41  HIS41      -0.1973
     76  CA        18.6160    5.2630  152.4480 C.3    41  HIS41       0.1656
     77  C         17.8510    5.6950  151.2000 C.2    41  HIS41       0.2291
     78  O         16.6210    5.7950  151.2130 O.2    41  HIS41      -0.2864
     79  CB        17.7740    4.3740  153.3520 C.3    41  HIS41       0.0771
     80  CG        18.5390    3.7570  154.4800 C.ar   41  HIS41       0.0820
     81  ND1       19.4210    2.7130  154.2990 N.ar   41  HIS41      -0.2267
     82  CD2       18.5520    4.0360  155.8050 C.ar   41  HIS41       0.1154
     83  CE1       19.9440    2.3760  155.4630 C.ar   41  HIS41       0.1986
     84  NE2       19.4340    3.1630  156.3930 N.ar   41  HIS41      -0.2212
     85  N         16.0670    5.7990  147.5750 N.3    43  SER43      -0.1217
     86  CA        15.1580    4.9470  146.8230 C.3    43  SER43       0.1889
     87  C         15.2930    5.1830  145.3260 C.2    43  SER43       0.2288
     88  O         14.4830    4.6710  144.5450 O.2    43  SER43      -0.2866
     89  CB        13.7130    5.1830  147.2680 C.3    43  SER43       0.2089
     90  OG        13.5440    4.8750  148.6390 O.3    43  SER43      -0.2183
     91  N          9.6300   -3.0940  154.6810 N.3    77  GLU77      -0.1245
     92  CA         9.2370   -1.7260  154.3630 C.3    77  GLU77       0.1567
     93  C          8.6550   -1.7080  152.9580 C.2    77  GLU77       0.2260
     94  O          9.3310   -2.0950  152.0000 O.2    77  GLU77      -0.2867
     95  CB        10.4250   -0.7650  154.4550 C.3    77  GLU77       0.0388
     96  CG        10.1900    0.5690  153.7550 C.3    77  GLU77       0.1160
     97  CD        11.4380    1.4300  153.6800 C.2    77  GLU77       0.3649
     98  OE1       12.4840    1.0180  154.2250 O.co2  77  GLU77      -0.2457
     99  OE2       11.3690    2.5250  153.0820 O.co2  77  GLU77      -0.2457
    100  N          7.7160    0.4880  149.9020 N.3    79  THR79      -0.1218
    101  CA         8.0760    1.7970  149.3710 C.3    79  THR79       0.1862
    102  C          7.8720    1.8700  147.8620 C.2    79  THR79       0.2287
    103  O          7.0530    1.1310  147.3050 O.2    79  THR79      -0.2866
    104  CB         9.5270    2.1300  149.7430 C.3    79  THR79       0.1770
    105  OG1        9.8300    3.4790  149.3660 O.3    79  THR79      -0.2211
    106  CG2       10.5100    1.1570  149.0890 C.3    79  THR79       0.0375
    107  N          6.5940    9.9490  162.8820 N.3   179  THR179     -0.1203
    108  CA         8.0330    9.9250  162.6870 C.3   179  THR179      0.1994
    109  C          8.6200   11.3290  162.7530 C.2   179  THR179      0.2617
    110  O          7.9410   12.3290  162.5070 O.2   179  THR179     -0.2717
    111  CB         8.3830    9.2850  161.3400 C.3   179  THR179      0.1784
    112  OG1        7.7320   10.0090  160.2930 O.3   179  THR179     -0.2211
    113  CG2        7.9070    7.8450  161.2940 C.3   179  THR179      0.0376
    114  N          9.9140   11.3760  163.0720 N.am  180  LYS180     -0.1979
    115  CA        10.6810   12.6190  163.1700 C.3   180  LYS180      0.1596
    116  C         10.1000   13.5690  164.2140 C.2   180  LYS180      0.2287
    117  O         10.0290   14.7810  163.9990 O.2   180  LYS180     -0.2864
    118  CB        10.7800   13.3200  161.8120 C.3   180  LYS180      0.0298
    119  CG        11.0390   12.3990  160.6340 C.3   180  LYS180      0.0038
    120  CD        11.4160   13.2050  159.4000 C.3   180  LYS180      0.0206
    121  CE        11.4130   12.3480  158.1490 C.3   180  LYS180      0.1093
    122  NZ        11.4820   13.1850  156.9220 N.3   180  LYS180     -0.1314
    123  N         11.3410   14.4880  166.9250 N.3   182  ASP182     -0.1225
    124  CA        12.3870   15.4160  167.3320 C.3   182  ASP182      0.1805
    125  C         12.2980   16.7440  166.5920 C.2   182  ASP182      0.2597
    126  O         12.8210   17.7520  167.0790 O.2   182  ASP182     -0.2718
    127  CB        13.7620   14.7860  167.1030 C.3   182  ASP182      0.1424
    128  CG        13.9750   14.3640  165.6600 C.2   182  ASP182      0.3668
    129  OD1       13.2940   13.4170  165.2100 O.co2 182  ASP182     -0.2456
    130  OD2       14.8130   14.9860  164.9730 O.co2 182  ASP182     -0.2456
    131  N         11.6490   16.7640  165.4270 N.am  183  GLU183     -0.1979
    132  CA        11.3800   17.9830  164.6760 C.3   183  GLU183      0.1602
    133  C          9.8840   18.1830  164.4650 C.2   183  GLU183      0.2287
    134  O          9.4640   18.7640  163.4610 O.2   183  GLU183     -0.2864
    135  CB        12.1010   17.9510  163.3280 C.3   183  GLU183      0.0415
    136  CG        13.6210   17.9540  163.4070 C.3   183  GLU183      0.1163
    137  CD        14.1930   19.2760  163.8820 C.2   183  GLU183      0.3649
    138  OE1       13.4400   20.2730  163.9430 O.co2 183  GLU183     -0.2457
    139  OE2       15.4030   19.3180  164.1880 O.co2 183  GLU183     -0.2457
    140  N         10.9780    9.0280  167.1410 N.3   208  SER208     -0.1202
    141  CA        12.0640    9.6370  166.3810 C.3   208  SER208      0.2020
    142  C         13.1200    8.5570  166.1900 C.2   208  SER208      0.2619
    143  O         13.7410    8.1180  167.1620 O.2   208  SER208     -0.2717
    144  CB        12.6440   10.8580  167.0960 C.3   208  SER208      0.2103
    145  OG        13.7740   11.3640  166.4040 O.3   208  SER208     -0.2182
    146  N         13.3240    8.1320  164.9420 N.am  209  ALA209     -0.1965
    147  CA        14.3940    7.1820  164.6560 C.3   209  ALA209      0.1728
    148  C         15.7570    7.8160  164.8890 C.2   209  ALA209      0.2616
    149  O         16.6880    7.1520  165.3580 O.2   209  ALA209     -0.2715
    150  CB        14.2730    6.6670  163.2220 C.3   209  ALA209      0.0334
    151  N         15.8840    9.1030  164.5730 N.am  210  ARG210     -0.1977
    152  CA        17.1650    9.7900  164.6890 C.3   210  ARG210      0.1597
    153  C         17.6100    9.8610  166.1430 C.2   210  ARG210      0.2287
    154  O         18.7470    9.5030  166.4750 O.2   210  ARG210     -0.2864
    155  CB        17.0730   11.1810  164.0690 C.3   210  ARG210      0.0334
    156  CG        18.4190   11.8290  163.8790 C.3   210  ARG210      0.0492
    157  CD        18.2870   13.2600  163.4270 C.3   210  ARG210      0.2205
    158  NE        19.5480   13.7310  162.8710 N.pl3 210  ARG210     -0.0865
    159  CZ        19.6640   14.7420  162.0200 C.cat 210  ARG210      0.5346
    160  NH1       18.5860   15.3960  161.6070 N.pl3 210  ARG210      0.1354
    161  NH2       20.8620   15.0930  161.5790 N.pl3 210  ARG210      0.1354
@<TRIPOS>BOND
     1    88    87    2
     2    87    86    1
     3    86    89    1
     4    86    85    1
     5     7     8    1
     6     4     3    2
     7    89    90    1
     8   103   102    2
     9    15    14    1
    10     3     2    1
    11    14    13    1
    12   102   101    1
    13     8    11    1
    14     8     9    1
    15    12    11    1
    16    12    13    1
    17     9    10    2
    18     2     5    1
    19     2     1    1
    20     5     6    1
    21   106   104    1
    22   105   104    1
    23   101   104    1
    24   101   100    1
    25    16    17    1
    26    77    78    2
    27    77    76    1
    28    17    18    1
    29    17    20    1
    30    74    72   ar
    31    73    72   ar
    32    18    22   am
    33    18    19    2
    34    22    23    1
    35    94    93    2
    36    72    71    1
    37    20    21    1
    38    23    24    1
    39    76    75    1
    40    76    79    1
    41    46    45    1
    42    45    44    1
    43    93    92    1
    44    99    97   ar
    45    75    69   am
    46    79    80    1
    47    70    69    2
    48    69    68    1
    49    97    96    1
    50    97    98   ar
    51    71    68    1
    52    96    95    1
    53    52    51    1
    54    24    26   am
    55    24    25    2
    56    44    43    1
    57    26    27    1
    58    32    30    1
    59    81    80   ar
    60    81    83   ar
    61    68    67    1
    62    92    95    1
    63    92    91    1
    64    80    82   ar
    65    51    48    1
    66    31    30    1
    67    31    33    1
    68    43    42    1
    69    83    84   ar
    70    30    27    1
    71    27    28    1
    72    42    39    1
    73    67    61   am
    74    82    84   ar
    75    47    48    1
    76    47    40   am
    77    48    49    1
    78    62    61    2
    79    34    28   am
    80    34    35    1
    81    61    60    1
    82    28    29    2
    83    38    39    1
    84    38    36   am
    85   122   121    1
    86    39    40    1
    87    40    41    2
    88    49    53   am
    89    49    50    2
    90    35    36    1
    91    36    37    2
    92    53    54    1
    93    60    59    1
    94    60    63    1
    95   121   120    1
    96    58    57    1
    97    63    64    1
    98    54    57    1
    99    54    55    1
   100   120   119    1
   101    64    66    1
   102    64    65    1
   103   112   111    1
   104    55    56    2
   105   119   118    1
   106   113   111    1
   107   111   108    1
   108   161   159    1
   109   160   159    1
   110   118   115    1
   111   159   158    2
   112   110   109    2
   113   108   109    1
   114   108   107    1
   115   109   114   am
   116   158   157    1
   117   114   115    1
   118   115   116    1
   119   150   147    1
   120   135   136    1
   121   135   132    1
   122   136   137    1
   123   157   156    1
   124   134   133    2
   125   156   155    1
   126   137   138   ar
   127   137   139   ar
   128   117   116    2
   129   155   152    1
   130   133   132    1
   131   151   152    1
   132   151   148   am
   133   147   148    1
   134   147   146    1
   135   132   131    1
   136   152   153    1
   137   148   149    2
   138   146   142   am
   139   130   128   ar
   140   129   128   ar
   141   131   125   am
   142   128   127    1
   143   153   154    2
   144   142   141    1
   145   142   143    2
   146   141   144    1
   147   141   140    1
   148   145   144    1
   149   125   126    2
   150   125   124    1
   151   123   124    1
   152   127   124    1
