@<TRIPOS>MOLECULE
tmp/6d4gB00.pdb
 171 160 0 0 0
SMALL
GASTEIGER

@<TRIPOS>ATOM
      1  N        -13.4740   -3.5230  126.8320 N.3     4  LEU4       -0.1231
      2  CA       -13.7580   -3.5040  128.2620 C.3     4  LEU4        0.1693
      3  C        -12.7660   -2.6080  128.9920 C.2     4  LEU4        0.2593
      4  O        -11.5520   -2.8150  128.9120 O.2     4  LEU4       -0.2718
      5  CB       -13.7040   -4.9240  128.8200 C.3     4  LEU4        0.0284
      6  CG       -13.9100   -5.0860  130.3270 C.3     4  LEU4        0.0019
      7  CD1      -15.3090   -4.6520  130.7240 C.3     4  LEU4        0.0001
      8  CD2      -13.6470   -6.5220  130.7550 C.3     4  LEU4        0.0001
      9  N        -13.2890   -1.6060  129.6990 N.am    5  SER5       -0.1938
     10  CA       -12.4620   -0.6580  130.4300 C.3     5  SER5        0.2055
     11  C        -13.2250   -0.1770  131.6560 C.2     5  SER5        0.2643
     12  O        -14.4580   -0.1920  131.6820 O.2     5  SER5       -0.2714
     13  CB       -12.0640    0.5340  129.5510 C.3     5  SER5        0.2130
     14  OG       -11.4560    0.1000  128.3470 O.3     5  SER5       -0.2179
     15  N        -12.4830    0.2460  132.6670 N.am    6  GLY6       -0.1954
     16  CA       -13.0800    0.7550  133.8840 C.3     6  GLY6        0.1869
     17  C        -12.2250    0.4050  135.0860 C.2     6  GLY6        0.2309
     18  O        -11.0240    0.1840  134.9650 O.2     6  GLY6       -0.2863
     19  N        -12.9370   -4.4110  135.0570 N.3    11  LYS11      -0.1245
     20  CA       -11.9480   -5.1660  134.3010 C.3    11  LYS11       0.1561
     21  C        -11.1480   -6.1500  135.1470 C.2    11  LYS11       0.2260
     22  O        -10.3720   -6.9320  134.5880 O.2    11  LYS11      -0.2867
     23  CB       -10.9830   -4.2120  133.5800 C.3    11  LYS11       0.0271
     24  CG       -10.1480   -3.3300  134.4910 C.3    11  LYS11       0.0035
     25  CD        -9.2360   -2.4240  133.6740 C.3    11  LYS11       0.0206
     26  CE        -8.3380   -1.5790  134.5610 C.3    11  LYS11       0.1093
     27  NZ        -7.4840   -0.6600  133.7620 N.3    11  LYS11      -0.1314
     28  N         -6.8910   -6.1150  135.5550 N.3    14  CYS14      -0.1221
     29  CA        -6.1230   -6.3390  134.3400 C.3    14  CYS14       0.1808
     30  C         -6.9310   -5.8510  133.1460 C.2    14  CYS14       0.2602
     31  O         -8.1570   -5.9870  133.1220 O.2    14  CYS14      -0.2717
     32  CB        -5.7600   -7.8200  134.1740 C.3    14  CYS14       0.0970
     33  SG        -4.3160   -8.1190  133.1270 S.3    14  CYS14      -0.0800
     34  N         -6.2330   -5.2790  132.1640 N.am   15  GLY15      -0.1942
     35  CA        -6.8810   -4.8050  130.9610 C.3    15  GLY15       0.2014
     36  C         -7.0280   -5.8880  129.9130 C.2    15  GLY15       0.2639
     37  O         -6.5160   -6.9990  130.0440 O.2    15  GLY15      -0.2714
     38  N         -7.7460   -5.5490  128.8420 N.am   16  ILE16      -0.1963
     39  CA        -8.0150   -6.5330  127.8000 C.3    16  ILE16       0.1727
     40  C         -6.9670   -6.5250  126.6910 C.2    16  ILE16       0.2617
     41  O         -6.8490   -7.5190  125.9600 O.2    16  ILE16      -0.2715
     42  CB        -9.4210   -6.3290  127.2060 C.3    16  ILE16       0.0290
     43  CG1       -9.5190   -4.9860  126.4800 C.3    16  ILE16       0.0022
     44  CG2      -10.4760   -6.4310  128.3000 C.3    16  ILE16       0.0023
     45  CD1       -9.6350   -5.1190  124.9820 C.3    16  ILE16       0.0001
     46  N         -6.2080   -5.4410  126.5390 N.am   17  GLY17      -0.1940
     47  CA        -5.1210   -5.4260  125.5780 C.3    17  GLY17       0.2014
     48  C         -5.1870   -4.3290  124.5340 C.2    17  GLY17       0.2639
     49  O         -4.5410   -4.4330  123.4870 O.2    17  GLY17      -0.2714
     50  N         -5.9540   -3.2710  124.8030 N.am   18  LYS18      -0.1963
     51  CA        -6.0650   -2.1740  123.8450 C.3    18  LYS18       0.1728
     52  C         -4.7280   -1.4660  123.6630 C.2    18  LYS18       0.2617
     53  O         -4.2810   -1.2340  122.5320 O.2    18  LYS18      -0.2715
     54  CB        -7.1330   -1.1810  124.3050 C.3    18  LYS18       0.0311
     55  CG        -8.5380   -1.7500  124.3880 C.3    18  LYS18       0.0038
     56  CD        -9.5070   -0.7290  124.9680 C.3    18  LYS18       0.0206
     57  CE        -9.0410   -0.2330  126.3320 C.3    18  LYS18       0.1093
     58  NZ        -9.0730   -1.2950  127.3760 N.3    18  LYS18      -0.1314
     59  N         -4.0750   -1.1140  124.7730 N.am   19  SER19      -0.1936
     60  CA        -2.8420   -0.3390  124.7000 C.3    19  SER19       0.2055
     61  C         -1.7310   -1.1240  124.0170 C.2    19  SER19       0.2643
     62  O         -1.0110   -0.5810  123.1710 O.2    19  SER19      -0.2714
     63  CB        -2.4090    0.0920  126.1010 C.3    19  SER19       0.2130
     64  OG        -3.4180    0.8660  126.7280 O.3    19  SER19      -0.2179
     65  N         -1.5710   -2.4010  124.3720 N.am   20  CYS20      -0.1967
     66  CA        -0.5290   -3.2110  123.7490 C.3    20  CYS20       0.1712
     67  C         -0.7980   -3.4040  122.2620 C.2    20  CYS20       0.2296
     68  O          0.1350   -3.3940  121.4510 O.2    20  CYS20      -0.2864
     69  CB        -0.4180   -4.5590  124.4610 C.3    20  CYS20       0.0983
     70  SG         0.0180   -4.4300  126.2090 S.3    20  CYS20      -0.0798
     71  N          1.3740   -0.3300  129.9660 N.3    28  HIS28      -0.1241
     72  CA         0.6470    0.9340  129.9580 C.3    28  HIS28       0.1621
     73  C         -0.4810    0.9190  130.9820 C.2    28  HIS28       0.2264
     74  O         -1.6020    0.5080  130.6790 O.2    28  HIS28      -0.2867
     75  CB         0.0890    1.2220  128.5640 C.3    28  HIS28       0.0745
     76  CG         1.1170    1.1580  127.4780 C.ar   28  HIS28       0.0817
     77  ND1        2.0890    2.1220  127.3150 N.ar   28  HIS28      -0.2268
     78  CD2        1.3250    0.2450  126.5000 C.ar   28  HIS28       0.1154
     79  CE1        2.8510    1.8050  126.2840 C.ar   28  HIS28       0.1986
     80  NE2        2.4090    0.6710  125.7720 N.ar   28  HIS28      -0.2212
     81  N         -3.4140    2.2000  133.4950 N.3    30  SER30      -0.1217
     82  CA        -4.4910    3.1800  133.4660 C.3    30  SER30       0.1889
     83  C         -4.7490    3.7990  134.8320 C.2    30  SER30       0.2288
     84  O         -5.7290    4.5320  134.9950 O.2    30  SER30      -0.2866
     85  CB        -5.7730    2.5360  132.9350 C.3    30  SER30       0.2089
     86  OG        -5.5320    1.8440  131.7230 O.3    30  SER30      -0.2183
     87  N         -7.0680    5.0020  121.3990 N.3    52  GLU52      -0.1245
     88  CA        -7.5360    4.0100  122.3580 C.3    52  GLU52       0.1567
     89  C         -8.4920    4.6650  123.3430 C.2    52  GLU52       0.2260
     90  O         -8.1510    5.6740  123.9680 O.2    52  GLU52      -0.2867
     91  CB        -6.3670    3.3750  123.1150 C.3    52  GLU52       0.0388
     92  CG        -6.8030    2.5020  124.2880 C.3    52  GLU52       0.1160
     93  CD        -5.6460    2.0860  125.1760 C.2    52  GLU52       0.3649
     94  OE1       -4.4950    2.4540  124.8630 O.co2  52  GLU52      -0.2457
     95  OE2       -5.8880    1.3940  126.1890 O.co2  52  GLU52      -0.2457
     96  N        -10.2990    4.1680  126.8460 N.3    54  THR54      -0.1218
     97  CA       -10.1860    3.3990  128.0800 C.3    54  THR54       0.1862
     98  C        -10.8100    4.2260  129.2000 C.2    54  THR54       0.2287
     99  O        -11.5790    5.1630  128.9600 O.2    54  THR54      -0.2866
    100  CB        -8.7200    3.0220  128.3500 C.3    54  THR54       0.1770
    101  OG1       -8.6450    2.1700  129.5000 O.3    54  THR54      -0.2211
    102  CG2       -7.8750    4.2710  128.5870 C.3    54  THR54       0.0375
    103  N         -8.0130  -14.6420  126.9190 N.3   111  SER111     -0.1217
    104  CA        -6.8150  -15.2870  127.4350 C.3   111  SER111      0.1889
    105  C         -7.1150  -16.0600  128.7180 C.2   111  SER111      0.2288
    106  O         -8.2560  -16.1520  129.1780 O.2   111  SER111     -0.2866
    107  CB        -5.7160  -14.2550  127.6760 C.3   111  SER111      0.2089
    108  OG        -6.0630  -13.3750  128.7310 O.3   111  SER111     -0.2183
    109  N         -6.7780  -14.2260  133.9630 N.3   114  MET114     -0.1245
    110  CA        -7.0570  -12.8150  134.1930 C.3   114  MET114      0.1570
    111  C         -7.9070  -12.5700  135.4320 C.2   114  MET114      0.2261
    112  O         -8.0120  -11.4200  135.8720 O.2   114  MET114     -0.2867
    113  CB        -7.7520  -12.2050  132.9690 C.3   114  MET114      0.0387
    114  CG        -6.9320  -12.2760  131.6920 C.3   114  MET114      0.0595
    115  SD        -5.3480  -11.4240  131.8290 S.3   114  MET114     -0.1393
    116  CE        -4.2070  -12.7890  131.6180 C.3   114  MET114      0.0692
    117  N         -7.9130  -10.6690  121.1860 N.3   144  THR144     -0.1203
    118  CA        -6.5760  -10.3470  121.6590 C.3   144  THR144      0.1994
    119  C         -6.0360  -11.4630  122.5460 C.2   144  THR144      0.2617
    120  O         -6.7710  -12.3450  123.0010 O.2   144  THR144     -0.2717
    121  CB        -6.5810   -9.0180  122.4240 C.3   144  THR144      0.1784
    122  OG1       -7.4600   -9.1190  123.5510 O.3   144  THR144     -0.2211
    123  CG2       -7.0560   -7.8880  121.5210 C.3   144  THR144      0.0376
    124  N         -4.7230  -11.4030  122.7860 N.am  145  LYS145     -0.1979
    125  CA        -4.0180  -12.3610  123.6410 C.3   145  LYS145      0.1596
    126  C         -4.2540  -13.7970  123.1800 C.2   145  LYS145      0.2287
    127  O         -4.4340  -14.7090  123.9910 O.2   145  LYS145     -0.2864
    128  CB        -4.4200  -12.1950  125.1080 C.3   145  LYS145      0.0298
    129  CG        -4.3290  -10.7750  125.6380 C.3   145  LYS145      0.0038
    130  CD        -4.6460  -10.7320  127.1240 C.3   145  LYS145      0.0206
    131  CE        -4.7040   -9.3070  127.6420 C.3   145  LYS145      0.1093
    132  NZ        -5.0790   -9.2540  129.0820 N.3   145  LYS145     -0.1314
    133  N         -2.2340  -15.8580  121.9930 N.3   147  ASP147     -0.1225
    134  CA        -1.1750  -16.7830  122.3780 C.3   147  ASP147      0.1805
    135  C         -1.5380  -17.5520  123.6420 C.2   147  ASP147      0.2597
    136  O         -1.0560  -18.6730  123.8450 O.2   147  ASP147     -0.2718
    137  CB         0.1400  -16.0270  122.5700 C.3   147  ASP147      0.1424
    138  CG        -0.0060  -14.8260  123.4830 C.2   147  ASP147      0.3668
    139  OD1       -1.0230  -14.1090  123.3680 O.co2 147  ASP147     -0.2456
    140  OD2        0.8950  -14.6000  124.3170 O.co2 147  ASP147     -0.2456
    141  N         -2.3810  -16.9710  124.4970 N.am  148  GLU148     -0.1979
    142  CA        -2.8850  -17.6400  125.6910 C.3   148  GLU148      0.1602
    143  C         -4.4030  -17.7780  125.6610 C.2   148  GLU148      0.2287
    144  O         -5.0320  -17.9080  126.7150 O.2   148  GLU148     -0.2864
    145  CB        -2.4470  -16.8900  126.9520 C.3   148  GLU148      0.0415
    146  CG        -0.9460  -16.6730  127.0660 C.3   148  GLU148      0.1163
    147  CD        -0.1800  -17.9590  127.3120 C.2   148  GLU148      0.3649
    148  OE1       -0.8000  -18.9540  127.7450 O.co2 148  GLU148     -0.2457
    149  OE2        1.0460  -17.9750  127.0730 O.co2 148  GLU148     -0.2457
    150  N         -2.5870  -11.0150  118.5500 N.3   169  SER169     -0.1202
    151  CA        -1.8120  -11.1760  119.7800 C.3   169  SER169      0.2020
    152  C         -0.6250  -10.2190  119.6820 C.2   169  SER169      0.2619
    153  O          0.3440  -10.5060  118.9740 O.2   169  SER169     -0.2717
    154  CB        -1.3580  -12.6160  119.9680 C.3   169  SER169      0.2103
    155  OG        -0.5930  -12.7630  121.1520 O.3   169  SER169     -0.2182
    156  N         -0.7190   -9.0880  120.3840 N.am  170  ALA170     -0.1965
    157  CA         0.3320   -8.0800  120.3000 C.3   170  ALA170      0.1728
    158  C          1.6580   -8.6060  120.8310 C.2   170  ALA170      0.2616
    159  O          2.7220   -8.2080  120.3440 O.2   170  ALA170     -0.2715
    160  CB        -0.0870   -6.8210  121.0600 C.3   170  ALA170      0.0334
    161  N          1.6140   -9.5030  121.8200 N.am  171  ARG171     -0.1977
    162  CA         2.8450  -10.0820  122.3480 C.3   171  ARG171      0.1597
    163  C          3.5810  -10.8830  121.2820 C.2   171  ARG171      0.2287
    164  O          4.8160  -10.8680  121.2240 O.2   171  ARG171     -0.2864
    165  CB         2.5310  -10.9600  123.5600 C.3   171  ARG171      0.0334
    166  CG         3.7240  -11.7320  124.0960 C.3   171  ARG171      0.0492
    167  CD         3.3210  -12.6580  125.2300 C.3   171  ARG171      0.2205
    168  NE         4.4070  -13.5550  125.6150 N.pl3 171  ARG171     -0.0865
    169  CZ         4.2990  -14.5060  126.5370 C.cat 171  ARG171      0.5346
    170  NH1        3.1500  -14.6890  127.1740 N.pl3 171  ARG171      0.1354
    171  NH2        5.3390  -15.2760  126.8230 N.pl3 171  ARG171      0.1354
@<TRIPOS>BOND
     1   150   151    1
     2   153   152    2
     3   152   151    1
     4   152   156   am
     5   151   154    1
     6   154   155    1
     7   157   156    1
     8   157   158    1
     9   157   160    1
    10   159   158    2
    11   158   161   am
    12   117   118    1
    13   164   163    2
    14   163   162    1
    15    87    88    1
    16    68    67    2
    17   123   121    1
    18   118   121    1
    19   118   119    1
    20   161   162    1
    21   133   134    1
    22    67    66    1
    23   162   165    1
    24    88    91    1
    25    88    89    1
    26   134   137    1
    27   134   135    1
    28   121   122    1
    29    53    52    2
    30   119   124   am
    31   119   120    2
    32   137   138    1
    33   124   125    1
    34    91    92    1
    35    62    61    2
    36   126   125    1
    37   126   127    2
    38    89    90    2
    39   139   138   ar
    40   138   140   ar
    41    49    48    2
    42   165   166    1
    43   125   128    1
    44   135   136    2
    45   135   141   am
    46    52    51    1
    47    52    59   am
    48    66    65    1
    49    66    69    1
    50    51    54    1
    51    51    50    1
    52    61    65   am
    53    61    60    1
    54   166   167    1
    55    92    93    1
    56    54    55    1
    57    55    56    1
    58    69    70    1
    59   141   142    1
    60    48    50   am
    61    48    47    1
    62    60    59    1
    63    60    63    1
    64    94    93   ar
    65    56    57    1
    66    45    43    1
    67   128   129    1
    68    93    95   ar
    69   167   168    1
    70    47    46    1
    71   168   169    2
    72   129   130    1
    73   143   142    1
    74   143   144    2
    75   142   145    1
    76    80    79   ar
    77    80    78   ar
    78    41    40    2
    79    63    64    1
    80    79    77   ar
    81    57    58    1
    82    43    42    1
    83    78    76   ar
    84   169   171    1
    85   169   170    1
    86    46    40   am
    87    40    39    1
    88     1     2    1
    89    96    97    1
    90   103   104    1
    91   145   146    1
    92   146   147    1
    93   149   147   ar
    94   130   131    1
    95    42    39    1
    96    42    44    1
    97   147   148   ar
    98    77    76   ar
    99   104   107    1
   100   104   105    1
   101    76    75    1
   102   131   132    1
   103   107   108    1
   104    39    38    1
   105    97   100    1
   106    97    98    1
   107     2     5    1
   108     2     3    1
   109    14    13    1
   110   100   102    1
   111   100   101    1
   112    75    72    1
   113   105   106    2
   114     5     6    1
   115    38    36   am
   116     4     3    2
   117    99    98    2
   118     3     9   am
   119    13    10    1
   120     9    10    1
   121    36    37    2
   122    36    35    1
   123    72    71    1
   124    72    73    1
   125     6     7    1
   126     6     8    1
   127    10    11    1
   128    74    73    2
   129    35    34    1
   130   116   115    1
   131    11    12    2
   132    11    15   am
   133   114   115    1
   134   114   113    1
   135    86    85    1
   136    34    30   am
   137    15    16    1
   138    85    82    1
   139   113   110    1
   140    31    30    2
   141    33    32    1
   142    30    29    1
   143    82    81    1
   144    82    83    1
   145    23    20    1
   146    23    24    1
   147    25    24    1
   148    25    26    1
   149    27    26    1
   150    16    17    1
   151   109   110    1
   152    32    29    1
   153   110   111    1
   154    20    19    1
   155    20    21    1
   156    29    28    1
   157    22    21    2
   158    83    84    2
   159    18    17    2
   160   111   112    2
