@<TRIPOS>MOLECULE
tmp/6d50B00.pdb
 137 130 0 0 0
SMALL
GASTEIGER

@<TRIPOS>ATOM
      1  N        -13.0480  -21.8410  -60.4260 N.3   135  ASP135     -0.1239
      2  CA       -12.9050  -21.9550  -58.9740 C.3   135  ASP135      0.1674
      3  C        -11.4310  -21.9980  -58.5780 C.2   135  ASP135      0.2266
      4  O        -10.9430  -22.9370  -57.9550 O.2   135  ASP135     -0.2867
      5  CB       -13.6620  -23.1720  -58.4580 C.3   135  ASP135      0.1410
      6  CG       -13.5130  -23.3720  -56.9510 C.2   135  ASP135      0.3668
      7  OD1      -13.6870  -22.3980  -56.1820 O.co2 135  ASP135     -0.2456
      8  OD2      -13.2440  -24.5260  -56.5320 O.co2 135  ASP135     -0.2456
      9  N         -6.3450  -26.2130  -64.1910 N.3   332  HIS332     -0.1241
     10  CA        -7.1510  -26.1810  -65.4120 C.3   332  HIS332      0.1621
     11  C         -6.3560  -25.4790  -66.5130 C.2   332  HIS332      0.2264
     12  O         -6.9200  -25.0660  -67.5350 O.2   332  HIS332     -0.2867
     13  CB        -8.4890  -25.4480  -65.1780 C.3   332  HIS332      0.0745
     14  CG        -9.4490  -26.1820  -64.2910 C.ar  332  HIS332      0.0817
     15  ND1       -9.9660  -27.4230  -64.6090 N.ar  332  HIS332     -0.2268
     16  CD2       -9.9880  -25.8460  -63.0940 C.ar  332  HIS332      0.1154
     17  CE1      -10.7760  -27.8190  -63.6450 C.ar  332  HIS332      0.1986
     18  NE2      -10.8070  -26.8810  -62.7120 N.ar  332  HIS332     -0.2212
     19  N        -13.6360  -22.1920  -68.9520 N.3   357  ILE357     -0.1245
     20  CA       -14.4050  -22.7410  -67.8420 C.3   357  ILE357      0.1561
     21  C        -15.7330  -22.0130  -67.6760 C.2   357  ILE357      0.2260
     22  O        -15.8700  -20.8350  -68.0250 O.2   357  ILE357     -0.2867
     23  CB       -13.5930  -22.6390  -66.5350 C.3   357  ILE357      0.0252
     24  CG1      -12.3150  -23.4620  -66.6520 C.3   357  ILE357      0.0019
     25  CG2      -14.4480  -22.9950  -65.3140 C.3   357  ILE357      0.0019
     26  CD1      -11.2550  -23.0640  -65.6570 C.3   357  ILE357      0.0001
     27  N        -13.6950  -26.9940  -69.3790 N.3   394  ASN394     -0.1225
     28  CA       -14.0530  -27.6200  -68.1100 C.3   394  ASN394      0.1785
     29  C        -15.3950  -27.0560  -67.6520 C.2   394  ASN394      0.2597
     30  O        -15.5150  -25.8410  -67.4390 O.2   394  ASN394     -0.2718
     31  CB       -12.9610  -27.3670  -67.0680 C.3   394  ASN394      0.1169
     32  CG       -13.3060  -27.9250  -65.7040 C.2   394  ASN394      0.2627
     33  OD1      -13.1230  -29.1220  -65.4490 O.2   394  ASN394     -0.2716
     34  ND2      -13.7660  -27.0490  -64.7970 N.am  394  ASN394     -0.0877
     35  N        -16.3950  -27.9330  -67.5180 N.am  395  GLU395     -0.1979
     36  CA       -17.7380  -27.5620  -67.0740 C.3   395  GLU395      0.1602
     37  C        -18.2070  -26.2750  -67.7520 C.2   395  GLU395      0.2287
     38  O        -18.5350  -25.2760  -67.1100 O.2   395  GLU395     -0.2864
     39  CB       -17.7920  -27.3880  -65.5680 C.3   395  GLU395      0.0415
     40  CG       -17.2050  -28.5330  -64.7740 C.3   395  GLU395      0.1163
     41  CD       -17.3160  -28.2690  -63.3010 C.2   395  GLU395      0.3649
     42  OE1      -17.0990  -27.1080  -62.8860 O.co2 395  GLU395     -0.2457
     43  OE2      -17.6570  -29.2060  -62.5590 O.co2 395  GLU395     -0.2457
     44  N        -16.7540  -34.7580  -63.8240 N.3   462  ASN462     -0.1240
     45  CA       -16.4260  -34.2560  -62.4930 C.3   462  ASN462      0.1653
     46  C        -17.5690  -34.6430  -61.5670 C.2   462  ASN462      0.2266
     47  O        -18.6570  -34.0710  -61.6550 O.2   462  ASN462     -0.2867
     48  CB       -16.2490  -32.7350  -62.5110 C.3   462  ASN462      0.1155
     49  CG       -15.1250  -32.2730  -63.4390 C.2   462  ASN462      0.2627
     50  OD1      -14.3170  -33.0770  -63.9090 O.2   462  ASN462     -0.2716
     51  ND2      -15.0630  -30.9620  -63.6880 N.am  462  ASN462     -0.0877
     52  N        -19.2950  -35.6580  -57.7560 N.3   464  TYR464     -0.1241
     53  CA       -19.1900  -35.3740  -56.3310 C.3   464  TYR464      0.1605
     54  C        -20.4180  -35.8320  -55.5480 C.2   464  TYR464      0.2264
     55  O        -20.7370  -35.2500  -54.5020 O.2   464  TYR464     -0.2867
     56  CB       -18.9720  -33.8870  -56.0890 C.3   464  TYR464      0.0534
     57  CG       -17.6650  -33.3340  -56.5860 C.ar  464  TYR464     -0.0201
     58  CD1      -17.5660  -32.7450  -57.8570 C.ar  464  TYR464     -0.0009
     59  CD2      -16.5210  -33.3610  -55.7750 C.ar  464  TYR464     -0.0009
     60  CE1      -16.3460  -32.2050  -58.3120 C.ar  464  TYR464      0.0417
     61  CE2      -15.3030  -32.8160  -56.2150 C.ar  464  TYR464      0.0417
     62  CZ       -15.2270  -32.2410  -57.4830 C.ar  464  TYR464      0.1957
     63  OH       -14.0330  -31.7070  -57.9200 O.3   464  TYR464     -0.2866
     64  N        -21.4270  -32.7690  -52.5600 N.3   468  TYR468     -0.1241
     65  CA       -22.4030  -31.7360  -52.8990 C.3   468  TYR468      0.1605
     66  C        -23.7970  -32.3300  -53.1310 C.2   468  TYR468      0.2264
     67  O        -24.4130  -32.1070  -54.1730 O.2   468  TYR468     -0.2867
     68  CB       -21.9480  -30.9830  -54.1500 C.3   468  TYR468      0.0534
     69  CG       -20.6470  -30.2020  -54.1010 C.ar  468  TYR468     -0.0201
     70  CD1      -20.4360  -29.1950  -53.1570 C.ar  468  TYR468     -0.0009
     71  CD2      -19.6610  -30.4080  -55.0710 C.ar  468  TYR468     -0.0009
     72  CE1      -19.2630  -28.4550  -53.1530 C.ar  468  TYR468      0.0417
     73  CE2      -18.4940  -29.6670  -55.0830 C.ar  468  TYR468      0.0417
     74  CZ       -18.3030  -28.7010  -54.1260 C.ar  468  TYR468      0.1957
     75  OH       -17.1450  -27.9870  -54.1430 O.3   468  TYR468     -0.2866
     76  N        -12.7750  -35.4350  -62.1390 N.3   495  GLU495     -0.1245
     77  CA       -12.7220  -34.8650  -60.8020 C.3   495  GLU495      0.1567
     78  C        -13.6040  -35.6700  -59.8700 C.2   495  GLU495      0.2260
     79  O        -14.7270  -36.0340  -60.2240 O.2   495  GLU495     -0.2867
     80  CB       -13.1790  -33.4090  -60.7700 C.3   495  GLU495      0.0388
     81  CG       -12.4260  -32.5200  -61.7190 C.3   495  GLU495      0.1160
     82  CD       -12.7090  -31.0500  -61.4820 C.2   495  GLU495      0.3649
     83  OE1      -13.2140  -30.7020  -60.3840 O.co2 495  GLU495     -0.2457
     84  OE2      -12.4040  -30.2500  -62.3960 O.co2 495  GLU495     -0.2457
     85  N         -9.4250  -34.8790  -57.2260 N.3   542  TRP542     -0.1241
     86  CA        -9.4760  -33.4360  -57.0380 C.3   542  TRP542      0.1605
     87  C         -9.4300  -33.1250  -55.5440 C.2   542  TRP542      0.2264
     88  O        -10.4130  -33.3480  -54.8290 O.2   542  TRP542     -0.2867
     89  CB       -10.7250  -32.8500  -57.6720 C.3   542  TRP542      0.0550
     90  CG       -10.6600  -31.3670  -57.7030 C.ar  542  TRP542      0.0003
     91  CD1      -11.1380  -30.5050  -56.7570 C.ar  542  TRP542      0.0946
     92  CD2      -10.0380  -30.5550  -58.7140 C.ar  542  TRP542      0.0152
     93  NE1      -10.8630  -29.2020  -57.1240 N.ar  542  TRP542     -0.2442
     94  CE2      -10.1950  -29.2050  -58.3210 C.ar  542  TRP542      0.0810
     95  CE3       -9.3680  -30.8400  -59.9100 C.ar  542  TRP542      0.0012
     96  CZ2       -9.7110  -28.1430  -59.0820 C.ar  542  TRP542      0.0191
     97  CZ3       -8.8910  -29.7860  -60.6720 C.ar  542  TRP542      0.0001
     98  CH2       -9.0670  -28.4490  -60.2530 C.ar  542  TRP542      0.0015
     99  N         -5.7020  -25.7440  -52.2580 N.3   547  PHE547     -0.1241
    100  CA        -5.2550  -24.6800  -53.1510 C.3   547  PHE547      0.1605
    101  C         -6.1210  -23.4310  -53.0400 C.2   547  PHE547      0.2264
    102  O         -7.2620  -23.4670  -52.5580 O.2   547  PHE547     -0.2867
    103  CB        -5.2550  -25.1360  -54.6030 C.3   547  PHE547      0.0534
    104  CG        -6.6230  -25.4130  -55.1590 C.ar  547  PHE547     -0.0203
    105  CD1       -7.3220  -24.4340  -55.8430 C.ar  547  PHE547     -0.0042
    106  CD2       -7.2030  -26.6740  -55.0170 C.ar  547  PHE547     -0.0042
    107  CE1       -8.5990  -24.7060  -56.3820 C.ar  547  PHE547     -0.0003
    108  CE2       -8.4770  -26.9520  -55.5550 C.ar  547  PHE547     -0.0003
    109  CZ        -9.1780  -25.9730  -56.2340 C.ar  547  PHE547     -0.0000
    110  N        -13.9290  -18.8790  -52.0590 N.3   552  ARG552     -0.1245
    111  CA       -14.4710  -19.9320  -51.2260 C.3   552  ARG552      0.1563
    112  C        -14.5260  -19.4720  -49.7790 C.2   552  ARG552      0.2260
    113  O        -13.6490  -18.7450  -49.3060 O.2   552  ARG552     -0.2867
    114  CB       -13.6500  -21.2200  -51.3730 C.3   552  ARG552      0.0307
    115  CG       -13.7700  -21.7520  -52.7880 C.3   552  ARG552      0.0489
    116  CD       -13.5290  -23.2180  -52.9400 C.3   552  ARG552      0.2205
    117  NE       -14.6280  -24.0540  -52.4540 N.pl3 552  ARG552     -0.0865
    118  CZ       -15.4280  -24.8070  -53.2190 C.cat 552  ARG552      0.5346
    119  NH1      -15.3000  -24.8370  -54.5410 N.pl3 552  ARG552      0.1354
    120  NH2      -16.3710  -25.5450  -52.6500 N.pl3 552  ARG552      0.1354
    121  N         -9.6220  -24.1110  -51.1140 N.3   560  ASN560     -0.1240
    122  CA       -10.3370  -25.3300  -51.4680 C.3   560  ASN560      0.1653
    123  C         -9.5940  -26.4690  -50.7880 C.2   560  ASN560      0.2266
    124  O         -8.4420  -26.7550  -51.1360 O.2   560  ASN560     -0.2867
    125  CB       -10.3860  -25.4850  -52.9870 C.3   560  ASN560      0.1155
    126  CG       -11.2450  -26.6720  -53.4520 C.2   560  ASN560      0.2627
    127  OD1      -11.0960  -27.8040  -52.9700 O.2   560  ASN560     -0.2716
    128  ND2      -12.1350  -26.4130  -54.4200 N.am  560  ASN560     -0.0877
    129  N         -9.9450  -29.8250  -50.5000 N.3   562  LYS562     -0.1245
    130  CA       -10.0940  -31.2100  -50.9400 C.3   562  LYS562      0.1561
    131  C         -8.7520  -31.8830  -51.2360 C.2   562  LYS562      0.2260
    132  O         -8.7210  -32.9230  -51.9100 O.2   562  LYS562     -0.2867
    133  CB       -11.0010  -31.2700  -52.1770 C.3   562  LYS562      0.0271
    134  CG       -12.3480  -30.5730  -51.9860 C.3   562  LYS562      0.0035
    135  CD       -13.2880  -30.8560  -53.1440 C.3   562  LYS562      0.0206
    136  CE       -14.6720  -30.2440  -52.8980 C.3   562  LYS562      0.1093
    137  NZ       -14.6110  -28.7480  -52.8400 N.3   562  LYS562     -0.1314
@<TRIPOS>BOND
     1    27    28    1
     2    19    20    1
     3    28    29    1
     4    28    31    1
     5    22    21    2
     6    20    21    1
     7    20    23    1
     8    37    38    2
     9    37    36    1
    10    29    35   am
    11    29    30    2
    12    12    11    2
    13    35    36    1
    14    36    39    1
    15    31    32    1
    16    24    23    1
    17    24    26    1
    18    23    25    1
    19    11    10    1
    20    32    33    2
    21    32    34   am
    22    39    40    1
    23    10    13    1
    24    10     9    1
    25    13    14    1
    26    40    41    1
    27    15    14   ar
    28    15    17   ar
    29    14    16   ar
    30    50    49    2
    31    44    45    1
    32    51    49   am
    33    17    18   ar
    34    49    48    1
    35    41    42   ar
    36    41    43   ar
    37    16    18   ar
    38    48    45    1
    39    45    46    1
    40    84    82   ar
    41    76    77    1
    42    81    82    1
    43    81    80    1
    44    47    46    2
    45    82    83   ar
    46    77    80    1
    47    77    78    1
    48    97    98   ar
    49    97    95   ar
    50     1     2    1
    51    98    96   ar
    52    79    78    2
    53    95    92   ar
    54    96    94   ar
    55     2     3    1
    56     2     5    1
    57    92    94   ar
    58    92    90   ar
    59     3     4    2
    60     5     6    1
    61    94    93   ar
    62    60    58   ar
    63    60    62   ar
    64    63    62    1
    65    58    57   ar
    66    52    53    1
    67    90    89    1
    68    90    91   ar
    69    89    86    1
    70    62    61   ar
    71    85    86    1
    72    93    91   ar
    73    86    87    1
    74     6     8   ar
    75     6     7   ar
    76    57    56    1
    77    57    59   ar
    78   107   109   ar
    79   107   105   ar
    80    53    56    1
    81    53    54    1
    82   109   108   ar
    83    61    59   ar
    84   105   104   ar
    85   108   106   ar
    86    54    55    2
    87    87    88    2
    88   104   106   ar
    89   104   103    1
    90    73    71   ar
    91    73    74   ar
    92    71    69   ar
    93   103   100    1
    94   119   118    1
    95   128   126   am
    96    67    66    2
    97    68    69    1
    98    68    65    1
    99    75    74    1
   100    74    72   ar
   101    69    70   ar
   102   126   125    1
   103   126   127    2
   104   118   120    1
   105   118   117    2
   106    70    72   ar
   107   100   101    1
   108   100    99    1
   109   135   136    1
   110   135   134    1
   111    66    65    1
   112   101   102    2
   113   125   122    1
   114   116   115    1
   115   116   117    1
   116    65    64    1
   117   136   137    1
   118   115   114    1
   119   133   134    1
   120   133   130    1
   121   110   111    1
   122   132   131    2
   123   122   121    1
   124   122   123    1
   125   114   111    1
   126   131   130    1
   127   111   112    1
   128   124   123    2
   129   130   129    1
   130   112   113    2
