@<TRIPOS>MOLECULE
tmp/6d55B00.pdb
 155 147 0 0 0
SMALL
GASTEIGER

@<TRIPOS>ATOM
      1  N         26.8030   37.5070   18.1580 N.3   275  VAL275     -0.1245
      2  CA        27.6810   37.0280   19.2300 C.3   275  VAL275      0.1561
      3  C         28.4110   38.1920   19.8750 C.2   275  VAL275      0.2260
      4  O         28.5170   38.2910   21.1080 O.2   275  VAL275     -0.2867
      5  CB        28.6560   35.9760   18.6820 C.3   275  VAL275      0.0252
      6  CG1       29.7320   35.6390   19.7270 C.3   275  VAL275      0.0019
      7  CG2       27.8430   34.7050   18.2660 C.3   275  VAL275      0.0019
      8  N         28.4170   39.3610   23.8830 N.3   279  ILE279     -0.1245
      9  CA        29.5930   39.5660   24.7250 C.3   279  ILE279      0.1561
     10  C         29.6620   41.0040   25.2640 C.2   279  ILE279      0.2260
     11  O         30.1430   41.2260   26.3970 O.2   279  ILE279     -0.2867
     12  CB        30.8580   39.1560   23.9350 C.3   279  ILE279      0.0252
     13  CG1       30.8170   37.6480   23.6380 C.3   279  ILE279      0.0019
     14  CG2       32.1210   39.4660   24.8010 C.3   279  ILE279      0.0019
     15  CD1       32.0260   37.1370   22.7110 C.3   279  ILE279      0.0001
     16  N         27.7710   32.9200   29.7200 N.3   298  VAL298     -0.1245
     17  CA        28.7910   31.8500   29.6200 C.3   298  VAL298      0.1561
     18  C         28.1390   30.5150   29.2630 C.2   298  VAL298      0.2260
     19  O         28.6480   29.7890   28.3880 O.2   298  VAL298     -0.2867
     20  CB        29.5600   31.7610   30.9440 C.3   298  VAL298      0.0252
     21  CG1       30.4110   30.4660   31.0510 C.3   298  VAL298      0.0019
     22  CG2       30.4130   33.0510   31.1480 C.3   298  VAL298      0.0019
     23  N         27.3200   30.4670   25.5630 N.3   301  MET301     -0.1230
     24  CA        28.4970   30.3780   24.6800 C.3   301  MET301      0.1702
     25  C         29.1930   29.0250   24.7820 C.2   301  MET301      0.2592
     26  O         29.8940   28.6160   23.8370 O.2   301  MET301     -0.2718
     27  CB        29.5170   31.4980   25.0350 C.3   301  MET301      0.0401
     28  CG        28.9860   32.9600   24.7470 C.3   301  MET301      0.0596
     29  SD        28.2940   33.1230   23.0720 S.3   301  MET301     -0.1393
     30  CE        29.7640   32.6550   22.0530 C.3   301  MET301      0.0692
     31  N         29.0060   28.2990   25.8880 N.am  302  ASN302     -0.1974
     32  CA        29.6180   26.9790   26.0230 C.3   302  ASN302      0.1688
     33  C         28.6620   25.8550   25.6780 C.2   302  ASN302      0.2292
     34  O         29.0190   24.6730   25.8130 O.2   302  ASN302     -0.2864
     35  CB        30.1400   26.8190   27.4720 C.3   302  ASN302      0.1181
     36  CG        31.6220   26.4310   27.5300 C.2   302  ASN302      0.2629
     37  OD1       32.2980   26.3300   26.5180 O.2   302  ASN302     -0.2716
     38  ND2       32.0770   26.0830   28.7230 N.am  302  ASN302     -0.0877
     39  N         26.3320   26.3490   20.1850 N.3   306  VAL306     -0.1231
     40  CA        27.1070   27.5530   19.9290 C.3   306  VAL306      0.1692
     41  C         28.5930   27.2410   19.8920 C.2   306  VAL306      0.2592
     42  O         29.3330   27.8120   19.0820 O.2   306  VAL306     -0.2718
     43  CB        26.7990   28.6160   21.0200 C.3   306  VAL306      0.0266
     44  CG1       27.7470   29.8550   20.8370 C.3   306  VAL306      0.0020
     45  CG2       25.3110   29.0260   20.9330 C.3   306  VAL306      0.0020
     46  N         29.0430   26.3480   20.7980 N.am  307  TYR307     -0.1962
     47  CA        30.4790   26.1190   20.9740 C.3   307  TYR307      0.1771
     48  C         31.1470   25.7350   19.6530 C.2   307  TYR307      0.2619
     49  O         32.2940   26.1410   19.3640 O.2   307  TYR307     -0.2715
     50  CB        30.7050   25.0120   22.0330 C.3   307  TYR307      0.0574
     51  CG        32.1710   24.7930   22.3570 C.ar  307  TYR307     -0.0198
     52  CD1       32.9290   23.8660   21.6180 C.ar  307  TYR307     -0.0009
     53  CD2       32.7960   25.4950   23.3940 C.ar  307  TYR307     -0.0009
     54  CE1       34.2940   23.6530   21.9010 C.ar  307  TYR307      0.0417
     55  CE2       34.1650   25.3000   23.6660 C.ar  307  TYR307      0.0417
     56  CZ        34.8850   24.3590   22.9120 C.ar  307  TYR307      0.1957
     57  OH        36.2420   24.1820   23.1910 O.3   307  TYR307     -0.2866
     58  N         30.4330   24.9260   18.8620 N.am  308  ARG308     -0.1963
     59  CA        31.0140   24.3240   17.6620 C.3   308  ARG308      0.1729
     60  C         31.1050   25.2750   16.4780 C.2   308  ARG308      0.2616
     61  O         31.5530   24.8370   15.3970 O.2   308  ARG308     -0.2715
     62  CB        30.2000   23.0770   17.2750 C.3   308  ARG308      0.0348
     63  CG        28.7610   23.3140   16.9150 C.3   308  ARG308      0.0492
     64  CD        28.1240   22.0190   16.4560 C.3   308  ARG308      0.2205
     65  NE        28.8100   21.5830   15.2030 N.pl3 308  ARG308     -0.0865
     66  CZ        28.6140   22.1280   14.0140 C.cat 308  ARG308      0.5346
     67  NH1       27.7460   23.1230   13.8350 N.pl3 308  ARG308      0.1354
     68  NH2       29.3480   21.6800   12.9750 N.pl3 308  ARG308      0.1354
     69  N         30.6680   26.5230   16.5990 N.am  309  LEU309     -0.1963
     70  CA        30.6010   27.4140   15.4210 C.3   309  LEU309      0.1728
     71  C         31.9570   28.0660   15.1680 C.2   309  LEU309      0.2616
     72  O         32.1650   29.2630   15.3470 O.2   309  LEU309     -0.2715
     73  CB        29.5340   28.4860   15.6250 C.3   309  LEU309      0.0311
     74  CG        28.1260   27.8650   15.7570 C.3   309  LEU309      0.0022
     75  CD1       27.1680   29.0130   16.1680 C.3   309  LEU309      0.0001
     76  CD2       27.6070   27.2180   14.4800 C.3   309  LEU309      0.0001
     77  N         32.8850   27.2520   14.6580 N.am  310  ASP310     -0.1971
     78  CA        34.2450   27.7190   14.4500 C.3   310  ASP310      0.1709
     79  C         34.3240   28.9020   13.5010 C.2   310  ASP310      0.2293
     80  O         35.2190   29.7380   13.6710 O.2   310  ASP310     -0.2864
     81  CB        35.1100   26.5930   13.8720 C.3   310  ASP310      0.1436
     82  CG        35.3020   25.4220   14.8460 C.2   310  ASP310      0.3671
     83  OD1       35.0750   25.5960   16.0670 O.co2 310  ASP310     -0.2456
     84  OD2       35.6970   24.3370   14.3650 O.co2 310  ASP310     -0.2456
     85  N         32.2550   31.3690   13.1380 N.3   312  THR312     -0.1203
     86  CA        31.8470   32.5450   13.8840 C.3   312  THR312      0.1994
     87  C         32.9340   32.9280   14.8780 C.2   312  THR312      0.2617
     88  O         33.3130   34.1010   14.9780 O.2   312  THR312     -0.2717
     89  CB        30.5220   32.2020   14.5920 C.3   312  THR312      0.1784
     90  OG1       29.5770   31.7290   13.6050 O.3   312  THR312     -0.2211
     91  CG2       29.8860   33.4080   15.2990 C.3   312  THR312      0.0376
     92  N         33.4590   31.9160   15.5900 N.am  313  PHE313     -0.1975
     93  CA        34.5650   32.0880   16.5240 C.3   313  PHE313      0.1639
     94  C         35.7160   32.8250   15.8810 C.2   313  PHE313      0.2290
     95  O         36.2940   33.7340   16.4850 O.2   313  PHE313     -0.2864
     96  CB        34.9960   30.7040   17.0460 C.3   313  PHE313      0.0560
     97  CG        36.1820   30.7390   17.9570 C.ar  313  PHE313     -0.0200
     98  CD1       37.4560   30.6250   17.4300 C.ar  313  PHE313     -0.0042
     99  CD2       36.0140   30.8180   19.3440 C.ar  313  PHE313     -0.0042
    100  CE1       38.5720   30.6630   18.2290 C.ar  313  PHE313     -0.0003
    101  CE2       37.1260   30.8690   20.1870 C.ar  313  PHE313     -0.0003
    102  CZ        38.4310   30.7720   19.6170 C.ar  313  PHE313     -0.0000
    103  N         35.3970   36.7300   15.8780 N.3   316  ILE316     -0.1245
    104  CA        35.1970   37.5440   17.0820 C.3   316  ILE316      0.1561
    105  C         36.5350   38.1710   17.4880 C.2   316  ILE316      0.2260
    106  O         37.5410   37.4490   17.5860 O.2   316  ILE316     -0.2867
    107  CB        34.6330   36.6720   18.2140 C.3   316  ILE316      0.0252
    108  CG1       33.2320   36.1580   17.7910 C.3   316  ILE316      0.0019
    109  CG2       34.5340   37.4920   19.5090 C.3   316  ILE316      0.0019
    110  CD1       32.1850   37.2880   17.5780 C.3   316  ILE316      0.0001
    111  N         37.0470   37.8870   22.9310 N.3   321  LYS321     -0.1245
    112  CA        37.3930   36.5520   23.4260 C.3   321  LYS321      0.1561
    113  C         37.9590   36.6460   24.8210 C.2   321  LYS321      0.2260
    114  O         37.7230   35.7570   25.6560 O.2   321  LYS321     -0.2867
    115  CB        38.3930   35.8690   22.5100 C.3   321  LYS321      0.0271
    116  CG        37.7370   35.5150   21.1650 C.3   321  LYS321      0.0035
    117  CD        38.7260   34.8160   20.2260 C.3   321  LYS321      0.0206
    118  CE        37.9840   34.3820   18.9360 C.3   321  LYS321      0.1093
    119  NZ        39.0080   34.2110   17.8540 N.3   321  LYS321     -0.1314
    120  N         35.1630   37.0350   27.3620 N.3   324  LEU324     -0.1231
    121  CA        34.4500   35.7810   27.6040 C.3   324  LEU324      0.1693
    122  C         35.3280   34.8170   28.4030 C.2   324  LEU324      0.2591
    123  O         34.8350   34.1220   29.2970 O.2   324  LEU324     -0.2718
    124  CB        34.0220   35.1660   26.2480 C.3   324  LEU324      0.0284
    125  CG        33.3000   33.8040   26.3700 C.3   324  LEU324      0.0019
    126  CD1       31.9510   33.9910   27.0780 C.3   324  LEU324      0.0001
    127  CD2       33.0050   33.2940   24.9110 C.3   324  LEU324      0.0001
    128  N         36.6300   34.7910   28.1150 N.am  325  GLU325     -0.1979
    129  CA        37.5490   33.9250   28.8540 C.3   325  GLU325      0.1602
    130  C         37.5570   34.2850   30.3310 C.2   325  GLU325      0.2287
    131  O         37.4620   33.4030   31.1970 O.2   325  GLU325     -0.2864
    132  CB        38.9670   34.0830   28.2850 C.3   325  GLU325      0.0415
    133  CG        40.0700   33.4070   29.1390 C.3   325  GLU325      0.1163
    134  CD        39.9800   31.8850   29.1680 C.2   325  GLU325      0.3649
    135  OE1       39.4530   31.3070   28.2130 O.co2 325  GLU325     -0.2457
    136  OE2       40.4490   31.2690   30.1480 O.co2 325  GLU325     -0.2457
    137  N         34.3840   33.0410   31.8940 N.3   328  HIS328     -0.1241
    138  CA        34.3910   31.5940   32.1250 C.3   328  HIS328      0.1621
    139  C         35.3530   31.2100   33.2460 C.2   328  HIS328      0.2264
    140  O         35.0650   30.2550   34.0130 O.2   328  HIS328     -0.2867
    141  CB        34.7720   30.8620   30.7930 C.3   328  HIS328      0.0745
    142  CG        34.6830   29.3650   30.9200 C.ar  328  HIS328      0.0817
    143  ND1       35.7420   28.5860   31.3510 N.ar  328  HIS328     -0.2268
    144  CD2       33.6290   28.5220   30.7580 C.ar  328  HIS328      0.1154
    145  CE1       35.3470   27.3200   31.4250 C.ar  328  HIS328      0.1986
    146  NE2       34.0700   27.2510   31.0760 N.ar  328  HIS328     -0.2212
    147  N         35.7560   28.1710   36.7770 N.3   332  GLU332     -0.1245
    148  CA        36.7620   27.1040   36.8080 C.3   332  GLU332      0.1567
    149  C         37.1190   26.7280   38.2430 C.2   332  GLU332      0.2260
    150  O         36.8950   27.4840   39.1990 O.2   332  GLU332     -0.2867
    151  CB        37.9940   27.5430   36.0010 C.3   332  GLU332      0.0388
    152  CG        37.6160   27.6530   34.4840 C.3   332  GLU332      0.1160
    153  CD        38.6830   28.3060   33.5880 C.2   332  GLU332      0.3649
    154  OE1       39.8480   28.3890   34.0310 O.co2 332  GLU332     -0.2457
    155  OE2       38.3460   28.7460   32.4240 O.co2 332  GLU332     -0.2457
@<TRIPOS>BOND
     1    68    66    1
     2    85    86    1
     3    79    80    2
     4    79    78    1
     5    90    89    1
     6    67    66    1
     7    81    78    1
     8    81    82    1
     9    86    89    1
    10    86    87    1
    11    66    65    2
    12    84    82   ar
    13    78    77    1
    14    76    74    1
    15    89    91    1
    16    77    71   am
    17    82    83   ar
    18    87    88    2
    19    87    92   am
    20    71    72    2
    21    71    70    1
    22    65    64    1
    23    61    60    2
    24    70    73    1
    25    70    69    1
    26    92    93    1
    27    73    74    1
    28    74    75    1
    29   103   104    1
    30    94    95    2
    31    94    93    1
    32    64    63    1
    33    60    69   am
    34    60    59    1
    35    93    96    1
    36    63    62    1
    37    96    97    1
    38   104   105    1
    39   104   107    1
    40    62    59    1
    41    98    97   ar
    42    98   100   ar
    43   105   106    2
    44   110   108    1
    45    59    58    1
    46   108   107    1
    47   119   118    1
    48    97    99   ar
    49     1     2    1
    50   107   109    1
    51   100   102   ar
    52     7     5    1
    53     5     2    1
    54     5     6    1
    55    58    48   am
    56   118   117    1
    57    42    41    2
    58     2     3    1
    59    99   101   ar
    60    49    48    2
    61   102   101   ar
    62    48    47    1
    63     3     4    2
    64    41    40    1
    65    41    46   am
    66    40    39    1
    67    40    43    1
    68   117   116    1
    69    46    47    1
    70    44    43    1
    71    45    43    1
    72    47    50    1
    73   116   115    1
    74    52    54   ar
    75    52    51   ar
    76    54    56   ar
    77    50    51    1
    78    30    29    1
    79    51    53   ar
    80   115   112    1
    81    15    13    1
    82    56    57    1
    83    56    55   ar
    84   111   112    1
    85    29    28    1
    86    53    55   ar
    87   112   113    1
    88    13    12    1
    89    26    25    2
    90     8     9    1
    91    12     9    1
    92    12    14    1
    93    24    25    1
    94    24    27    1
    95    24    23    1
    96     9    10    1
    97    28    27    1
    98    25    31   am
    99   113   114    2
   100   127   125    1
   101    10    11    2
   102    33    34    2
   103    33    32    1
   104    31    32    1
   105    32    35    1
   106   124   125    1
   107   124   121    1
   108   125   126    1
   109    37    36    2
   110   120   121    1
   111    35    36    1
   112    36    38   am
   113   121   122    1
   114   128   122   am
   115   128   129    1
   116   135   134   ar
   117   132   129    1
   118   132   133    1
   119    19    18    2
   120   122   123    2
   121   129   130    1
   122   133   134    1
   123   134   136   ar
   124    18    17    1
   125    17    16    1
   126    17    20    1
   127   130   131    2
   128   144   142   ar
   129   144   146   ar
   130   141   142    1
   131   141   138    1
   132   142   143   ar
   133    20    21    1
   134    20    22    1
   135   146   145   ar
   136   143   145   ar
   137   137   138    1
   138   138   139    1
   139   155   153   ar
   140   139   140    2
   141   153   154   ar
   142   153   152    1
   143   152   151    1
   144   151   148    1
   145   147   148    1
   146   148   149    1
   147   149   150    2
