@<TRIPOS>MOLECULE
tmp/6d56B00.pdb
 162 153 0 0 0
SMALL
GASTEIGER

@<TRIPOS>ATOM
      1  N         26.7820   37.7850   17.9960 N.3   275  VAL275     -0.1245
      2  CA        27.6330   37.2840   19.0780 C.3   275  VAL275      0.1561
      3  C         28.3850   38.4350   19.7290 C.2   275  VAL275      0.2260
      4  O         28.4990   38.5060   20.9590 O.2   275  VAL275     -0.2867
      5  CB        28.5910   36.1990   18.5480 C.3   275  VAL275      0.0252
      6  CG1       29.6880   35.8840   19.5820 C.3   275  VAL275      0.0019
      7  CG2       27.7980   34.9310   18.1780 C.3   275  VAL275      0.0019
      8  N         28.3440   39.6240   23.7350 N.3   279  ILE279     -0.1245
      9  CA        29.5220   39.8290   24.5790 C.3   279  ILE279      0.1561
     10  C         29.5580   41.2520   25.1440 C.2   279  ILE279      0.2260
     11  O         30.0420   41.4670   26.2680 O.2   279  ILE279     -0.2867
     12  CB        30.7920   39.4690   23.7830 C.3   279  ILE279      0.0252
     13  CG1       30.7650   37.9710   23.4640 C.3   279  ILE279      0.0019
     14  CG2       32.0570   39.8070   24.5960 C.3   279  ILE279      0.0019
     15  CD1       31.8860   37.5170   22.4930 C.3   279  ILE279      0.0001
     16  N         27.7340   33.1290   29.4340 N.3   298  VAL298     -0.1245
     17  CA        28.7510   32.0780   29.3670 C.3   298  VAL298      0.1561
     18  C         28.1150   30.7320   29.0290 C.2   298  VAL298      0.2260
     19  O         28.6190   29.9960   28.1680 O.2   298  VAL298     -0.2867
     20  CB        29.5450   32.0220   30.6850 C.3   298  VAL298      0.0252
     21  CG1       30.3960   30.7430   30.7700 C.3   298  VAL298      0.0019
     22  CG2       30.4070   33.2850   30.8450 C.3   298  VAL298      0.0019
     23  N         27.2980   30.6450   25.3500 N.3   301  MET301     -0.1230
     24  CA        28.4690   30.5490   24.4750 C.3   301  MET301      0.1702
     25  C         29.1550   29.1910   24.5650 C.2   301  MET301      0.2592
     26  O         29.8630   28.8070   23.6260 O.2   301  MET301     -0.2718
     27  CB        29.4730   31.6600   24.8070 C.3   301  MET301      0.0401
     28  CG        28.9400   33.0810   24.6150 C.3   301  MET301      0.0596
     29  SD        28.3700   33.3770   22.9230 S.3   301  MET301     -0.1393
     30  CE        29.7830   32.8420   21.9690 C.3   301  MET301      0.0692
     31  N         28.9550   28.4560   25.6600 N.am  302  ASN302     -0.1974
     32  CA        29.5180   27.1220   25.8400 C.3   302  ASN302      0.1688
     33  C         28.5280   26.0130   25.5020 C.2   302  ASN302      0.2292
     34  O         28.8610   24.8330   25.6590 O.2   302  ASN302     -0.2864
     35  CB        30.0050   26.9510   27.2870 C.3   302  ASN302      0.1181
     36  CG        31.5340   26.8910   27.4160 C.2   302  ASN302      0.2629
     37  OD1       32.2760   27.1900   26.4890 O.2   302  ASN302     -0.2716
     38  ND2       31.9990   26.4880   28.5960 N.am  302  ASN302     -0.0877
     39  N         26.3270   26.5920   19.9840 N.3   306  VAL306     -0.1231
     40  CA        27.1250   27.7940   19.7510 C.3   306  VAL306      0.1692
     41  C         28.6160   27.4960   19.7930 C.2   306  VAL306      0.2592
     42  O         29.3870   28.0550   19.0070 O.2   306  VAL306     -0.2718
     43  CB        26.7390   28.8710   20.7880 C.3   306  VAL306      0.0266
     44  CG1       27.6090   30.1150   20.6380 C.3   306  VAL306      0.0020
     45  CG2       25.2500   29.2190   20.6650 C.3   306  VAL306      0.0020
     46  N         29.0370   26.6260   20.7190 N.am  307  TYR307     -0.1976
     47  CA        30.4590   26.3780   20.9380 C.3   307  TYR307      0.1639
     48  C         31.1700   25.9800   19.6500 C.2   307  TYR307      0.2290
     49  O         32.3360   26.3430   19.4290 O.2   307  TYR307     -0.2864
     50  CB        30.6310   25.2840   21.9970 C.3   307  TYR307      0.0560
     51  CG        32.0740   25.0170   22.3440 C.ar  307  TYR307     -0.0198
     52  CD1       32.7290   25.7910   23.3000 C.ar  307  TYR307     -0.0009
     53  CD2       32.7890   24.0050   21.7140 C.ar  307  TYR307     -0.0009
     54  CE1       34.0600   25.5660   23.6110 C.ar  307  TYR307      0.0417
     55  CE2       34.1150   23.7710   22.0230 C.ar  307  TYR307      0.0417
     56  CZ        34.7450   24.5540   22.9700 C.ar  307  TYR307      0.1957
     57  OH        36.0640   24.3210   23.2770 O.3   307  TYR307     -0.2866
     58  N         30.7420   26.8590   16.5440 N.3   309  LEU309     -0.1231
     59  CA        30.6910   27.7820   15.3950 C.3   309  LEU309      0.1693
     60  C         32.0430   28.4750   15.1890 C.2   309  LEU309      0.2592
     61  O         32.2110   29.6770   15.3840 O.2   309  LEU309     -0.2718
     62  CB        29.5700   28.7940   15.5800 C.3   309  LEU309      0.0284
     63  CG        28.1700   28.1820   15.7040 C.3   309  LEU309      0.0019
     64  CD1       27.1690   29.2620   16.0740 C.3   309  LEU309      0.0001
     65  CD2       27.7480   27.4690   14.4040 C.3   309  LEU309      0.0001
     66  N         33.0080   27.6770   14.7210 N.am  310  ASP310     -0.1974
     67  CA        34.3800   28.1510   14.5590 C.3   310  ASP310      0.1709
     68  C         34.4950   29.3150   13.5770 C.2   310  ASP310      0.2293
     69  O         35.3310   30.2020   13.7800 O.2   310  ASP310     -0.2864
     70  CB        35.2730   26.9990   14.1130 C.3   310  ASP310      0.1436
     71  CG        35.4870   25.9700   15.2150 C.2   310  ASP310      0.3671
     72  OD1       35.1510   26.2620   16.3880 O.co2 310  ASP310     -0.2456
     73  OD2       35.9890   24.8710   14.9080 O.co2 310  ASP310     -0.2456
     74  N         32.3720   31.6890   13.0980 N.3   312  THR312     -0.1203
     75  CA        31.9040   32.8600   13.8280 C.3   312  THR312      0.1994
     76  C         32.9510   33.2980   14.8400 C.2   312  THR312      0.2618
     77  O         33.3090   34.4820   14.9080 O.2   312  THR312     -0.2717
     78  CB        30.5770   32.5060   14.5110 C.3   312  THR312      0.1784
     79  OG1       29.6760   31.9910   13.5220 O.3   312  THR312     -0.2211
     80  CG2       29.9340   33.7090   15.1770 C.3   312  THR312      0.0376
     81  N         33.4710   32.3300   15.6030 N.am  313  PHE313     -0.1961
     82  CA        34.5480   32.5580   16.5660 C.3   313  PHE313      0.1771
     83  C         35.7340   33.2730   15.9320 C.2   313  PHE313      0.2619
     84  O         36.3020   34.1950   16.5300 O.2   313  PHE313     -0.2715
     85  CB        34.9820   31.2040   17.1610 C.3   313  PHE313      0.0574
     86  CG        36.2520   31.2490   17.9860 C.ar  313  PHE313     -0.0200
     87  CD1       36.1950   31.4270   19.3650 C.ar  313  PHE313     -0.0042
     88  CD2       37.4980   31.0670   17.3910 C.ar  313  PHE313     -0.0042
     89  CE1       37.3580   31.4570   20.1310 C.ar  313  PHE313     -0.0003
     90  CE2       38.6590   31.1020   18.1450 C.ar  313  PHE313     -0.0003
     91  CZ        38.5900   31.2900   19.5220 C.ar  313  PHE313     -0.0000
     92  N         36.1100   32.8690   14.7140 N.am  314  GLU314     -0.1977
     93  CA        37.3140   33.4090   14.0860 C.3   314  GLU314      0.1602
     94  C         37.2120   34.9090   13.8300 C.2   314  GLU314      0.2287
     95  O         38.2420   35.5890   13.7440 O.2   314  GLU314     -0.2864
     96  CB        37.6040   32.6800   12.7700 C.3   314  GLU314      0.0415
     97  CG        38.0970   31.2420   12.9090 C.3   314  GLU314      0.1163
     98  CD        39.5390   31.1400   13.3740 C.2   314  GLU314      0.3649
     99  OE1       39.8100   30.3580   14.3110 O.co2 314  GLU314     -0.2457
    100  OE2       40.4010   31.8360   12.7980 O.co2 314  GLU314     -0.2457
    101  N         35.4510   37.1630   15.7850 N.3   316  ILE316     -0.1245
    102  CA        35.2130   37.9670   16.9850 C.3   316  ILE316      0.1561
    103  C         36.5130   38.6720   17.3690 C.2   316  ILE316      0.2260
    104  O         37.5660   38.0160   17.4380 O.2   316  ILE316     -0.2867
    105  CB        34.7020   37.0820   18.1210 C.3   316  ILE316      0.0252
    106  CG1       33.3240   36.5090   17.7510 C.3   316  ILE316      0.0019
    107  CG2       34.6240   37.8490   19.4330 C.3   316  ILE316      0.0019
    108  CD1       32.2730   37.5670   17.5190 C.3   316  ILE316      0.0001
    109  N         37.0530   38.2380   22.7540 N.3   321  LYS321     -0.1245
    110  CA        37.4340   36.9070   23.1990 C.3   321  LYS321      0.1561
    111  C         37.9910   36.9570   24.6080 C.2   321  LYS321      0.2260
    112  O         37.7280   36.0650   25.4190 O.2   321  LYS321     -0.2867
    113  CB        38.4540   36.2970   22.2440 C.3   321  LYS321      0.0271
    114  CG        37.8490   35.9130   20.9250 C.3   321  LYS321      0.0035
    115  CD        38.9030   35.3650   19.9740 C.3   321  LYS321      0.0206
    116  CE        38.2490   34.8480   18.7190 C.3   321  LYS321      0.1093
    117  NZ        39.2280   34.7270   17.6080 N.3   321  LYS321     -0.1314
    118  N         35.1390   37.3270   27.1410 N.3   324  LEU324     -0.1231
    119  CA        34.4380   36.0630   27.3140 C.3   324  LEU324      0.1693
    120  C         35.3000   35.0640   28.0780 C.2   324  LEU324      0.2591
    121  O         34.8020   34.3530   28.9580 O.2   324  LEU324     -0.2718
    122  CB        34.0260   35.5180   25.9400 C.3   324  LEU324      0.0284
    123  CG        33.2660   34.1910   25.9550 C.3   324  LEU324      0.0019
    124  CD1       31.9770   34.3130   26.7540 C.3   324  LEU324      0.0001
    125  CD2       32.9520   33.8000   24.5150 C.3   324  LEU324      0.0001
    126  N         36.6040   35.0400   27.7940 N.am  325  GLU325     -0.1979
    127  CA        37.5170   34.1350   28.4870 C.3   325  GLU325      0.1602
    128  C         37.5530   34.4230   29.9820 C.2   325  GLU325      0.2287
    129  O         37.4540   33.5060   30.8080 O.2   325  GLU325     -0.2864
    130  CB        38.9260   34.2660   27.8980 C.3   325  GLU325      0.0415
    131  CG        39.9960   33.4690   28.6460 C.3   325  GLU325      0.1163
    132  CD        41.4160   33.9380   28.3340 C.2   325  GLU325      0.3649
    133  OE1       41.5730   34.9630   27.6340 O.co2 325  GLU325     -0.2457
    134  OE2       42.3790   33.2830   28.7900 O.co2 325  GLU325     -0.2457
    135  N         34.3490   33.2200   31.5560 N.3   328  HIS328     -0.1226
    136  CA        34.3380   31.7680   31.7100 C.3   328  HIS328      0.1752
    137  C         35.2700   31.3180   32.8320 C.2   328  HIS328      0.2595
    138  O         34.9730   30.3510   33.5470 O.2   328  HIS328     -0.2718
    139  CB        34.7340   31.0980   30.3910 C.3   328  HIS328      0.0759
    140  CG        34.7550   29.6030   30.4670 C.ar  328  HIS328      0.0818
    141  ND1       35.8770   28.8920   30.8430 N.ar  328  HIS328     -0.2268
    142  CD2       33.7810   28.6860   30.2580 C.ar  328  HIS328      0.1154
    143  CE1       35.5980   27.6000   30.8360 C.ar  328  HIS328      0.1986
    144  NE2       34.3340   27.4480   30.4790 N.ar  328  HIS328     -0.2212
    145  N         36.4010   32.0080   33.0090 N.am  329  GLU329     -0.1979
    146  CA        37.3330   31.6260   34.0680 C.3   329  GLU329      0.1602
    147  C         36.7310   31.7660   35.4650 C.2   329  GLU329      0.2287
    148  O         37.1960   31.0900   36.3880 O.2   329  GLU329     -0.2864
    149  CB        38.6240   32.4320   33.9430 C.3   329  GLU329      0.0415
    150  CG        39.4390   31.9830   32.7280 C.3   329  GLU329      0.1163
    151  CD        40.7190   32.7680   32.5230 C.2   329  GLU329      0.3649
    152  OE1       41.0770   33.5770   33.4040 O.co2 329  GLU329     -0.2457
    153  OE2       41.3660   32.5690   31.4700 O.co2 329  GLU329     -0.2457
    154  N         35.6070   28.2310   36.4180 N.3   332  GLU332     -0.1245
    155  CA        36.5890   27.1520   36.4530 C.3   332  GLU332      0.1567
    156  C         36.9490   26.7710   37.8860 C.2   332  GLU332      0.2260
    157  O         36.7690   27.5410   38.8320 O.2   332  GLU332     -0.2867
    158  CB        37.8410   27.5610   35.6750 C.3   332  GLU332      0.0388
    159  CG        37.5540   27.6850   34.1840 C.3   332  GLU332      0.1160
    160  CD        38.7360   28.1900   33.3580 C.2   332  GLU332      0.3649
    161  OE1       39.8570   28.3380   33.9010 O.co2 332  GLU332     -0.2457
    162  OE2       38.5300   28.4460   32.1520 O.co2 332  GLU332     -0.2457
@<TRIPOS>BOND
     1    96    97    1
     2    96    93    1
     3   100    98   ar
     4    97    98    1
     5    74    75    1
     6    98    99   ar
     7    79    78    1
     8    68    69    2
     9    68    67    1
    10    95    94    2
    11    75    78    1
    12    75    76    1
    13    94    93    1
    14    93    92    1
    15    70    67    1
    16    70    71    1
    17    65    63    1
    18    78    80    1
    19    67    66    1
    20    92    83   am
    21    66    60   am
    22    76    77    2
    23    76    81   am
    24    73    71   ar
    25    60    61    2
    26    60    59    1
    27    71    72   ar
    28    59    62    1
    29    59    58    1
    30    62    63    1
    31    81    82    1
    32    63    64    1
    33   101   102    1
    34    83    84    2
    35    83    82    1
    36    82    85    1
    37   102   103    1
    38   102   105    1
    39    85    86    1
    40   103   104    2
    41    88    86   ar
    42    88    90   ar
    43   108   106    1
    44   117   116    1
    45   106   105    1
    46    86    87   ar
    47     1     2    1
    48   105   107    1
    49    90    91   ar
    50     7     5    1
    51     5     2    1
    52     5     6    1
    53   116   115    1
    54    42    41    2
    55     2     3    1
    56    87    89   ar
    57    49    48    2
    58    91    89   ar
    59    48    47    1
    60     3     4    2
    61    40    41    1
    62    40    39    1
    63    40    43    1
    64    41    46   am
    65   115   114    1
    66    44    43    1
    67    45    43    1
    68    46    47    1
    69   114   113    1
    70    47    50    1
    71    53    55   ar
    72    53    51   ar
    73    30    29    1
    74    50    51    1
    75    55    56   ar
    76   113   110    1
    77    51    52   ar
    78    15    13    1
    79   109   110    1
    80    29    28    1
    81    56    57    1
    82    56    54   ar
    83   110   111    1
    84    52    54   ar
    85    13    12    1
    86    26    25    2
    87     8     9    1
    88    12     9    1
    89    12    14    1
    90    24    25    1
    91    24    27    1
    92    24    23    1
    93   125   123    1
    94    25    31   am
    95     9    10    1
    96   111   112    2
    97    28    27    1
    98    10    11    2
    99    33    34    2
   100    33    32    1
   101    31    32    1
   102    32    35    1
   103   122   123    1
   104   122   119    1
   105   123   124    1
   106    37    36    2
   107   118   119    1
   108    35    36    1
   109   119   120    1
   110    36    38   am
   111   133   132   ar
   112   126   120   am
   113   126   127    1
   114   130   127    1
   115   130   131    1
   116   120   121    2
   117    19    18    2
   118   132   131    1
   119   132   134   ar
   120   127   128    1
   121    18    17    1
   122    17    16    1
   123    17    20    1
   124   128   129    2
   125   142   140   ar
   126   142   144   ar
   127   139   140    1
   128   139   136    1
   129   140   141   ar
   130   144   143   ar
   131    20    21    1
   132    20    22    1
   133   143   141   ar
   134   153   151   ar
   135   135   136    1
   136   136   137    1
   137   162   160   ar
   138   151   150    1
   139   151   152   ar
   140   150   149    1
   141   137   145   am
   142   137   138    2
   143   145   146    1
   144   160   161   ar
   145   160   159    1
   146   149   146    1
   147   146   147    1
   148   159   158    1
   149   147   148    2
   150   158   155    1
   151   154   155    1
   152   155   156    1
   153   156   157    2
