@<TRIPOS>MOLECULE
tmp/6d59B00.pdb
 164 156 0 0 0
SMALL
GASTEIGER

@<TRIPOS>ATOM
      1  N         26.8500   37.8800   18.0880 N.3   275  VAL275     -0.1245
      2  CA        27.6970   37.3860   19.1770 C.3   275  VAL275      0.1561
      3  C         28.4480   38.5420   19.8260 C.2   275  VAL275      0.2260
      4  O         28.5790   38.6120   21.0590 O.2   275  VAL275     -0.2867
      5  CB        28.6580   36.3040   18.6510 C.3   275  VAL275      0.0252
      6  CG1       29.7440   35.9810   19.6920 C.3   275  VAL275      0.0019
      7  CG2       27.8800   35.0360   18.2500 C.3   275  VAL275      0.0019
      8  N         28.4440   39.7150   23.8430 N.3   279  ILE279     -0.1245
      9  CA        29.6200   39.9140   24.6930 C.3   279  ILE279      0.1561
     10  C         29.6590   41.3380   25.2530 C.2   279  ILE279      0.2260
     11  O         30.1620   41.5640   26.3660 O.2   279  ILE279     -0.2867
     12  CB        30.9000   39.5540   23.9100 C.3   279  ILE279      0.0252
     13  CG1       30.8860   38.0550   23.5700 C.3   279  ILE279      0.0019
     14  CG2       32.1560   39.8710   24.7420 C.3   279  ILE279      0.0019
     15  CD1       32.0250   37.6110   22.6310 C.3   279  ILE279      0.0001
     16  N         27.8160   33.1560   29.5700 N.3   298  VAL298     -0.1245
     17  CA        28.8410   32.1140   29.5020 C.3   298  VAL298      0.1561
     18  C         28.2130   30.7600   29.1780 C.2   298  VAL298      0.2260
     19  O         28.7300   30.0100   28.3370 O.2   298  VAL298     -0.2867
     20  CB        29.6480   32.0650   30.8130 C.3   298  VAL298      0.0252
     21  CG1       30.5270   30.8120   30.8610 C.3   298  VAL298      0.0019
     22  CG2       30.4910   33.3380   30.9790 C.3   298  VAL298      0.0019
     23  N         27.4250   30.6650   25.4920 N.3   301  MET301     -0.1230
     24  CA        28.5890   30.5510   24.6040 C.3   301  MET301      0.1702
     25  C         29.2680   29.1910   24.7090 C.2   301  MET301      0.2592
     26  O         29.9840   28.7930   23.7790 O.2   301  MET301     -0.2718
     27  CB        29.6090   31.6670   24.8980 C.3   301  MET301      0.0401
     28  CG        29.0520   33.0990   24.7260 C.3   301  MET301      0.0596
     29  SD        28.3570   33.3490   23.0720 S.3   301  MET301     -0.1393
     30  CE        29.7780   32.9600   22.0550 C.3   301  MET301      0.0692
     31  N         29.0540   28.4630   25.8050 N.am  302  ASN302     -0.1974
     32  CA        29.5840   27.1150   25.9670 C.3   302  ASN302      0.1688
     33  C         28.5900   26.0210   25.6040 C.2   302  ASN302      0.2292
     34  O         28.9170   24.8380   25.7590 O.2   302  ASN302     -0.2864
     35  CB        30.0450   26.8940   27.4130 C.3   302  ASN302      0.1181
     36  CG        31.4530   27.3830   27.6530 C.2   302  ASN302      0.2629
     37  OD1       31.6900   28.2020   28.5370 O.2   302  ASN302     -0.2716
     38  ND2       32.3940   26.8900   26.8640 N.am  302  ASN302     -0.0877
     39  N         26.4220   26.6240   20.0830 N.3   306  VAL306     -0.1231
     40  CA        27.2160   27.8350   19.8590 C.3   306  VAL306      0.1692
     41  C         28.7100   27.5450   19.8970 C.2   306  VAL306      0.2592
     42  O         29.4800   28.1160   19.1140 O.2   306  VAL306     -0.2718
     43  CB        26.8350   28.9030   20.9070 C.3   306  VAL306      0.0266
     44  CG1       27.7130   30.1450   20.7460 C.3   306  VAL306      0.0020
     45  CG2       25.3630   29.2600   20.7980 C.3   306  VAL306      0.0020
     46  N         29.1330   26.6740   20.8200 N.am  307  TYR307     -0.1962
     47  CA        30.5550   26.4360   21.0550 C.3   307  TYR307      0.1771
     48  C         31.2860   26.0340   19.7800 C.2   307  TYR307      0.2619
     49  O         32.4450   26.4120   19.5740 O.2   307  TYR307     -0.2715
     50  CB        30.7100   25.3450   22.1210 C.3   307  TYR307      0.0574
     51  CG        32.1320   25.0620   22.5420 C.ar  307  TYR307     -0.0198
     52  CD1       32.7310   25.7980   23.5640 C.ar  307  TYR307     -0.0009
     53  CD2       32.8750   24.0660   21.9250 C.ar  307  TYR307     -0.0009
     54  CE1       34.0300   25.5470   23.9630 C.ar  307  TYR307      0.0417
     55  CE2       34.1820   23.8070   22.3150 C.ar  307  TYR307      0.0417
     56  CZ        34.7500   24.5480   23.3370 C.ar  307  TYR307      0.1957
     57  OH        36.0460   24.2990   23.7310 O.3   307  TYR307     -0.2866
     58  N         30.6180   25.2760   18.9080 N.am  308  ARG308     -0.1963
     59  CA        31.2650   24.7140   17.7230 C.3   308  ARG308      0.1729
     60  C         31.3590   25.6780   16.5390 C.2   308  ARG308      0.2616
     61  O         31.8760   25.2730   15.4940 O.2   308  ARG308     -0.2715
     62  CB        30.5300   23.4470   17.2620 C.3   308  ARG308      0.0348
     63  CG        29.0460   23.6530   16.9500 C.3   308  ARG308      0.0492
     64  CD        28.4090   22.3680   16.3870 C.3   308  ARG308      0.2205
     65  NE        29.1190   21.9430   15.1830 N.pl3 308  ARG308     -0.0865
     66  CZ        28.9080   22.4580   13.9770 C.cat 308  ARG308      0.5346
     67  NH1       27.9890   23.4080   13.7940 N.pl3 308  ARG308      0.1354
     68  NH2       29.6400   22.0330   12.9510 N.pl3 308  ARG308      0.1354
     69  N         30.8880   26.9220   16.6550 N.am  309  LEU309     -0.1963
     70  CA        30.8240   27.8330   15.4990 C.3   309  LEU309      0.1728
     71  C         32.1640   28.5490   15.2850 C.2   309  LEU309      0.2616
     72  O         32.3060   29.7540   15.4730 O.2   309  LEU309     -0.2715
     73  CB        29.6880   28.8330   15.6740 C.3   309  LEU309      0.0311
     74  CG        28.3020   28.1920   15.7960 C.3   309  LEU309      0.0022
     75  CD1       27.2760   29.2500   16.1890 C.3   309  LEU309      0.0001
     76  CD2       27.8890   27.4860   14.4760 C.3   309  LEU309      0.0001
     77  N         33.1400   27.7700   14.8060 N.am  310  ASP310     -0.1971
     78  CA        34.5060   28.2610   14.6470 C.3   310  ASP310      0.1709
     79  C         34.6050   29.4250   13.6620 C.2   310  ASP310      0.2293
     80  O         35.4330   30.3260   13.8480 O.2   310  ASP310     -0.2864
     81  CB        35.4200   27.1200   14.2000 C.3   310  ASP310      0.1436
     82  CG        35.7890   26.1970   15.3440 C.2   310  ASP310      0.3671
     83  OD1       35.8590   26.6880   16.4860 O.co2 310  ASP310     -0.2456
     84  OD2       36.0100   24.9940   15.1050 O.co2 310  ASP310     -0.2456
     85  N         32.4600   31.7680   13.1520 N.3   312  THR312     -0.1203
     86  CA        32.0000   32.9460   13.8740 C.3   312  THR312      0.1994
     87  C         33.0560   33.3990   14.8750 C.2   312  THR312      0.2617
     88  O         33.4090   34.5840   14.9330 O.2   312  THR312     -0.2717
     89  CB        30.6710   32.6070   14.5630 C.3   312  THR312      0.1784
     90  OG1       29.7620   32.1010   13.5760 O.3   312  THR312     -0.2211
     91  CG2       30.0450   33.8330   15.2330 C.3   312  THR312      0.0376
     92  N         33.5940   32.4460   15.6450 N.am  313  PHE313     -0.1975
     93  CA        34.6750   32.7160   16.5870 C.3   313  PHE313      0.1639
     94  C         35.8360   33.4350   15.9190 C.2   313  PHE313      0.2290
     95  O         36.3920   34.3860   16.4810 O.2   313  PHE313     -0.2864
     96  CB        35.1510   31.3960   17.2080 C.3   313  PHE313      0.0560
     97  CG        36.4420   31.5090   17.9750 C.ar  313  PHE313     -0.0200
     98  CD1       36.4440   31.9110   19.3100 C.ar  313  PHE313     -0.0042
     99  CD2       37.6580   31.2070   17.3680 C.ar  313  PHE313     -0.0042
    100  CE1       37.6350   32.0150   20.0160 C.ar  313  PHE313     -0.0003
    101  CE2       38.8460   31.3130   18.0680 C.ar  313  PHE313     -0.0003
    102  CZ        38.8350   31.7130   19.3910 C.ar  313  PHE313     -0.0000
    103  N         35.5150   37.2980   15.7950 N.3   316  ILE316     -0.1245
    104  CA        35.2790   38.1050   17.0000 C.3   316  ILE316      0.1561
    105  C         36.5600   38.8520   17.3680 C.2   316  ILE316      0.2260
    106  O         37.6440   38.2420   17.3980 O.2   316  ILE316     -0.2867
    107  CB        34.8010   37.2100   18.1510 C.3   316  ILE316      0.0252
    108  CG1       33.4470   36.5820   17.7920 C.3   316  ILE316      0.0019
    109  CG2       34.6920   37.9990   19.4700 C.3   316  ILE316      0.0019
    110  CD1       32.3390   37.5770   17.5800 C.3   316  ILE316      0.0001
    111  N         37.1570   38.3440   22.7660 N.3   321  LYS321     -0.1245
    112  CA        37.5590   37.0110   23.1950 C.3   321  LYS321      0.1561
    113  C         38.1210   37.0500   24.6050 C.2   321  LYS321      0.2260
    114  O         37.8770   36.1420   25.4070 O.2   321  LYS321     -0.2867
    115  CB        38.5910   36.4300   22.2320 C.3   321  LYS321      0.0271
    116  CG        38.0120   36.1180   20.8820 C.3   321  LYS321      0.0035
    117  CD        39.0820   35.6030   19.9170 C.3   321  LYS321      0.0206
    118  CE        38.4520   35.2270   18.5920 C.3   321  LYS321      0.1093
    119  NZ        39.4660   35.1030   17.5150 N.3   321  LYS321     -0.1314
    120  N         35.3110   37.3760   27.1970 N.3   324  LEU324     -0.1231
    121  CA        34.6150   36.1110   27.3930 C.3   324  LEU324      0.1693
    122  C         35.4920   35.1160   28.1470 C.2   324  LEU324      0.2591
    123  O         35.0040   34.3930   29.0250 O.2   324  LEU324     -0.2718
    124  CB        34.1720   35.5450   26.0380 C.3   324  LEU324      0.0284
    125  CG        33.3860   34.2340   26.0880 C.3   324  LEU324      0.0019
    126  CD1       32.0740   34.4230   26.8420 C.3   324  LEU324      0.0001
    127  CD2       33.1080   33.7880   24.6530 C.3   324  LEU324      0.0001
    128  N         36.7940   35.0960   27.8470 N.am  325  GLU325     -0.1979
    129  CA        37.7080   34.1960   28.5420 C.3   325  GLU325      0.1602
    130  C         37.7260   34.4870   30.0370 C.2   325  GLU325      0.2287
    131  O         37.6250   33.5710   30.8620 O.2   325  GLU325     -0.2864
    132  CB        39.1200   34.3280   27.9630 C.3   325  GLU325      0.0415
    133  CG        40.1500   33.4550   28.6750 C.3   325  GLU325      0.1163
    134  CD        41.5810   33.8650   28.3710 C.2   325  GLU325      0.3649
    135  OE1       41.7790   34.8080   27.5740 O.co2 325  GLU325     -0.2457
    136  OE2       42.5110   33.2470   28.9340 O.co2 325  GLU325     -0.2457
    137  N         34.5380   33.2880   31.6060 N.3   328  HIS328     -0.1226
    138  CA        34.5390   31.8340   31.7550 C.3   328  HIS328      0.1752
    139  C         35.4440   31.3940   32.9050 C.2   328  HIS328      0.2595
    140  O         35.1480   30.4160   33.6050 O.2   328  HIS328     -0.2718
    141  CB        34.9830   31.1760   30.4430 C.3   328  HIS328      0.0759
    142  CG        35.0770   29.6860   30.5250 C.ar  328  HIS328      0.0818
    143  ND1       36.2460   29.0310   30.8500 N.ar  328  HIS328     -0.2268
    144  CD2       34.1400   28.7220   30.3570 C.ar  328  HIS328      0.1154
    145  CE1       36.0300   27.7280   30.8640 C.ar  328  HIS328      0.1986
    146  NE2       34.7610   27.5130   30.5630 N.ar  328  HIS328     -0.2212
    147  N         36.5510   32.1050   33.1190 N.am  329  GLU329     -0.1979
    148  CA        37.4800   31.7190   34.1740 C.3   329  GLU329      0.1602
    149  C         36.8730   31.8590   35.5660 C.2   329  GLU329      0.2287
    150  O         37.3610   31.2160   36.4990 O.2   329  GLU329     -0.2864
    151  CB        38.7730   32.5270   34.0570 C.3   329  GLU329      0.0415
    152  CG        39.6270   32.0530   32.8740 C.3   329  GLU329      0.1163
    153  CD        40.8710   32.8880   32.6410 C.2   329  GLU329      0.3649
    154  OE1       41.1660   33.7710   33.4710 O.co2 329  GLU329     -0.2457
    155  OE2       41.5540   32.6540   31.6170 O.co2 329  GLU329     -0.2457
    156  N         35.7310   28.2980   36.4890 N.3   332  GLU332     -0.1245
    157  CA        36.7080   27.2170   36.5190 C.3   332  GLU332      0.1567
    158  C         37.0630   26.8260   37.9510 C.2   332  GLU332      0.2260
    159  O         36.8890   27.5970   38.8980 O.2   332  GLU332     -0.2867
    160  CB        37.9660   27.6320   35.7540 C.3   332  GLU332      0.0388
    161  CG        37.7040   27.7530   34.2520 C.3   332  GLU332      0.1160
    162  CD        38.8960   28.2950   33.4750 C.2   332  GLU332      0.3649
    163  OE1       39.9770   28.4950   34.0750 O.co2 332  GLU332     -0.2457
    164  OE2       38.7420   28.5300   32.2560 O.co2 332  GLU332     -0.2457
@<TRIPOS>BOND
     1    68    66    1
     2    85    86    1
     3    90    89    1
     4    79    80    2
     5    79    78    1
     6    67    66    1
     7    86    89    1
     8    86    87    1
     9    66    65    2
    10    81    78    1
    11    81    82    1
    12    76    74    1
    13    89    91    1
    14    78    77    1
    15    77    71   am
    16    87    88    2
    17    87    92   am
    18    84    82   ar
    19    65    64    1
    20    71    72    2
    21    71    70    1
    22    82    83   ar
    23    61    60    2
    24    70    73    1
    25    70    69    1
    26    92    93    1
    27    73    74    1
    28   103   104    1
    29    74    75    1
    30    94    95    2
    31    94    93    1
    32    64    63    1
    33    60    69   am
    34    60    59    1
    35    93    96    1
    36    63    62    1
    37   104   105    1
    38   104   107    1
    39    96    97    1
    40    62    59    1
    41   105   106    2
    42    99    97   ar
    43    99   101   ar
    44   119   118    1
    45   110   108    1
    46    59    58    1
    47   108   107    1
    48    97    98   ar
    49   101   102   ar
    50     1     2    1
    51   107   109    1
    52     7     5    1
    53   118   117    1
    54     5     2    1
    55     5     6    1
    56    58    48   am
    57    42    41    2
    58     2     3    1
    59    98   100   ar
    60   102   100   ar
    61    49    48    2
    62    48    47    1
    63     3     4    2
    64    40    41    1
    65    40    39    1
    66    40    43    1
    67    41    46   am
    68   117   116    1
    69    44    43    1
    70    45    43    1
    71    46    47    1
    72   116   115    1
    73    47    50    1
    74    53    55   ar
    75    53    51   ar
    76    30    29    1
    77    50    51    1
    78   115   112    1
    79    55    56   ar
    80    51    52   ar
    81    15    13    1
    82   111   112    1
    83    29    28    1
    84   112   113    1
    85    56    57    1
    86    56    54   ar
    87    52    54   ar
    88    13    12    1
    89    26    25    2
    90     8     9    1
    91    12     9    1
    92    12    14    1
    93    24    25    1
    94    24    27    1
    95    24    23    1
    96   113   114    2
    97   127   125    1
    98     9    10    1
    99    25    31   am
   100    28    27    1
   101    10    11    2
   102    33    34    2
   103    33    32    1
   104    31    32    1
   105    32    35    1
   106   124   125    1
   107   124   121    1
   108   125   126    1
   109    38    36   am
   110   120   121    1
   111   121   122    1
   112    35    36    1
   113   135   134   ar
   114    36    37    2
   115   128   122   am
   116   128   129    1
   117   132   129    1
   118   132   133    1
   119   122   123    2
   120    19    18    2
   121   134   133    1
   122   134   136   ar
   123   129   130    1
   124    18    17    1
   125    17    16    1
   126    17    20    1
   127   130   131    2
   128   144   142   ar
   129   144   146   ar
   130   141   142    1
   131   141   138    1
   132   142   143   ar
   133   146   145   ar
   134    20    21    1
   135    20    22    1
   136   143   145   ar
   137   137   138    1
   138   155   153   ar
   139   138   139    1
   140   164   162   ar
   141   153   152    1
   142   153   154   ar
   143   152   151    1
   144   139   147   am
   145   139   140    2
   146   147   148    1
   147   162   163   ar
   148   162   161    1
   149   151   148    1
   150   148   149    1
   151   161   160    1
   152   149   150    2
   153   160   157    1
   154   156   157    1
   155   157   158    1
   156   158   159    2
