@<TRIPOS>MOLECULE
tmp/6d5eB00.pdb
 155 147 0 0 0
SMALL
GASTEIGER

@<TRIPOS>ATOM
      1  N         26.7270   37.7200   18.1180 N.3   275  VAL275     -0.1245
      2  CA        27.6050   37.2420   19.1880 C.3   275  VAL275      0.1561
      3  C         28.3560   38.4060   19.8260 C.2   275  VAL275      0.2260
      4  O         28.4840   38.4900   21.0560 O.2   275  VAL275     -0.2867
      5  CB        28.5760   36.1790   18.6480 C.3   275  VAL275      0.0252
      6  CG1       29.6560   35.8750   19.7100 C.3   275  VAL275      0.0019
      7  CG2       27.7970   34.9080   18.2540 C.3   275  VAL275      0.0019
      8  N         28.3520   39.5380   23.8400 N.3   279  ILE279     -0.1245
      9  CA        29.5310   39.7290   24.6890 C.3   279  ILE279      0.1561
     10  C         29.5970   41.1560   25.2360 C.2   279  ILE279      0.2260
     11  O         30.1200   41.3840   26.3380 O.2   279  ILE279     -0.2867
     12  CB        30.8070   39.3320   23.9150 C.3   279  ILE279      0.0252
     13  CG1       30.7660   37.8340   23.5810 C.3   279  ILE279      0.0019
     14  CG2       32.0660   39.6340   24.7430 C.3   279  ILE279      0.0019
     15  CD1       31.9170   37.3570   22.6670 C.3   279  ILE279      0.0001
     16  N         27.7500   33.0300   29.5780 N.3   298  VAL298     -0.1245
     17  CA        28.7730   31.9870   29.4940 C.3   298  VAL298      0.1561
     18  C         28.1370   30.6440   29.1510 C.2   298  VAL298      0.2260
     19  O         28.6480   29.9040   28.2990 O.2   298  VAL298     -0.2867
     20  CB        29.5670   31.9160   30.8100 C.3   298  VAL298      0.0252
     21  CG1       30.4250   30.6470   30.8530 C.3   298  VAL298      0.0019
     22  CG2       30.4310   33.1750   30.9720 C.3   298  VAL298      0.0019
     23  N         27.3350   30.5400   25.4640 N.3   301  MET301     -0.1230
     24  CA        28.4990   30.4410   24.5780 C.3   301  MET301      0.1702
     25  C         29.1920   29.0920   24.6910 C.2   301  MET301      0.2592
     26  O         29.8860   28.6870   23.7500 O.2   301  MET301     -0.2718
     27  CB        29.5050   31.5740   24.8770 C.3   301  MET301      0.0401
     28  CG        28.9380   32.9930   24.6540 C.3   301  MET301      0.0596
     29  SD        28.1960   33.2200   23.0110 S.3   301  MET301     -0.1393
     30  CE        29.6090   32.7910   21.9770 C.3   301  MET301      0.0692
     31  N         29.0110   28.3800   25.8050 N.am  302  ASN302     -0.1974
     32  CA        29.5840   27.0470   25.9810 C.3   302  ASN302      0.1688
     33  C         28.6170   25.9280   25.6040 C.2   302  ASN302      0.2292
     34  O         28.9770   24.7500   25.7220 O.2   302  ASN302     -0.2864
     35  CB        30.0480   26.8700   27.4380 C.3   302  ASN302      0.1181
     36  CG        31.5170   26.4640   27.5520 C.2   302  ASN302      0.2629
     37  OD1       32.2750   26.5240   26.5890 O.2   302  ASN302     -0.2716
     38  ND2       31.9140   26.0280   28.7390 N.am  302  ASN302     -0.0877
     39  N         26.3500   26.4640   20.0880 N.3   306  VAL306     -0.1231
     40  CA        27.1360   27.6750   19.8430 C.3   306  VAL306      0.1692
     41  C         28.6300   27.3800   19.8410 C.2   306  VAL306      0.2592
     42  O         29.3790   27.9340   19.0260 O.2   306  VAL306     -0.2718
     43  CB        26.7870   28.7410   20.9030 C.3   306  VAL306      0.0266
     44  CG1       27.6780   29.9690   20.7370 C.3   306  VAL306      0.0020
     45  CG2       25.3130   29.1200   20.8010 C.3   306  VAL306      0.0020
     46  N         29.0660   26.5110   20.7570 N.am  307  TYR307     -0.1962
     47  CA        30.4910   26.2460   20.9500 C.3   307  TYR307      0.1771
     48  C         31.1770   25.8150   19.6560 C.2   307  TYR307      0.2619
     49  O         32.3500   26.1430   19.4230 O.2   307  TYR307     -0.2715
     50  CB        30.6510   25.1620   22.0190 C.3   307  TYR307      0.0574
     51  CG        32.0750   24.8550   22.4150 C.ar  307  TYR307     -0.0198
     52  CD1       32.7130   25.5730   23.4340 C.ar  307  TYR307     -0.0009
     53  CD2       32.7890   23.8540   21.7720 C.ar  307  TYR307     -0.0009
     54  CE1       34.0290   25.2930   23.7940 C.ar  307  TYR307      0.0417
     55  CE2       34.1040   23.5680   22.1270 C.ar  307  TYR307      0.0417
     56  CZ        34.7140   24.2870   23.1330 C.ar  307  TYR307      0.1957
     57  OH        36.0130   23.9940   23.4780 O.3   307  TYR307     -0.2866
     58  N         30.4680   25.0600   18.8110 N.am  308  ARG308     -0.1963
     59  CA        31.0670   24.4710   17.6160 C.3   308  ARG308      0.1729
     60  C         31.1530   25.4290   16.4300 C.2   308  ARG308      0.2616
     61  O         31.6240   25.0160   15.3620 O.2   308  ARG308     -0.2715
     62  CB        30.2850   23.2170   17.1960 C.3   308  ARG308      0.0348
     63  CG        28.8160   23.4540   16.8660 C.3   308  ARG308      0.0492
     64  CD        28.1470   22.1710   16.3350 C.3   308  ARG308      0.2205
     65  NE        28.8430   21.7330   15.1270 N.pl3 308  ARG308     -0.0865
     66  CZ        28.6730   22.2840   13.9340 C.cat 308  ARG308      0.5346
     67  NH1       27.8050   23.2810   13.7690 N.pl3 308  ARG308      0.1354
     68  NH2       29.3810   21.8430   12.8970 N.pl3 308  ARG308      0.1354
     69  N         30.7200   26.6810   16.5730 N.am  309  LEU309     -0.1963
     70  CA        30.6490   27.6120   15.4370 C.3   309  LEU309      0.1728
     71  C         32.0010   28.3020   15.2230 C.2   309  LEU309      0.2616
     72  O         32.1770   29.4970   15.4490 O.2   309  LEU309     -0.2715
     73  CB        29.5340   28.6280   15.6590 C.3   309  LEU309      0.0311
     74  CG        28.1250   28.0240   15.7720 C.3   309  LEU309      0.0022
     75  CD1       27.1430   29.1330   16.1300 C.3   309  LEU309      0.0001
     76  CD2       27.7030   27.3170   14.4720 C.3   309  LEU309      0.0001
     77  N         32.9590   27.5120   14.7260 N.am  310  ASP310     -0.1971
     78  CA        34.3380   27.9800   14.5860 C.3   310  ASP310      0.1709
     79  C         34.4600   29.1610   13.6250 C.2   310  ASP310      0.2293
     80  O         35.3120   30.0380   13.8230 O.2   310  ASP310     -0.2864
     81  CB        35.2390   26.8390   14.0990 C.3   310  ASP310      0.1436
     82  CG        35.4620   25.7660   15.1500 C.2   310  ASP310      0.3671
     83  OD1       35.0540   25.9620   16.3120 O.co2 310  ASP310     -0.2456
     84  OD2       36.0430   24.7130   14.8080 O.co2 310  ASP310     -0.2456
     85  N         32.3210   31.5480   13.1200 N.3   312  THR312     -0.1203
     86  CA        31.8730   32.7240   13.8550 C.3   312  THR312      0.1994
     87  C         32.9340   33.1590   14.8560 C.2   312  THR312      0.2617
     88  O         33.2930   34.3420   14.9310 O.2   312  THR312     -0.2717
     89  CB        30.5480   32.3920   14.5540 C.3   312  THR312      0.1784
     90  OG1       29.6210   31.8940   13.5790 O.3   312  THR312     -0.2211
     91  CG2       29.9450   33.6180   15.2510 C.3   312  THR312      0.0376
     92  N         33.4620   32.1950   15.6150 N.am  313  PHE313     -0.1975
     93  CA        34.5320   32.4610   16.5670 C.3   313  PHE313      0.1639
     94  C         35.7010   33.1730   15.9050 C.2   313  PHE313      0.2290
     95  O         36.2640   34.1140   16.4710 O.2   313  PHE313     -0.2864
     96  CB        34.9880   31.1420   17.2000 C.3   313  PHE313      0.0560
     97  CG        36.2370   31.2590   18.0300 C.ar  313  PHE313     -0.0200
     98  CD1       36.1880   31.7660   19.3230 C.ar  313  PHE313     -0.0042
     99  CD2       37.4550   30.8310   17.5270 C.ar  313  PHE313     -0.0042
    100  CE1       37.3380   31.8670   20.0940 C.ar  313  PHE313     -0.0003
    101  CE2       38.6100   30.9320   18.2870 C.ar  313  PHE313     -0.0003
    102  CZ        38.5540   31.4430   19.5700 C.ar  313  PHE313     -0.0000
    103  N         35.3780   37.0130   15.7770 N.3   316  ILE316     -0.1245
    104  CA        35.1330   37.8220   16.9810 C.3   316  ILE316      0.1561
    105  C         36.4130   38.5620   17.3600 C.2   316  ILE316      0.2260
    106  O         37.4920   37.9460   17.3920 O.2   316  ILE316     -0.2867
    107  CB        34.6450   36.9310   18.1320 C.3   316  ILE316      0.0252
    108  CG1       33.2930   36.3070   17.7830 C.3   316  ILE316      0.0019
    109  CG2       34.5410   37.7280   19.4370 C.3   316  ILE316      0.0019
    110  CD1       32.1920   37.3200   17.5890 C.3   316  ILE316      0.0001
    111  N         36.9810   38.0530   22.7190 N.3   321  LYS321     -0.1245
    112  CA        37.3600   36.7080   23.1430 C.3   321  LYS321      0.1561
    113  C         37.9170   36.7320   24.5550 C.2   321  LYS321      0.2260
    114  O         37.6460   35.8300   25.3560 O.2   321  LYS321     -0.2867
    115  CB        38.3870   36.1090   22.1850 C.3   321  LYS321      0.0271
    116  CG        37.8400   35.8170   20.8090 C.3   321  LYS321      0.0035
    117  CD        38.9320   35.2300   19.9230 C.3   321  LYS321      0.0206
    118  CE        38.4000   34.9840   18.5290 C.3   321  LYS321      0.1093
    119  NZ        39.4910   34.6860   17.5800 N.3   321  LYS321     -0.1314
    120  N         35.1410   37.1480   27.2250 N.3   324  LEU324     -0.1231
    121  CA        34.4020   35.9080   27.4390 C.3   324  LEU324      0.1693
    122  C         35.2560   34.8930   28.1900 C.2   324  LEU324      0.2591
    123  O         34.7660   34.2180   29.1020 O.2   324  LEU324     -0.2718
    124  CB        33.9210   35.3340   26.0960 C.3   324  LEU324      0.0284
    125  CG        33.1490   34.0060   26.1690 C.3   324  LEU324      0.0019
    126  CD1       31.8800   34.1500   26.9900 C.3   324  LEU324      0.0001
    127  CD2       32.7960   33.5210   24.7510 C.3   324  LEU324      0.0001
    128  N         36.5410   34.7950   27.8390 N.am  325  GLU325     -0.1979
    129  CA        37.4140   33.8410   28.5150 C.3   325  GLU325      0.1602
    130  C         37.5420   34.1660   29.9970 C.2   325  GLU325      0.2287
    131  O         37.4870   33.2670   30.8440 O.2   325  GLU325     -0.2864
    132  CB        38.7940   33.8240   27.8610 C.3   325  GLU325      0.0415
    133  CG        39.7360   32.8140   28.5090 C.3   325  GLU325      0.1163
    134  CD        41.1040   32.7890   27.8630 C.2   325  GLU325      0.3649
    135  OE1       41.3590   33.6330   26.9780 O.co2 325  GLU325     -0.2457
    136  OE2       41.9230   31.9230   28.2390 O.co2 325  GLU325     -0.2457
    137  N         34.4130   33.1200   31.6980 N.3   328  HIS328     -0.1241
    138  CA        34.3900   31.6750   31.9010 C.3   328  HIS328      0.1621
    139  C         35.3570   31.2500   33.0030 C.2   328  HIS328      0.2264
    140  O         35.0710   30.3040   33.7490 O.2   328  HIS328     -0.2867
    141  CB        34.7220   30.9400   30.5960 C.3   328  HIS328      0.0745
    142  CG        34.6770   29.4520   30.7400 C.ar  328  HIS328      0.0817
    143  ND1       35.7920   28.7020   31.0490 N.ar  328  HIS328     -0.2268
    144  CD2       33.6410   28.5820   30.6830 C.ar  328  HIS328      0.1154
    145  CE1       35.4530   27.4290   31.1370 C.ar  328  HIS328      0.1986
    146  NE2       34.1520   27.3280   30.9210 N.ar  328  HIS328     -0.2212
    147  N         35.7510   28.1840   36.5800 N.3   332  GLU332     -0.1245
    148  CA        36.7420   27.1140   36.6390 C.3   332  GLU332      0.1567
    149  C         37.0810   26.7500   38.0820 C.2   332  GLU332      0.2260
    150  O         36.8800   27.5320   39.0150 O.2   332  GLU332     -0.2867
    151  CB        38.0050   27.5280   35.8820 C.3   332  GLU332      0.0388
    152  CG        37.7740   27.5600   34.3610 C.3   332  GLU332      0.1160
    153  CD        38.9420   28.1470   33.5710 C.2   332  GLU332      0.3649
    154  OE1       39.9980   28.4580   34.1680 O.co2 332  GLU332     -0.2457
    155  OE2       38.7900   28.3060   32.3380 O.co2 332  GLU332     -0.2457
@<TRIPOS>BOND
     1    68    66    1
     2    85    86    1
     3    90    89    1
     4    79    80    2
     5    79    78    1
     6    67    66    1
     7    86    89    1
     8    86    87    1
     9    66    65    2
    10    81    78    1
    11    81    82    1
    12    76    74    1
    13    89    91    1
    14    78    77    1
    15    77    71   am
    16    84    82   ar
    17    87    88    2
    18    87    92   am
    19    65    64    1
    20    82    83   ar
    21    71    70    1
    22    71    72    2
    23    61    60    2
    24    70    73    1
    25    70    69    1
    26    92    93    1
    27    73    74    1
    28    74    75    1
    29   103   104    1
    30    94    95    2
    31    94    93    1
    32    64    63    1
    33    60    69   am
    34    60    59    1
    35    93    96    1
    36    63    62    1
    37   104   105    1
    38   104   107    1
    39    62    59    1
    40    96    97    1
    41   105   106    2
    42    99    97   ar
    43    99   101   ar
    44   119   118    1
    45   110   108    1
    46    59    58    1
    47   108   107    1
    48    97    98   ar
    49     1     2    1
    50   107   109    1
    51     7     5    1
    52   101   102   ar
    53   118   117    1
    54     5     2    1
    55     5     6    1
    56    58    48   am
    57    42    41    2
    58     2     3    1
    59    98   100   ar
    60    49    48    2
    61   102   100   ar
    62    48    47    1
    63     3     4    2
    64    41    40    1
    65    41    46   am
    66    40    39    1
    67    40    43    1
    68   117   116    1
    69    44    43    1
    70    46    47    1
    71    45    43    1
    72   116   115    1
    73    47    50    1
    74    53    55   ar
    75    53    51   ar
    76    30    29    1
    77    50    51    1
    78    55    56   ar
    79   115   112    1
    80    51    52   ar
    81    15    13    1
    82   111   112    1
    83    29    28    1
    84    56    57    1
    85    56    54   ar
    86   112   113    1
    87    52    54   ar
    88    13    12    1
    89    26    25    2
    90     8     9    1
    91    12     9    1
    92    12    14    1
    93   113   114    2
    94    24    25    1
    95    24    27    1
    96    24    23    1
    97    28    27    1
    98     9    10    1
    99    25    31   am
   100   127   125    1
   101    10    11    2
   102    33    34    2
   103    33    32    1
   104    31    32    1
   105    32    35    1
   106   124   125    1
   107   124   121    1
   108   125   126    1
   109    37    36    2
   110   135   134   ar
   111   120   121    1
   112    35    36    1
   113   121   122    1
   114    36    38   am
   115   128   122   am
   116   128   129    1
   117   132   133    1
   118   132   129    1
   119   134   136   ar
   120   134   133    1
   121   122   123    2
   122    19    18    2
   123   129   130    1
   124    18    17    1
   125    17    16    1
   126    17    20    1
   127   130   131    2
   128   141   142    1
   129   141   138    1
   130   144   142   ar
   131   144   146   ar
   132   142   143   ar
   133    20    21    1
   134    20    22    1
   135   146   145   ar
   136   143   145   ar
   137   137   138    1
   138   138   139    1
   139   155   153   ar
   140   139   140    2
   141   153   154   ar
   142   153   152    1
   143   152   151    1
   144   151   148    1
   145   147   148    1
   146   148   149    1
   147   149   150    2
