@<TRIPOS>MOLECULE
tmp/6d5gB00.pdb
 144 135 0 0 0
SMALL
GASTEIGER

@<TRIPOS>ATOM
      1  N         26.6190   37.6750   18.0390 N.3   275  VAL275     -0.1245
      2  CA        27.4990   37.2020   19.1070 C.3   275  VAL275      0.1561
      3  C         28.2400   38.3720   19.7460 C.2   275  VAL275      0.2260
      4  O         28.3450   38.4650   20.9760 O.2   275  VAL275     -0.2867
      5  CB        28.4690   36.1370   18.5670 C.3   275  VAL275      0.0252
      6  CG1       29.5760   35.8400   19.5910 C.3   275  VAL275      0.0019
      7  CG2       27.7120   34.8570   18.2020 C.3   275  VAL275      0.0019
      8  N         28.2320   39.5350   23.7360 N.3   279  ILE279     -0.1245
      9  CA        29.4020   39.7130   24.5920 C.3   279  ILE279      0.1561
     10  C         29.4670   41.1400   25.1480 C.2   279  ILE279      0.2260
     11  O         29.9680   41.3640   26.2640 O.2   279  ILE279     -0.2867
     12  CB        30.6750   39.3240   23.8160 C.3   279  ILE279      0.0252
     13  CG1       30.6420   37.8320   23.4730 C.3   279  ILE279      0.0019
     14  CG2       31.9270   39.6460   24.6350 C.3   279  ILE279      0.0019
     15  CD1       31.7950   37.3640   22.5910 C.3   279  ILE279      0.0001
     16  N         27.6710   33.0000   29.4800 N.3   298  VAL298     -0.1245
     17  CA        28.6880   31.9560   29.4040 C.3   298  VAL298      0.1561
     18  C         28.0560   30.6130   29.0500 C.2   298  VAL298      0.2260
     19  O         28.5600   29.8740   28.1990 O.2   298  VAL298     -0.2867
     20  CB        29.4660   31.8790   30.7290 C.3   298  VAL298      0.0252
     21  CG1       30.3400   30.6190   30.7660 C.3   298  VAL298      0.0019
     22  CG2       30.3050   33.1580   30.9270 C.3   298  VAL298      0.0019
     23  N         27.2510   30.5470   25.3610 N.3   301  MET301     -0.1230
     24  CA        28.4120   30.4490   24.4830 C.3   301  MET301      0.1702
     25  C         29.1110   29.1060   24.6050 C.2   301  MET301      0.2592
     26  O         29.7870   28.7000   23.6630 O.2   301  MET301     -0.2718
     27  CB        29.4020   31.5820   24.7710 C.3   301  MET301      0.0401
     28  CG        28.8070   32.9720   24.5890 C.3   301  MET301      0.0596
     29  SD        28.1280   33.2140   22.9240 S.3   301  MET301     -0.1393
     30  CE        29.5820   32.8710   21.9370 C.3   301  MET301      0.0692
     31  N         28.9430   28.3980   25.7220 N.am  302  ASN302     -0.1974
     32  CA        29.5220   27.0710   25.8930 C.3   302  ASN302      0.1688
     33  C         28.5570   25.9460   25.5170 C.2   302  ASN302      0.2292
     34  O         28.9310   24.7710   25.5920 O.2   302  ASN302     -0.2864
     35  CB        30.0110   26.8960   27.3400 C.3   302  ASN302      0.1181
     36  CG        31.4670   26.4650   27.4150 C.2   302  ASN302      0.2629
     37  OD1       32.1580   26.4070   26.4070 O.2   302  ASN302     -0.2716
     38  ND2       31.9330   26.1540   28.6090 N.am  302  ASN302     -0.0877
     39  N         26.2590   26.4780   20.0180 N.3   306  VAL306     -0.1231
     40  CA        27.0510   27.6880   19.7950 C.3   306  VAL306      0.1692
     41  C         28.5410   27.3800   19.7720 C.2   306  VAL306      0.2592
     42  O         29.2820   27.9110   18.9380 O.2   306  VAL306     -0.2718
     43  CB        26.7290   28.7570   20.8690 C.3   306  VAL306      0.0266
     44  CG1       27.5910   30.0050   20.6490 C.3   306  VAL306      0.0020
     45  CG2       25.2580   29.1050   20.8570 C.3   306  VAL306      0.0020
     46  N         28.9840   26.5350   20.7030 N.am  307  TYR307     -0.1976
     47  CA        30.4080   26.2640   20.8810 C.3   307  TYR307      0.1639
     48  C         31.0910   25.8550   19.5770 C.2   307  TYR307      0.2290
     49  O         32.2570   26.1850   19.3460 O.2   307  TYR307     -0.2864
     50  CB        30.5780   25.1550   21.9160 C.3   307  TYR307      0.0560
     51  CG        32.0000   24.8110   22.2530 C.ar  307  TYR307     -0.0198
     52  CD1       32.6890   25.4970   23.2560 C.ar  307  TYR307     -0.0009
     53  CD2       32.6430   23.7780   21.6030 C.ar  307  TYR307     -0.0009
     54  CE1       33.9940   25.1680   23.5700 C.ar  307  TYR307      0.0417
     55  CE2       33.9390   23.4400   21.9100 C.ar  307  TYR307      0.0417
     56  CZ        34.6070   24.1300   22.8860 C.ar  307  TYR307      0.1957
     57  OH        35.8960   23.7660   23.1580 O.3   307  TYR307     -0.2866
     58  N         30.6360   26.7340   16.4800 N.3   309  LEU309     -0.1231
     59  CA        30.5890   27.6710   15.3490 C.3   309  LEU309      0.1693
     60  C         31.9500   28.3490   15.1450 C.2   309  LEU309      0.2592
     61  O         32.1490   29.5440   15.3890 O.2   309  LEU309     -0.2718
     62  CB        29.4790   28.6910   15.5590 C.3   309  LEU309      0.0284
     63  CG        28.0670   28.1130   15.7130 C.3   309  LEU309      0.0019
     64  CD1       27.0560   29.2090   16.0060 C.3   309  LEU309      0.0001
     65  CD2       27.6660   27.3410   14.4380 C.3   309  LEU309      0.0001
     66  N         32.8940   27.5490   14.6470 N.am  310  ASP310     -0.1974
     67  CA        34.2770   28.0070   14.5170 C.3   310  ASP310      0.1709
     68  C         34.4110   29.1690   13.5410 C.2   310  ASP310      0.2293
     69  O         35.2570   30.0430   13.7310 O.2   310  ASP310     -0.2864
     70  CB        35.1860   26.8630   14.0830 C.3   310  ASP310      0.1436
     71  CG        35.3940   25.8390   15.1740 C.2   310  ASP310      0.3671
     72  OD1       34.9770   26.0860   16.3210 O.co2 310  ASP310     -0.2456
     73  OD2       35.9860   24.7830   14.8870 O.co2 310  ASP310     -0.2456
     74  N         32.2180   31.5280   13.0250 N.3   312  THR312     -0.1203
     75  CA        31.7770   32.6990   13.7740 C.3   312  THR312      0.1994
     76  C         32.8430   33.1260   14.7770 C.2   312  THR312      0.2617
     77  O         33.1930   34.3060   14.8590 O.2   312  THR312     -0.2717
     78  CB        30.4490   32.3700   14.4720 C.3   312  THR312      0.1784
     79  OG1       29.5180   31.8650   13.5050 O.3   312  THR312     -0.2211
     80  CG2       29.8530   33.6000   15.1650 C.3   312  THR312      0.0376
     81  N         33.4070   32.1580   15.5030 N.am  313  PHE313     -0.1975
     82  CA        34.4620   32.4380   16.4740 C.3   313  PHE313      0.1639
     83  C         35.6310   33.1600   15.8300 C.2   313  PHE313      0.2290
     84  O         36.1700   34.1090   16.4080 O.2   313  PHE313     -0.2864
     85  CB        34.9210   31.1290   17.1180 C.3   313  PHE313      0.0560
     86  CG        36.1490   31.2530   17.9750 C.ar  313  PHE313     -0.0200
     87  CD1       36.0690   31.7440   19.2740 C.ar  313  PHE313     -0.0042
     88  CD2       37.3850   30.8400   17.4940 C.ar  313  PHE313     -0.0042
     89  CE1       37.2010   31.8420   20.0640 C.ar  313  PHE313     -0.0003
     90  CE2       38.5150   30.9370   18.2780 C.ar  313  PHE313     -0.0003
     91  CZ        38.4240   31.4300   19.5650 C.ar  313  PHE313     -0.0000
     92  N         35.2750   37.0070   15.7310 N.3   316  ILE316     -0.1245
     93  CA        35.0200   37.8230   16.9270 C.3   316  ILE316      0.1561
     94  C         36.2970   38.5770   17.2970 C.2   316  ILE316      0.2260
     95  O         37.3740   37.9700   17.3300 O.2   316  ILE316     -0.2867
     96  CB        34.5420   36.9340   18.0870 C.3   316  ILE316      0.0252
     97  CG1       33.2280   36.2290   17.7150 C.3   316  ILE316      0.0019
     98  CG2       34.3830   37.7560   19.3730 C.3   316  ILE316      0.0019
     99  CD1       32.0910   37.1640   17.4190 C.3   316  ILE316      0.0001
    100  N         36.8350   38.0860   22.6700 N.3   321  LYS321     -0.1245
    101  CA        37.2450   36.7550   23.1050 C.3   321  LYS321      0.1561
    102  C         37.8070   36.7870   24.5160 C.2   321  LYS321      0.2260
    103  O         37.5340   35.8880   25.3160 O.2   321  LYS321     -0.2867
    104  CB        38.2810   36.1680   22.1440 C.3   321  LYS321      0.0271
    105  CG        37.7300   35.8570   20.7570 C.3   321  LYS321      0.0035
    106  CD        38.8220   35.2920   19.8700 C.3   321  LYS321      0.0206
    107  CE        38.2380   34.9290   18.5280 C.3   321  LYS321      0.1093
    108  NZ        39.2520   34.8650   17.4620 N.3   321  LYS321     -0.1314
    109  N         35.0060   37.1950   27.1440 N.3   324  LEU324     -0.1231
    110  CA        34.2870   35.9480   27.3610 C.3   324  LEU324      0.1693
    111  C         35.1500   34.9520   28.1250 C.2   324  LEU324      0.2591
    112  O         34.6580   34.2480   29.0150 O.2   324  LEU324     -0.2718
    113  CB        33.8290   35.3620   26.0220 C.3   324  LEU324      0.0284
    114  CG        33.0900   34.0260   26.1170 C.3   324  LEU324      0.0019
    115  CD1       31.8300   34.1820   26.9590 C.3   324  LEU324      0.0001
    116  CD2       32.7300   33.5160   24.7230 C.3   324  LEU324      0.0001
    117  N         36.4420   34.8920   27.7960 N.am  325  GLU325     -0.1979
    118  CA        37.3530   33.9910   28.4930 C.3   325  GLU325      0.1602
    119  C         37.4160   34.3130   29.9830 C.2   325  GLU325      0.2287
    120  O         37.3190   33.4180   30.8270 O.2   325  GLU325     -0.2864
    121  CB        38.7450   34.0750   27.8630 C.3   325  GLU325      0.0415
    122  CG        39.8310   33.3470   28.6400 C.3   325  GLU325      0.1163
    123  CD        39.6180   31.8470   28.6890 C.2   325  GLU325      0.3649
    124  OE1       38.9300   31.3120   27.7980 O.co2 325  GLU325     -0.2457
    125  OE2       40.1360   31.1980   29.6240 O.co2 325  GLU325     -0.2457
    126  N         34.2600   33.1770   31.6080 N.3   328  HIS328     -0.1241
    127  CA        34.2570   31.7320   31.8000 C.3   328  HIS328      0.1621
    128  C         35.2070   31.3000   32.9120 C.2   328  HIS328      0.2264
    129  O         34.9330   30.3260   33.6230 O.2   328  HIS328     -0.2867
    130  CB        34.6370   31.0030   30.5020 C.3   328  HIS328      0.0745
    131  CG        34.5570   29.5150   30.6360 C.ar  328  HIS328      0.0817
    132  ND1       35.6140   28.7530   31.0770 N.ar  328  HIS328     -0.2268
    133  CD2       33.5200   28.6610   30.4740 C.ar  328  HIS328      0.1154
    134  CE1       35.2460   27.4860   31.1410 C.ar  328  HIS328      0.1986
    135  NE2       33.9790   27.4030   30.7810 N.ar  328  HIS328     -0.2212
    136  N         35.6220   28.2620   36.4920 N.3   332  GLU332     -0.1245
    137  CA        36.6080   27.1920   36.5200 C.3   332  GLU332      0.1567
    138  C         36.9590   26.8040   37.9550 C.2   332  GLU332      0.2260
    139  O         36.7860   27.5780   38.8950 O.2   332  GLU332     -0.2867
    140  CB        37.8600   27.6180   35.7490 C.3   332  GLU332      0.0388
    141  CG        37.6050   27.6540   34.2410 C.3   332  GLU332      0.1160
    142  CD        38.7730   28.2160   33.4440 C.2   332  GLU332      0.3649
    143  OE1       39.8800   28.3590   34.0030 O.co2 332  GLU332     -0.2457
    144  OE2       38.5710   28.5250   32.2510 O.co2 332  GLU332     -0.2457
@<TRIPOS>BOND
     1    74    75    1
     2    79    78    1
     3    68    69    2
     4    68    67    1
     5    75    78    1
     6    75    76    1
     7    70    67    1
     8    70    71    1
     9    65    63    1
    10    78    80    1
    11    67    66    1
    12    66    60   am
    13    76    77    2
    14    76    81   am
    15    73    71   ar
    16    60    59    1
    17    60    61    2
    18    71    72   ar
    19    59    62    1
    20    59    58    1
    21    81    82    1
    22    62    63    1
    23    63    64    1
    24    92    93    1
    25    83    84    2
    26    83    82    1
    27    82    85    1
    28    93    94    1
    29    93    96    1
    30    85    86    1
    31    94    95    2
    32    99    97    1
    33   108   107    1
    34    88    86   ar
    35    88    90   ar
    36    97    96    1
    37    86    87   ar
    38     1     2    1
    39    96    98    1
    40     7     5    1
    41    90    91   ar
    42   107   106    1
    43     5     2    1
    44     5     6    1
    45    42    41    2
    46     2     3    1
    47    87    89   ar
    48    49    48    2
    49    91    89   ar
    50    48    47    1
    51     3     4    2
    52    41    40    1
    53    41    46   am
    54    40    39    1
    55    40    43    1
    56   106   105    1
    57    44    43    1
    58    46    47    1
    59   105   104    1
    60    45    43    1
    61    47    50    1
    62    53    55   ar
    63    53    51   ar
    64    55    56   ar
    65    50    51    1
    66    30    29    1
    67   104   101    1
    68    51    52   ar
    69    15    13    1
    70   100   101    1
    71    56    57    1
    72    56    54   ar
    73    29    28    1
    74   101   102    1
    75    52    54   ar
    76    13    12    1
    77    26    25    2
    78     8     9    1
    79    12     9    1
    80    12    14    1
    81    24    25    1
    82    24    27    1
    83    24    23    1
    84   102   103    2
    85    28    27    1
    86     9    10    1
    87    25    31   am
    88   116   114    1
    89    10    11    2
    90    33    34    2
    91    33    32    1
    92    31    32    1
    93    32    35    1
    94   113   114    1
    95   113   110    1
    96   114   115    1
    97    37    36    2
    98   109   110    1
    99    35    36    1
   100   110   111    1
   101    36    38   am
   102   117   111   am
   103   117   118    1
   104   124   123   ar
   105   121   118    1
   106   121   122    1
   107   111   112    2
   108    19    18    2
   109   118   119    1
   110   122   123    1
   111   123   125   ar
   112    18    17    1
   113    17    16    1
   114    17    20    1
   115   119   120    2
   116   133   131   ar
   117   133   135   ar
   118   130   131    1
   119   130   127    1
   120   131   132   ar
   121    20    21    1
   122    20    22    1
   123   135   134   ar
   124   132   134   ar
   125   126   127    1
   126   127   128    1
   127   144   142   ar
   128   128   129    2
   129   142   143   ar
   130   142   141    1
   131   141   140    1
   132   140   137    1
   133   136   137    1
   134   137   138    1
   135   138   139    2
