@<TRIPOS>MOLECULE
tmp/6d5kC01.pdb
 105 100 0 0 0
SMALL
GASTEIGER

@<TRIPOS>ATOM
      1  N        -18.9870   57.5580  -20.5890 N.3     6  SER6       -0.1202
      2  CA       -18.2360   57.3450  -21.8140 C.3     6  SER6        0.2020
      3  C        -18.3870   55.9220  -22.3410 C.2     6  SER6        0.2619
      4  O        -18.7180   54.9970  -21.6110 O.2     6  SER6       -0.2717
      5  CB       -16.7560   57.6670  -21.5840 C.3     6  SER6        0.2103
      6  OG       -16.6110   58.9890  -21.0850 O.3     6  SER6       -0.2182
      7  N        -18.1800   55.7780  -23.6420 N.am    7  THR7       -0.1938
      8  CA       -18.0020   54.5170  -24.3400 C.3     7  THR7        0.2028
      9  C        -16.5220   54.1990  -24.3990 C.2     7  THR7        0.2642
     10  O        -15.6800   55.0820  -24.2460 O.2     7  THR7       -0.2714
     11  CB       -18.5000   54.6140  -25.7800 C.3     7  THR7        0.1808
     12  OG1      -17.5940   55.4520  -26.5240 O.3     7  THR7       -0.2208
     13  CG2      -19.8790   55.2260  -25.8480 C.3     7  THR7        0.0379
     14  N        -16.2000   52.9460  -24.7310 N.am    8  PHE8       -0.1973
     15  CA       -14.7960   52.5300  -24.7720 C.3     8  PHE8        0.1639
     16  C        -13.9710   53.2950  -25.8080 C.2     8  PHE8        0.2290
     17  O        -12.7400   53.2980  -25.7200 O.2     8  PHE8       -0.2864
     18  CB       -14.6980   51.0240  -25.0390 C.3     8  PHE8        0.0560
     19  CG       -13.3060   50.4750  -24.9040 C.ar    8  PHE8       -0.0200
     20  CD1      -12.6230   50.5610  -23.7050 C.ar    8  PHE8       -0.0042
     21  CD2      -12.6760   49.8770  -25.9780 C.ar    8  PHE8       -0.0042
     22  CE1      -11.3280   50.0520  -23.5830 C.ar    8  PHE8       -0.0003
     23  CE2      -11.3940   49.3700  -25.8660 C.ar    8  PHE8       -0.0003
     24  CZ       -10.7190   49.4560  -24.6710 C.ar    8  PHE8       -0.0000
     25  N        -25.9520   52.4320  -23.2670 N.3    20  PHE20      -0.1241
     26  CA       -25.9500   52.2270  -21.8190 C.3    20  PHE20       0.1605
     27  C        -27.1200   51.3300  -21.3680 C.2    20  PHE20       0.2264
     28  O        -26.9500   50.4720  -20.4960 O.2    20  PHE20      -0.2867
     29  CB       -25.9370   53.5920  -21.1320 C.3    20  PHE20       0.0534
     30  CG       -24.6760   54.3930  -21.4000 C.ar   20  PHE20      -0.0203
     31  CD1      -24.7490   55.7540  -21.6880 C.ar   20  PHE20      -0.0042
     32  CD2      -23.4290   53.7880  -21.3950 C.ar   20  PHE20      -0.0042
     33  CE1      -23.6030   56.5030  -21.9530 C.ar   20  PHE20      -0.0003
     34  CE2      -22.2710   54.5370  -21.6650 C.ar   20  PHE20      -0.0003
     35  CZ       -22.3650   55.8960  -21.9370 C.ar   20  PHE20      -0.0000
     36  N        -25.8290   47.7530  -22.4950 N.3    23  VAL23      -0.1231
     37  CA       -24.8050   47.1070  -21.7050 C.3    23  VAL23       0.1692
     38  C        -25.3320   46.8660  -20.2920 C.2    23  VAL23       0.2592
     39  O        -25.0500   45.8210  -19.7060 O.2    23  VAL23      -0.2718
     40  CB       -23.5100   47.9350  -21.7800 C.3    23  VAL23       0.0266
     41  CG1      -23.5980   49.1680  -20.9370 C.3    23  VAL23       0.0020
     42  CG2      -22.3200   47.0890  -21.4080 C.3    23  VAL23       0.0020
     43  N        -26.1770   47.7630  -19.7700 N.am   24  GLY24      -0.1957
     44  CA       -26.7790   47.5490  -18.4700 C.3    24  GLY24       0.1869
     45  C        -27.7270   46.3680  -18.4160 C.2    24  GLY24       0.2309
     46  O        -27.7900   45.6630  -17.4090 O.2    24  GLY24      -0.2863
     47  N        -27.4370   43.8030  -20.4080 N.3    26  THR26      -0.1203
     48  CA       -26.5410   42.6620  -20.5030 C.3    26  THR26       0.1994
     49  C        -25.9920   42.3040  -19.1210 C.2    26  THR26       0.2617
     50  O        -25.9760   41.1260  -18.7350 O.2    26  THR26      -0.2717
     51  CB       -25.4490   42.9980  -21.5330 C.3    26  THR26       0.1784
     52  OG1      -25.7110   42.2690  -22.7470 O.3    26  THR26      -0.2211
     53  CG2      -24.0270   42.7300  -21.0120 C.3    26  THR26       0.0376
     54  N        -25.6260   43.3320  -18.3370 N.am   27  ASP27      -0.1973
     55  CA       -25.2030   43.1860  -16.9410 C.3    27  ASP27       0.1709
     56  C        -26.2940   42.5400  -16.0820 C.2    27  ASP27       0.2293
     57  O        -26.0280   41.6100  -15.3090 O.2    27  ASP27      -0.2864
     58  CB       -24.8290   44.5840  -16.4080 C.3    27  ASP27       0.1436
     59  CG       -24.2770   44.5800  -14.9780 C.2    27  ASP27       0.3671
     60  OD1      -23.9930   45.6850  -14.4600 O.co2  27  ASP27      -0.2456
     61  OD2      -24.0550   43.5040  -14.3850 O.co2  27  ASP27      -0.2456
     62  N        -19.7190   39.1670  -20.7040 N.3    59  GLN59      -0.1231
     63  CA       -18.7340   40.2400  -20.5350 C.3    59  GLN59       0.1698
     64  C        -18.1030   40.6200  -21.8800 C.2    59  GLN59       0.2592
     65  O        -17.8140   41.8030  -22.1400 O.2    59  GLN59      -0.2718
     66  CB       -17.6880   39.8250  -19.5010 C.3    59  GLN59       0.0381
     67  CG       -16.5160   40.7300  -19.3890 C.3    59  GLN59       0.0905
     68  CD       -15.6170   40.3580  -18.2400 C.2    59  GLN59       0.2608
     69  OE1      -16.0770   39.8060  -17.2350 O.2    59  GLN59      -0.2717
     70  NE2      -14.3170   40.6380  -18.3820 N.am   59  GLN59      -0.0878
     71  N        -17.9240   39.6360  -22.7660 N.am   60  ASP60      -0.1974
     72  CA       -17.4130   39.9460  -24.0990 C.3    60  ASP60       0.1709
     73  C        -18.4360   40.7380  -24.9220 C.2    60  ASP60       0.2293
     74  O        -18.0740   41.6940  -25.6290 O.2    60  ASP60      -0.2864
     75  CB       -16.9580   38.6620  -24.7930 C.3    60  ASP60       0.1436
     76  CG       -15.5340   38.2520  -24.3820 C.2    60  ASP60       0.3671
     77  OD1      -14.7410   39.1470  -23.9960 O.co2  60  ASP60      -0.2456
     78  OD2      -15.2090   37.0430  -24.4090 O.co2  60  ASP60      -0.2456
     79  N        -20.5160   42.6900  -23.6610 N.3    62  GLY62      -0.1210
     80  CA       -20.4950   44.0060  -23.0700 C.3    62  GLY62       0.1956
     81  C        -19.4240   44.8730  -23.6920 C.2    62  GLY62       0.2612
     82  O        -19.6800   46.0200  -24.0630 O.2    62  GLY62      -0.2717
     83  N        -18.2300   44.3090  -23.8870 N.am   63  SER63      -0.1952
     84  CA       -17.1920   45.0820  -24.5640 C.3    63  SER63       0.1924
     85  C        -17.5990   45.4160  -25.9930 C.2    63  SER63       0.2314
     86  O        -17.4080   46.5480  -26.4510 O.2    63  SER63      -0.2863
     87  CB       -15.8590   44.3430  -24.5370 C.3    63  SER63       0.2116
     88  OG       -15.3420   44.2530  -23.2150 O.3    63  SER63      -0.2180
     89  N        -19.9580   48.3340  -26.1230 N.3    66  ALA66      -0.1245
     90  CA       -19.3390   49.5580  -25.6610 C.3    66  ALA66       0.1562
     91  C        -18.3200   50.1000  -26.6510 C.2    66  ALA66       0.2260
     92  O        -17.6420   51.0850  -26.3340 O.2    66  ALA66      -0.2867
     93  CB       -18.6610   49.3080  -24.3230 C.3    66  ALA66       0.0290
     94  N        -12.7310   43.8570  -30.7870 N.3    79  TYR79      -0.1241
     95  CA       -13.9550   43.9620  -29.9990 C.3    79  TYR79       0.1605
     96  C        -15.1950   44.1730  -30.8490 C.2    79  TYR79       0.2264
     97  O        -16.2590   43.6460  -30.5060 O.2    79  TYR79      -0.2867
     98  CB       -13.8460   45.1030  -28.9730 C.3    79  TYR79       0.0534
     99  CG       -12.6450   44.9380  -28.0880 C.ar   79  TYR79      -0.0201
    100  CD1      -11.7790   45.9830  -27.8700 C.ar   79  TYR79      -0.0009
    101  CD2      -12.3700   43.7180  -27.4750 C.ar   79  TYR79      -0.0009
    102  CE1      -10.6590   45.8290  -27.0720 C.ar   79  TYR79       0.0417
    103  CE2      -11.2520   43.5470  -26.6730 C.ar   79  TYR79       0.0417
    104  CZ       -10.3970   44.6120  -26.4770 C.ar   79  TYR79       0.1957
    105  OH        -9.2740   44.4750  -25.6870 O.3    79  TYR79      -0.2866
@<TRIPOS>BOND
     1    96    97    2
     2    96    95    1
     3    94    95    1
     4    95    98    1
     5    98    99    1
     6    99   100   ar
     7    99   101   ar
     8   100   102   ar
     9   101   103   ar
    10   102   104   ar
    11   103   104   ar
    12    91    92    2
    13    91    90    1
    14    12    11    1
    15   104   105    1
    16    86    85    2
    17    89    90    1
    18    85    84    1
    19    21    23   ar
    20    21    19   ar
    21    23    24   ar
    22    13    11    1
    23    16    17    2
    24    16    15    1
    25    11     8    1
    26    90    93    1
    27    74    73    2
    28    18    19    1
    29    18    15    1
    30    73    72    1
    31    19    20   ar
    32    75    76    1
    33    75    72    1
    34    15    14    1
    35    14     9   am
    36    24    22   ar
    37    84    87    1
    38    84    83    1
    39    87    88    1
    40    78    76   ar
    41     9     8    1
    42     9    10    2
    43    76    77   ar
    44     8     7    1
    45    72    71    1
    46    82    81    2
    47    83    81   am
    48    20    22   ar
    49    81    80    1
    50    79    80    1
    51     7     3   am
    52    25    26    1
    53    71    64   am
    54    52    51    1
    55    36    37    1
    56     3     2    1
    57     3     4    2
    58    65    64    2
    59    33    35   ar
    60    33    31   ar
    61    35    34   ar
    62    64    63    1
    63    26    27    1
    64    26    29    1
    65     2     5    1
    66     2     1    1
    67    40    37    1
    68    40    42    1
    69    40    41    1
    70    37    38    1
    71    31    30   ar
    72    34    32   ar
    73     5     6    1
    74    51    53    1
    75    51    48    1
    76    30    32   ar
    77    30    29    1
    78    27    28    2
    79    62    63    1
    80    63    66    1
    81    48    47    1
    82    48    49    1
    83    38    43   am
    84    38    39    2
    85    43    44    1
    86    66    67    1
    87    67    68    1
    88    49    50    2
    89    49    54   am
    90    44    45    1
    91    45    46    2
    92    70    68   am
    93    54    55    1
    94    68    69    2
    95    55    58    1
    96    55    56    1
    97    58    59    1
    98    56    57    2
    99    59    60   ar
   100    59    61   ar
