@<TRIPOS>MOLECULE
tmp/6d5kA01.pdb
 122 117 0 0 0
SMALL
GASTEIGER

@<TRIPOS>ATOM
      1  N         -8.9920   45.5180   -6.4650 N.3    79  LEU79      -0.1231
      2  CA        -9.5980   44.9220   -7.6480 C.3    79  LEU79       0.1693
      3  C         -9.2120   45.7590   -8.8480 C.2    79  LEU79       0.2593
      4  O         -9.2920   46.9890   -8.7990 O.2    79  LEU79      -0.2718
      5  CB       -11.1170   44.8380   -7.5650 C.3    79  LEU79       0.0284
      6  CG       -11.7410   44.1020   -8.7580 C.3    79  LEU79       0.0019
      7  CD1      -11.1000   42.7490   -8.9680 C.3    79  LEU79       0.0001
      8  CD2      -13.2420   43.9350   -8.5920 C.3    79  LEU79       0.0001
      9  N         -8.8230   45.1020   -9.9240 N.am   80  THR80      -0.1939
     10  CA        -8.3390   45.8150  -11.0850 C.3    80  THR80       0.2028
     11  C         -8.9990   45.3640  -12.3940 C.2    80  THR80       0.2642
     12  O         -8.7060   45.9380  -13.4500 O.2    80  THR80      -0.2714
     13  CB        -6.8230   45.6390  -11.1590 C.3    80  THR80       0.1808
     14  OG1       -6.3160   46.3800  -12.2590 O.3    80  THR80      -0.2208
     15  CG2       -6.4910   44.1620  -11.3200 C.3    80  THR80       0.0379
     16  N         -9.9130   44.3890  -12.3440 N.am   81  ALA81      -0.1963
     17  CA       -10.5420   43.7960  -13.5150 C.3    81  ALA81       0.1728
     18  C        -12.0060   43.5240  -13.2260 C.2    81  ALA81       0.2616
     19  O        -12.4770   43.6960  -12.1100 O.2    81  ALA81      -0.2715
     20  CB        -9.8480   42.4960  -13.9200 C.3    81  ALA81       0.0334
     21  N        -12.7240   43.0730  -14.2440 N.am   82  PHE82      -0.1960
     22  CA       -14.1360   42.7410  -14.1140 C.3    82  PHE82       0.1771
     23  C        -14.3050   41.3900  -13.4380 C.2    82  PHE82       0.2619
     24  O        -13.6860   40.4060  -13.8530 O.2    82  PHE82      -0.2715
     25  CB       -14.7900   42.6570  -15.4840 C.3    82  PHE82       0.0574
     26  CG       -15.0230   43.9640  -16.1430 C.ar   82  PHE82      -0.0200
     27  CD1      -15.9010   44.8900  -15.5940 C.ar   82  PHE82      -0.0042
     28  CD2      -14.4280   44.2390  -17.3720 C.ar   82  PHE82      -0.0042
     29  CE1      -16.1550   46.1020  -16.2370 C.ar   82  PHE82      -0.0003
     30  CE2      -14.6680   45.4310  -18.0210 C.ar   82  PHE82      -0.0003
     31  CZ       -15.5350   46.3700  -17.4510 C.ar   82  PHE82      -0.0000
     32  N        -15.1700   41.3270  -12.4420 N.am   83  ILE83      -0.1977
     33  CA       -15.4520   40.0690  -11.7560 C.3    83  ILE83       0.1596
     34  C        -16.7210   39.4670  -12.3460 C.2    83  ILE83       0.2287
     35  O        -17.6360   40.1920  -12.7650 O.2    83  ILE83      -0.2864
     36  CB       -15.5870   40.2360  -10.2240 C.3    83  ILE83       0.0276
     37  CG1      -16.5930   41.3190   -9.9160 C.3    83  ILE83       0.0022
     38  CG2      -14.2670   40.6160   -9.5940 C.3    83  ILE83       0.0022
     39  CD1      -17.1850   41.1780   -8.5810 C.3    83  ILE83       0.0001
     40  N        -20.2640   37.8940  -11.6890 N.3    85  PRO85      -0.2116
     41  CA       -21.1830   37.9520  -10.5360 C.3    85  PRO85       0.1372
     42  C        -21.3510   36.5980   -9.8640 C.2    85  PRO85       0.2244
     43  O        -21.7870   35.6300  -10.4950 O.2    85  PRO85      -0.2868
     44  CB       -22.4980   38.4450  -11.1590 C.3    85  PRO85       0.0268
     45  CG       -22.0950   39.0890  -12.4260 C.3    85  PRO85       0.0207
     46  CD       -20.9060   38.3390  -12.9290 C.3    85  PRO85       0.0892
     47  N        -25.4910   41.7300   -6.5590 N.3    95  HIS95      -0.1241
     48  CA       -25.1310   42.1720   -7.9040 C.3    95  HIS95       0.1621
     49  C        -26.3760   42.3840   -8.7690 C.2    95  HIS95       0.2264
     50  O        -26.4410   43.3400   -9.5590 O.2    95  HIS95      -0.2867
     51  CB       -24.1550   41.2060   -8.5550 C.3    95  HIS95       0.0745
     52  CG       -22.7390   41.4440   -8.1540 C.ar   95  HIS95       0.0817
     53  ND1      -21.9590   40.4790   -7.5580 N.ar   95  HIS95      -0.2268
     54  CD2      -21.9790   42.5620   -8.2110 C.ar   95  HIS95       0.1154
     55  CE1      -20.7650   40.9780   -7.2940 C.ar   95  HIS95       0.1986
     56  NE2      -20.7530   42.2430   -7.6770 N.ar   95  HIS95      -0.2212
     57  N        -27.5940   45.6370   -7.7430 N.3    98  ARG98      -0.1245
     58  CA       -26.7370   46.6250   -8.3700 C.3    98  ARG98       0.1563
     59  C        -27.2030   46.9510   -9.7880 C.2    98  ARG98       0.2260
     60  O        -27.3850   48.1240  -10.1450 O.2    98  ARG98      -0.2867
     61  CB       -25.3140   46.0750   -8.3740 C.3    98  ARG98       0.0307
     62  CG       -24.3500   46.8590   -9.1760 C.3    98  ARG98       0.0489
     63  CD       -23.0130   46.1820   -9.1910 C.3    98  ARG98       0.2205
     64  NE       -22.6010   45.9510  -10.5710 N.pl3  98  ARG98      -0.0865
     65  CZ       -22.9700   44.9090  -11.2980 C.cat  98  ARG98       0.5346
     66  NH1      -22.5740   44.8060  -12.5530 N.pl3  98  ARG98       0.1354
     67  NH2      -23.6900   43.9480  -10.7470 N.pl3  98  ARG98       0.1354
     68  N        -28.6980   50.4560  -11.3800 N.3   102  ARG102     -0.1245
     69  CA       -28.1970   51.2210  -12.5220 C.3   102  ARG102      0.1563
     70  C        -29.2940   51.4440  -13.5640 C.2   102  ARG102      0.2260
     71  O        -29.3440   52.5090  -14.2040 O.2   102  ARG102     -0.2867
     72  CB       -26.9610   50.5350  -13.1120 C.3   102  ARG102      0.0307
     73  CG       -25.8010   50.5810  -12.1280 C.3   102  ARG102      0.0489
     74  CD       -24.6400   49.6530  -12.4330 C.3   102  ARG102      0.2205
     75  NE       -23.8960   50.0780  -13.6120 N.pl3 102  ARG102     -0.0865
     76  CZ       -22.9590   51.0160  -13.5830 C.cat 102  ARG102      0.5346
     77  NH1      -22.6720   51.6100  -12.4330 N.pl3 102  ARG102      0.1354
     78  NH2      -22.3140   51.3580  -14.6910 N.pl3 102  ARG102      0.1354
     79  N        -25.1480   52.2530   -6.5910 N.3   129  SER129     -0.1202
     80  CA       -24.5830   51.1420   -7.3600 C.3   129  SER129      0.2020
     81  C        -23.1550   50.8020   -6.8970 C.2   129  SER129      0.2618
     82  O        -22.8090   49.6220   -6.7550 O.2   129  SER129     -0.2717
     83  CB       -24.6560   51.4170   -8.8690 C.3   129  SER129      0.2103
     84  OG       -24.0090   52.6080   -9.2570 O.3   129  SER129     -0.2182
     85  N        -22.3090   51.8090   -6.6510 N.am  130  ASP130     -0.1973
     86  CA       -20.9440   51.4940   -6.2230 C.3   130  ASP130      0.1709
     87  C        -20.9350   50.8430   -4.8420 C.2   130  ASP130      0.2293
     88  O        -20.1610   49.9100   -4.5820 O.2   130  ASP130     -0.2864
     89  CB       -20.0820   52.7560   -6.2150 C.3   130  ASP130      0.1436
     90  CG       -19.7320   53.2320   -7.6060 C.2   130  ASP130      0.3671
     91  OD1      -19.2200   52.4170   -8.4040 O.co2 130  ASP130     -0.2456
     92  OD2      -19.9470   54.4300   -7.8990 O.co2 130  ASP130     -0.2456
     93  N        -21.8890   47.2280   -5.3170 N.3   133  PHE133     -0.1241
     94  CA       -20.7560   46.4340   -5.7920 C.3   133  PHE133      0.1605
     95  C        -19.7760   46.1330   -4.6570 C.2   133  PHE133      0.2264
     96  O        -19.4270   44.9640   -4.4100 O.2   133  PHE133     -0.2867
     97  CB       -20.0700   47.1490   -6.9450 C.3   133  PHE133      0.0534
     98  CG       -19.0160   46.3370   -7.6170 C.ar  133  PHE133     -0.0203
     99  CD1      -19.3580   45.2300   -8.3610 C.ar  133  PHE133     -0.0042
    100  CD2      -17.7080   46.7350   -7.6050 C.ar  133  PHE133     -0.0042
    101  CE1      -18.3970   44.5070   -9.0140 C.ar  133  PHE133     -0.0003
    102  CE2      -16.7410   46.0150   -8.2710 C.ar  133  PHE133     -0.0003
    103  CZ       -17.0850   44.9020   -8.9700 C.ar  133  PHE133     -0.0000
    104  N        -18.7200   42.4240   -2.8890 N.3   137  ARG137     -0.1245
    105  CA       -17.3630   41.9080   -2.7290 C.3   137  ARG137      0.1563
    106  C        -17.0770   41.5630   -1.2820 C.2   137  ARG137      0.2260
    107  O        -16.4760   40.5250   -0.9910 O.2   137  ARG137     -0.2867
    108  CB       -16.3370   42.9070   -3.2470 C.3   137  ARG137      0.0307
    109  CG       -16.2470   42.9450   -4.7420 C.3   137  ARG137      0.0489
    110  CD       -15.2000   43.9170   -5.2230 C.3   137  ARG137      0.2205
    111  NE       -13.8530   43.5840   -4.7730 N.pl3 137  ARG137     -0.0865
    112  CZ       -12.8990   44.4870   -4.6140 C.cat 137  ARG137      0.5346
    113  NH1      -13.1680   45.7700   -4.8470 N.pl3 137  ARG137      0.1354
    114  NH2      -11.7020   44.1140   -4.1940 N.pl3 137  ARG137      0.1354
    115  N        -10.4180   36.9600  -18.0380 N.3   151  MET151     -0.1245
    116  CA        -9.6680   37.8810  -18.8910 C.3   151  MET151      0.1570
    117  C         -9.0760   37.1380  -20.0850 C.2   151  MET151      0.2261
    118  O         -8.4400   36.0950  -19.9050 O.2   151  MET151     -0.2867
    119  CB        -8.5520   38.6050  -18.1150 C.3   151  MET151      0.0387
    120  CG        -9.0070   39.6060  -17.0230 C.3   151  MET151      0.0595
    121  SD        -9.8550   41.1370  -17.5350 S.3   151  MET151     -0.1393
    122  CE        -8.5360   42.0190  -18.3690 C.3   151  MET151      0.0692
@<TRIPOS>BOND
     1   117   118    2
     2   117   116    1
     3   116   119    1
     4   116   115    1
     5   122   121    1
     6   119   120    1
     7    30    31   ar
     8    30    28   ar
     9   121   120    1
    10    31    29   ar
    11    28    26   ar
    12    29    27   ar
    13    26    27   ar
    14    26    25    1
    15    25    22    1
    16    78    76    1
    17    21    22    1
    18    21    18   am
    19    71    70    2
    20    22    23    1
    21    20    17    1
    22    24    23    2
    23    75    76    2
    24    75    74    1
    25    76    77    1
    26    70    69    1
    27    17    18    1
    28    17    16    1
    29    12    11    2
    30    23    32   am
    31    18    19    2
    32    72    69    1
    33    72    73    1
    34    46    45    1
    35    46    40    1
    36    35    34    2
    37    66    65    1
    38    69    68    1
    39    32    33    1
    40    74    73    1
    41    45    44    1
    42    11    16   am
    43    11    10    1
    44    34    33    1
    45    14    13    1
    46    33    36    1
    47    40    41    1
    48    15    13    1
    49    65    67    1
    50    65    64    2
    51    44    41    1
    52    13    10    1
    53    10     9    1
    54    64    63    1
    55    41    42    1
    56    43    42    2
    57    36    37    1
    58    36    38    1
    59    60    59    2
    60     9     3   am
    61    37    39    1
    62    59    58    1
    63    50    49    2
    64    84    83    1
    65    63    62    1
    66    62    61    1
    67   101   103   ar
    68   101    99   ar
    69   103   102   ar
    70     7     6    1
    71    83    80    1
    72     3     4    2
    73     3     2    1
    74    49    48    1
    75     6     8    1
    76     6     5    1
    77    51    52    1
    78    51    48    1
    79    91    90   ar
    80    61    58    1
    81    58    57    1
    82    99    98   ar
    83   102   100   ar
    84    54    52   ar
    85    54    56   ar
    86    52    53   ar
    87    48    47    1
    88    92    90   ar
    89    56    55   ar
    90     2     5    1
    91     2     1    1
    92    98   100   ar
    93    98    97    1
    94    90    89    1
    95    53    55   ar
    96    80    81    1
    97    80    79    1
    98    97    94    1
    99    81    82    2
   100    81    85   am
   101    85    86    1
   102    86    89    1
   103    86    87    1
   104    94    93    1
   105    94    95    1
   106   110   111    1
   107   110   109    1
   108   113   112    1
   109    87    88    2
   110   111   112    2
   111   109   108    1
   112    95    96    2
   113   112   114    1
   114   108   105    1
   115   104   105    1
   116   105   106    1
   117   106   107    2
