@<TRIPOS>MOLECULE
tmp/6d5mC00.pdb
 146 139 0 0 0
SMALL
GASTEIGER

@<TRIPOS>ATOM
      1  N         26.6670   37.7870   17.9310 N.3   274  VAL274     -0.1245
      2  CA        27.5400   37.3360   19.0100 C.3   274  VAL274      0.1561
      3  C         28.2920   38.5180   19.6460 C.2   274  VAL274      0.2260
      4  O         28.3840   38.5970   20.8650 O.2   274  VAL274     -0.2867
      5  CB        28.5380   36.2770   18.5260 C.3   274  VAL274      0.0252
      6  CG1       29.6000   35.9940   19.6040 C.3   274  VAL274      0.0019
      7  CG2       27.7970   34.9970   18.1570 C.3   274  VAL274      0.0019
      8  N         28.2150   39.6900   23.6550 N.3   278  ILE278     -0.1245
      9  CA        29.4080   39.8830   24.4720 C.3   278  ILE278      0.1561
     10  C         29.4940   41.3070   25.0320 C.2   278  ILE278      0.2260
     11  O         29.9950   41.5140   26.1340 O.2   278  ILE278     -0.2867
     12  CB        30.6860   39.5400   23.6630 C.3   278  ILE278      0.0252
     13  CG1       30.7150   38.0330   23.3790 C.3   278  ILE278      0.0019
     14  CG2       31.9490   39.9510   24.4230 C.3   278  ILE278      0.0019
     15  CD1       31.8470   37.5880   22.4870 C.3   278  ILE278      0.0001
     16  N         27.6340   33.1710   29.2430 N.3   297  VAL297     -0.1245
     17  CA        28.6680   32.1510   29.1580 C.3   297  VAL297      0.1561
     18  C         28.0750   30.7630   28.8710 C.2   297  VAL297      0.2260
     19  O         28.5920   30.0340   28.0320 O.2   297  VAL297     -0.2867
     20  CB        29.4970   32.1090   30.4450 C.3   297  VAL297      0.0252
     21  CG1       30.4320   30.9010   30.4400 C.3   297  VAL297      0.0019
     22  CG2       30.2870   33.4110   30.5920 C.3   297  VAL297      0.0019
     23  N         27.2910   30.5200   25.2020 N.3   300  MET300     -0.1230
     24  CA        28.4760   30.3870   24.3630 C.3   300  MET300      0.1702
     25  C         29.1410   29.0210   24.4910 C.2   300  MET300      0.2592
     26  O         29.8290   28.5830   23.5720 O.2   300  MET300     -0.2718
     27  CB        29.4800   31.4960   24.6840 C.3   300  MET300      0.0401
     28  CG        28.9190   32.9100   24.4860 C.3   300  MET300      0.0596
     29  SD        28.1870   33.1970   22.8570 S.3   300  MET300     -0.1393
     30  CE        29.5490   32.8140   21.7830 C.3   300  MET300      0.0692
     31  N         28.9290   28.3390   25.6150 N.am  301  ASN301     -0.1974
     32  CA        29.4450   26.9850   25.7850 C.3   301  ASN301      0.1688
     33  C         28.4480   25.9010   25.3990 C.2   301  ASN301      0.2292
     34  O         28.7400   24.7230   25.5240 O.2   301  ASN301     -0.2864
     35  CB        29.8870   26.7490   27.2300 C.3   301  ASN301      0.1181
     36  CG        31.2520   27.2970   27.5000 C.2   301  ASN301      0.2629
     37  OD1       32.1630   27.1350   26.6900 O.2   301  ASN301     -0.2716
     38  ND2       31.4000   27.9880   28.6130 N.am  301  ASN301     -0.0877
     39  N         26.1310   26.4880   19.8600 N.3   305  VAL305     -0.1231
     40  CA        26.9260   27.6860   19.6410 C.3   305  VAL305      0.1692
     41  C         28.4160   27.3950   19.6550 C.2   305  VAL305      0.2592
     42  O         29.1570   27.9210   18.8250 O.2   305  VAL305     -0.2718
     43  CB        26.6140   28.7660   20.6940 C.3   305  VAL305      0.0266
     44  CG1       27.5270   29.9700   20.5120 C.3   305  VAL305      0.0020
     45  CG2       25.1530   29.1890   20.5890 C.3   305  VAL305      0.0020
     46  N         28.8470   26.5620   20.5980 N.am  306  TYR306     -0.1962
     47  CA        30.2680   26.3060   20.8140 C.3   306  TYR306      0.1771
     48  C         30.9920   25.8880   19.5310 C.2   306  TYR306      0.2619
     49  O         32.1490   26.2420   19.3260 O.2   306  TYR306     -0.2715
     50  CB        30.4780   25.2290   21.8840 C.3   306  TYR306      0.0574
     51  CG        31.9280   25.0620   22.2980 C.ar  306  TYR306     -0.0198
     52  CD1       32.4950   25.8830   23.2690 C.ar  306  TYR306     -0.0009
     53  CD2       32.7300   24.0990   21.7120 C.ar  306  TYR306     -0.0009
     54  CE1       33.8230   25.7540   23.6340 C.ar  306  TYR306      0.0417
     55  CE2       34.0560   23.9550   22.0800 C.ar  306  TYR306      0.0417
     56  CZ        34.5930   24.7830   23.0390 C.ar  306  TYR306      0.1957
     57  OH        35.9040   24.6340   23.3970 O.3   306  TYR306     -0.2866
     58  N         30.3050   25.1410   18.6780 N.am  307  ARG307     -0.1963
     59  CA        30.9510   24.5290   17.5090 C.3   307  ARG307      0.1729
     60  C         31.1100   25.4780   16.3080 C.2   307  ARG307      0.2616
     61  O         31.6550   25.0930   15.2740 O.2   307  ARG307     -0.2715
     62  CB        30.1630   23.2880   17.0800 C.3   307  ARG307      0.0348
     63  CG        28.7040   23.5610   16.7700 C.3   307  ARG307      0.0492
     64  CD        28.0240   22.3290   16.1860 C.3   307  ARG307      0.2205
     65  NE        28.7770   21.8280   15.0440 N.pl3 307  ARG307     -0.0865
     66  CZ        28.6780   22.3080   13.8080 C.cat 307  ARG307      0.5346
     67  NH1       27.8410   23.3040   13.5290 N.pl3 307  ARG307      0.1354
     68  NH2       29.4310   21.7900   12.8450 N.pl3 307  ARG307      0.1354
     69  N         30.6430   26.7150   16.4430 N.am  308  LEU308     -0.1963
     70  CA        30.6480   27.6590   15.3270 C.3   308  LEU308      0.1728
     71  C         32.0120   28.3250   15.1000 C.2   308  LEU308      0.2616
     72  O         32.1680   29.5290   15.3070 O.2   308  LEU308     -0.2715
     73  CB        29.5750   28.7210   15.5480 C.3   308  LEU308      0.0311
     74  CG        28.1500   28.1590   15.6270 C.3   308  LEU308      0.0022
     75  CD1       27.1580   29.2720   15.8910 C.3   308  LEU308      0.0001
     76  CD2       27.7910   27.4030   14.3460 C.3   308  LEU308      0.0001
     77  N         32.9790   27.5220   14.6560 N.am  309  ASP309     -0.1971
     78  CA        34.3540   27.9570   14.3960 C.3   309  ASP309      0.1709
     79  C         34.4720   29.2200   13.5550 C.2   309  ASP309      0.2293
     80  O         35.2870   30.0850   13.8480 O.2   309  ASP309     -0.2864
     81  CB        35.1390   26.8440   13.7010 C.3   309  ASP309      0.1436
     82  CG        35.2860   25.6010   14.5600 C.2   309  ASP309      0.3671
     83  OD1       35.1550   25.7060   15.7880 O.co2 309  ASP309     -0.2456
     84  OD2       35.5400   24.5100   14.0160 O.co2 309  ASP309     -0.2456
     85  N         32.2650   31.8970   13.7590 N.3   311  THR311     -0.1203
     86  CA        31.7940   32.8910   14.7090 C.3   311  THR311      0.1994
     87  C         32.9730   33.3050   15.5830 C.2   311  THR311      0.2617
     88  O         33.2080   34.4660   15.7280 O.2   311  THR311     -0.2717
     89  CB        30.7110   32.3120   15.6250 C.3   311  THR311      0.1784
     90  OG1       29.5710   32.0780   14.7810 O.3   311  THR311     -0.2211
     91  CG2       30.2690   33.2620   16.7740 C.3   311  THR311      0.0376
     92  N         33.7020   32.3410   16.1400 N.am  312  PHE312     -0.1975
     93  CA        34.8780   32.5990   16.9390 C.3   312  PHE312      0.1639
     94  C         35.9420   33.3240   16.1090 C.2   312  PHE312      0.2290
     95  O         36.4930   34.2940   16.6320 O.2   312  PHE312     -0.2864
     96  CB        35.3890   31.2620   17.5000 C.3   312  PHE312      0.0560
     97  CG        36.5180   31.4660   18.5220 C.ar  312  PHE312     -0.0200
     98  CD1       36.2270   32.0440   19.7580 C.ar  312  PHE312     -0.0042
     99  CD2       37.8260   31.0920   18.2460 C.ar  312  PHE312     -0.0042
    100  CE1       37.2190   32.2960   20.6890 C.ar  312  PHE312     -0.0003
    101  CE2       38.8050   31.3180   19.2040 C.ar  312  PHE312     -0.0003
    102  CZ        38.5220   31.9270   20.4090 C.ar  312  PHE312     -0.0000
    103  N         35.2560   37.1020   15.6670 N.3   315  ILE315     -0.1245
    104  CA        35.0200   37.9320   16.8520 C.3   315  ILE315      0.1561
    105  C         36.3030   38.7040   17.1810 C.2   315  ILE315      0.2260
    106  O         37.3760   38.1110   17.2470 O.2   315  ILE315     -0.2867
    107  CB        34.5840   37.0890   18.0770 C.3   315  ILE315      0.0252
    108  CG1       33.3050   36.3060   17.7670 C.3   315  ILE315      0.0019
    109  CG2       34.3820   37.9780   19.3060 C.3   315  ILE315      0.0019
    110  CD1       32.1440   37.1890   17.4310 C.3   315  ILE315      0.0001
    111  N         36.8860   38.4680   22.5830 N.3   320  LYS320     -0.1245
    112  CA        37.3410   37.1570   23.0030 C.3   320  LYS320      0.1561
    113  C         37.8900   37.2050   24.4220 C.2   320  LYS320      0.2260
    114  O         37.6260   36.3060   25.2120 O.2   320  LYS320     -0.2867
    115  CB        38.4010   36.6150   22.0510 C.3   320  LYS320      0.0271
    116  CG        37.8440   36.1820   20.6990 C.3   320  LYS320      0.0035
    117  CD        38.9450   35.6360   19.8000 C.3   320  LYS320      0.0206
    118  CE        38.3780   35.2500   18.4500 C.3   320  LYS320      0.1093
    119  NZ        39.4310   34.8130   17.5090 N.3   320  LYS320     -0.1314
    120  N         35.0080   37.5200   26.9540 N.3   323  LEU323     -0.1231
    121  CA        34.3350   36.2410   27.0800 C.3   323  LEU323      0.1693
    122  C         35.1790   35.2550   27.8830 C.2   323  LEU323      0.2591
    123  O         34.6710   34.5440   28.7480 O.2   323  LEU323     -0.2718
    124  CB        34.0210   35.6680   25.6930 C.3   323  LEU323      0.0284
    125  CG        33.2340   34.3580   25.6970 C.3   323  LEU323      0.0019
    126  CD1       31.9790   34.4820   26.5610 C.3   323  LEU323      0.0001
    127  CD2       32.8750   33.9480   24.2730 C.3   323  LEU323      0.0001
    128  N         36.4740   35.2270   27.6010 N.am  324  GLU324     -0.1979
    129  CA        37.3940   34.3610   28.3240 C.3   324  GLU324      0.1602
    130  C         37.4440   34.6890   29.8280 C.2   324  GLU324      0.2287
    131  O         37.4040   33.7960   30.6610 O.2   324  GLU324     -0.2864
    132  CB        38.7970   34.4600   27.7180 C.3   324  GLU324      0.0415
    133  CG        39.8420   33.5770   28.4010 C.3   324  GLU324      0.1163
    134  CD        39.6130   32.0950   28.1560 C.2   324  GLU324      0.3649
    135  OE1       39.3050   31.7250   27.0040 O.co2 324  GLU324     -0.2457
    136  OE2       39.7410   31.2980   29.1140 O.co2 324  GLU324     -0.2457
    137  N         34.2580   33.4260   31.4260 N.3   327  HIS327     -0.1241
    138  CA        34.2900   31.9740   31.5450 C.3   327  HIS327      0.1621
    139  C         35.1830   31.4990   32.6830 C.2   327  HIS327      0.2264
    140  O         34.8810   30.5180   33.3540 O.2   327  HIS327     -0.2867
    141  CB        34.7760   31.3310   30.2480 C.3   327  HIS327      0.0745
    142  CG        34.9900   29.8560   30.3700 C.ar  327  HIS327      0.0817
    143  ND1       33.9510   28.9530   30.3330 N.ar  327  HIS327     -0.2268
    144  CD2       36.1120   29.1350   30.5880 C.ar  327  HIS327      0.1154
    145  CE1       34.4280   27.7310   30.4920 C.ar  327  HIS327      0.1986
    146  NE2       35.7390   27.8160   30.6570 N.ar  327  HIS327     -0.2212
@<TRIPOS>BOND
     1    68    66    1
     2    67    66    1
     3    79    80    2
     4    79    78    1
     5    81    78    1
     6    81    82    1
     7    85    86    1
     8    66    65    2
     9    84    82   ar
    10    76    74    1
    11    78    77    1
    12    82    83   ar
    13    77    71   am
    14    86    87    1
    15    86    89    1
    16    90    89    1
    17    65    64    1
    18    71    72    2
    19    71    70    1
    20    61    60    2
    21    70    73    1
    22    70    69    1
    23    73    74    1
    24    87    88    2
    25    87    92   am
    26    89    91    1
    27    74    75    1
    28   103   104    1
    29    94    95    2
    30    94    93    1
    31    92    93    1
    32    64    63    1
    33    60    69   am
    34    60    59    1
    35    63    62    1
    36   104   105    1
    37   104   107    1
    38    93    96    1
    39    62    59    1
    40   105   106    2
    41   110   108    1
    42    96    97    1
    43    59    58    1
    44   119   118    1
    45   108   107    1
    46     1     2    1
    47   107   109    1
    48     7     5    1
    49    99    97   ar
    50    99   101   ar
    51   118   117    1
    52    97    98   ar
    53     5     2    1
    54     5     6    1
    55    58    48   am
    56    42    41    2
    57     2     3    1
    58   101   102   ar
    59    49    48    2
    60    48    47    1
    61    40    41    1
    62    40    39    1
    63    40    43    1
    64     3     4    2
    65    41    46   am
    66    98   100   ar
    67   117   116    1
    68   102   100   ar
    69    44    43    1
    70    45    43    1
    71    46    47    1
    72   116   115    1
    73    47    50    1
    74    53    55   ar
    75    53    51   ar
    76    30    29    1
    77    50    51    1
    78   115   112    1
    79    55    56   ar
    80    51    52   ar
    81    15    13    1
    82   111   112    1
    83    29    28    1
    84   112   113    1
    85    56    57    1
    86    56    54   ar
    87    52    54   ar
    88    13    12    1
    89    26    25    2
    90     8     9    1
    91    12    14    1
    92    12     9    1
    93   127   125    1
    94    24    25    1
    95    24    27    1
    96    24    23    1
    97   113   114    2
    98     9    10    1
    99    28    27    1
   100    25    31   am
   101    10    11    2
   102    33    34    2
   103    33    32    1
   104    31    32    1
   105   124   125    1
   106   124   121    1
   107   125   126    1
   108    32    35    1
   109    37    36    2
   110   120   121    1
   111   135   134   ar
   112   121   122    1
   113    35    36    1
   114    36    38   am
   115   128   122   am
   116   128   129    1
   117   132   129    1
   118   132   133    1
   119   122   123    2
   120    19    18    2
   121   134   133    1
   122   134   136   ar
   123   129   130    1
   124    18    17    1
   125    17    16    1
   126    17    20    1
   127   130   131    2
   128   141   142    1
   129   141   138    1
   130   143   142   ar
   131   143   145   ar
   132   142   144   ar
   133    21    20    1
   134    20    22    1
   135   145   146   ar
   136   144   146   ar
   137   137   138    1
   138   138   139    1
   139   139   140    2
