@<TRIPOS>MOLECULE
tmp/6d5rA03.pdb
 74 71 0 0 0
SMALL
GASTEIGER

@<TRIPOS>ATOM
      1  N         26.3350  -46.6350   -3.3800 N.3    46  TYR46      -0.1241
      2  CA        25.4080  -47.7430   -3.1620 C.3    46  TYR46       0.1605
      3  C         25.6040  -48.4310   -1.8200 C.2    46  TYR46       0.2264
      4  O         25.0470  -49.5190   -1.6070 O.2    46  TYR46      -0.2867
      5  CB        25.5000  -48.8040   -4.2650 C.3    46  TYR46       0.0534
      6  CG        25.2540  -48.2830   -5.6620 C.ar   46  TYR46      -0.0201
      7  CD1       24.1470  -47.4940   -5.9550 C.ar   46  TYR46      -0.0009
      8  CD2       26.1360  -48.5810   -6.6900 C.ar   46  TYR46      -0.0009
      9  CE1       23.9290  -47.0210   -7.2380 C.ar   46  TYR46       0.0417
     10  CE2       25.9290  -48.1150   -7.9670 C.ar   46  TYR46       0.0417
     11  CZ        24.8280  -47.3370   -8.2380 C.ar   46  TYR46       0.1957
     12  OH        24.6380  -46.8820   -9.5200 O.3    46  TYR46      -0.2866
     13  N         24.0750  -40.3740  -16.3310 N.3    65  SER65      -0.1202
     14  CA        22.9400  -40.8540  -15.5500 C.3    65  SER65       0.2020
     15  C         23.3050  -40.9750  -14.0760 C.2    65  SER65       0.2618
     16  O         22.5130  -40.6120  -13.1980 O.2    65  SER65      -0.2717
     17  CB        22.4660  -42.2030  -16.0950 C.3    65  SER65       0.2103
     18  OG        21.3630  -42.6940  -15.3550 O.3    65  SER65      -0.2182
     19  N         24.5080  -41.4770  -13.7880 N.am   66  TYR66      -0.1975
     20  CA        24.9660  -41.6120  -12.4100 C.3    66  TYR66       0.1639
     21  C         25.1070  -40.2660  -11.7110 C.2    66  TYR66       0.2290
     22  O         25.0370  -40.2130  -10.4790 O.2    66  TYR66      -0.2864
     23  CB        26.3030  -42.3560  -12.3970 C.3    66  TYR66       0.0560
     24  CG        26.7970  -42.7760  -11.0310 C.ar   66  TYR66      -0.0198
     25  CD1       26.3620  -43.9560  -10.4490 C.ar   66  TYR66      -0.0009
     26  CD2       27.7160  -42.0040  -10.3340 C.ar   66  TYR66      -0.0009
     27  CE1       26.8190  -44.3530   -9.2070 C.ar   66  TYR66       0.0417
     28  CE2       28.1810  -42.3940   -9.0910 C.ar   66  TYR66       0.0417
     29  CZ        27.7260  -43.5710   -8.5320 C.ar   66  TYR66       0.1957
     30  OH        28.1760  -43.9710   -7.2960 O.3    66  TYR66      -0.2866
     31  N         21.3330  -37.6770   -9.6680 N.3    69  PRO69      -0.2116
     32  CA        20.8910  -37.4570   -8.2810 C.3    69  PRO69       0.1372
     33  C         21.7700  -36.4780   -7.5290 C.2    69  PRO69       0.2244
     34  O         21.2660  -35.7100   -6.7000 O.2    69  PRO69      -0.2868
     35  CB        20.9460  -38.8620   -7.6630 C.3    69  PRO69       0.0268
     36  CG        20.9180  -39.8000   -8.8270 C.3    69  PRO69       0.0207
     37  CD        21.6420  -39.0930   -9.9270 C.3    69  PRO69       0.0892
     38  N         23.0150  -41.8600   -3.8840 N.3   105  HIS105     -0.1241
     39  CA        23.3450  -43.2600   -4.1480 C.3   105  HIS105      0.1621
     40  C         23.4840  -44.0360   -2.8420 C.2   105  HIS105      0.2264
     41  O         24.3670  -44.8820   -2.6860 O.2   105  HIS105     -0.2867
     42  CB        24.6120  -43.3850   -4.9960 C.3   105  HIS105      0.0745
     43  CG        24.4640  -42.8330   -6.3780 C.ar  105  HIS105      0.0817
     44  ND1       23.3900  -43.1340   -7.1870 N.ar  105  HIS105     -0.2268
     45  CD2       25.2530  -41.9980   -7.0950 C.ar  105  HIS105      0.1154
     46  CE1       23.5220  -42.5060   -8.3420 C.ar  105  HIS105      0.1986
     47  NE2       24.6440  -41.8100   -8.3120 N.ar  105  HIS105     -0.2212
     48  N         18.5100  -49.6060   -4.2720 N.3   109  GLY109     -0.1225
     49  CA        17.0600  -49.6170   -4.3800 C.3   109  GLY109      0.1811
     50  C         16.3460  -49.0000   -3.1980 C.2   109  GLY109      0.2280
     51  O         15.2080  -49.3810   -2.9010 O.2   109  GLY109     -0.2866
     52  N         18.2760  -44.0570   -4.2960 N.3   124  ASP124     -0.1225
     53  CA        17.9970  -44.0090   -5.7250 C.3   124  ASP124      0.1805
     54  C         16.5960  -44.4930   -6.0670 C.2   124  ASP124      0.2598
     55  O         16.1700  -44.3460   -7.2190 O.2   124  ASP124     -0.2718
     56  CB        19.0080  -44.8600   -6.4990 C.3   124  ASP124      0.1424
     57  CG        20.4050  -44.2790   -6.4730 C.2   124  ASP124      0.3668
     58  OD1       20.5380  -43.0370   -6.4360 O.co2 124  ASP124     -0.2456
     59  OD2       21.3690  -45.0700   -6.4930 O.co2 124  ASP124     -0.2456
     60  N         15.8740  -45.0580   -5.1030 N.am  125  GLY125     -0.1957
     61  CA        14.6250  -45.7250   -5.3940 C.3   125  GLY125      0.1869
     62  C         14.8860  -47.0300   -6.1120 C.2   125  GLY125      0.2309
     63  O         16.0230  -47.3030   -6.5110 O.2   125  GLY125     -0.2863
     64  N         13.2460  -47.7810   -8.9250 N.3   127  GLY127     -0.1225
     65  CA        12.7640  -47.5760  -10.2760 C.3   127  GLY127      0.1811
     66  C         11.2900  -47.8500  -10.4670 C.2   127  GLY127      0.2280
     67  O         10.7600  -47.5690  -11.5490 O.2   127  GLY127     -0.2866
     68  N         15.3930  -41.6610   -8.2170 N.3   132  PRO132     -0.2116
     69  CA        16.2210  -41.0100   -7.1900 C.3   132  PRO132      0.1372
     70  C         15.5250  -39.8110   -6.5580 C.2   132  PRO132      0.2244
     71  O         15.0840  -38.8850   -7.2440 O.2   132  PRO132     -0.2868
     72  CB        17.4770  -40.6080   -7.9650 C.3   132  PRO132      0.0268
     73  CG        17.5950  -41.6660   -9.0090 C.3   132  PRO132      0.0207
     74  CD        16.1780  -41.9700   -9.4260 C.3   132  PRO132      0.0892
@<TRIPOS>BOND
     1    13    14    1
     2    17    14    1
     3    17    18    1
     4    14    15    1
     5    15    19   am
     6    15    16    2
     7    19    20    1
     8    20    23    1
     9    20    21    1
    10    23    24    1
    11    21    22    2
    12    67    66    2
    13    24    25   ar
    14    24    26   ar
    15    66    65    1
    16    25    27   ar
    17    26    28   ar
    18    65    64    1
    19    37    31    1
    20    37    36    1
    21    31    32    1
    22    12    11    1
    23    74    73    1
    24    74    68    1
    25    27    29   ar
    26    28    29   ar
    27    73    72    1
    28    36    35    1
    29    29    30    1
    30    46    47   ar
    31    46    44   ar
    32    47    45   ar
    33    32    35    1
    34    32    33    1
    35    11    10   ar
    36    11     9   ar
    37    68    69    1
    38    10     8   ar
    39    72    69    1
    40    33    34    2
    41    71    70    2
    42     9     7   ar
    43    55    54    2
    44    69    70    1
    45    44    43   ar
    46    45    43   ar
    47     8     6   ar
    48    63    62    2
    49    56    57    1
    50    56    53    1
    51    59    57   ar
    52    57    58   ar
    53    43    42    1
    54    62    61    1
    55    54    53    1
    56    54    60   am
    57     7     6   ar
    58    53    52    1
    59     6     5    1
    60    61    60    1
    61    42    39    1
    62    49    48    1
    63    49    50    1
    64     5     2    1
    65    39    38    1
    66    39    40    1
    67     1     2    1
    68    50    51    2
    69     2     3    1
    70    40    41    2
    71     3     4    2
