@<TRIPOS>MOLECULE
tmp/6d5vC00.pdb
 135 127 0 0 0
SMALL
GASTEIGER

@<TRIPOS>ATOM
      1  N         26.5090   37.8830   17.7070 N.3   274  VAL274     -0.1245
      2  CA        27.3690   37.3970   18.7910 C.3   274  VAL274      0.1561
      3  C         28.1090   38.5710   19.4450 C.2   274  VAL274      0.2260
      4  O         28.2200   38.6610   20.6680 O.2   274  VAL274     -0.2867
      5  CB        28.3860   36.3590   18.2950 C.3   274  VAL274      0.0252
      6  CG1       29.4610   36.0870   19.3690 C.3   274  VAL274      0.0019
      7  CG2       27.6760   35.0660   17.9230 C.3   274  VAL274      0.0019
      8  N         28.0380   39.8520   23.4210 N.3   278  ILE278     -0.1245
      9  CA        29.2180   40.0240   24.2630 C.3   278  ILE278      0.1561
     10  C         29.2860   41.4390   24.8490 C.2   278  ILE278      0.2260
     11  O         29.7450   41.6280   25.9780 O.2   278  ILE278     -0.2867
     12  CB        30.5110   39.6900   23.4790 C.3   278  ILE278      0.0252
     13  CG1       30.5250   38.1940   23.1370 C.3   278  ILE278      0.0019
     14  CG2       31.7580   40.0610   24.2890 C.3   278  ILE278      0.0019
     15  CD1       31.6720   37.7640   22.2370 C.3   278  ILE278      0.0001
     16  N         27.5000   33.2950   29.0810 N.3   297  VAL297     -0.1245
     17  CA        28.5410   32.2790   29.0130 C.3   297  VAL297      0.1561
     18  C         27.9570   30.8870   28.7280 C.2   297  VAL297      0.2260
     19  O         28.4860   30.1480   27.8980 O.2   297  VAL297     -0.2867
     20  CB        29.3590   32.2400   30.3110 C.3   297  VAL297      0.0252
     21  CG1       30.2570   31.0010   30.3440 C.3   297  VAL297      0.0019
     22  CG2       30.1780   33.5320   30.4480 C.3   297  VAL297      0.0019
     23  N         27.1950   30.6700   25.0720 N.3   300  MET300     -0.1230
     24  CA        28.3750   30.5590   24.2040 C.3   300  MET300      0.1702
     25  C         29.0650   29.2020   24.3370 C.2   300  MET300      0.2592
     26  O         29.8100   28.7920   23.4430 O.2   300  MET300     -0.2718
     27  CB        29.3670   31.6870   24.4960 C.3   300  MET300      0.0401
     28  CG        28.7660   33.0800   24.3190 C.3   300  MET300      0.0596
     29  SD        28.1250   33.3020   22.6490 S.3   300  MET300     -0.1393
     30  CE        27.7980   35.0450   22.6060 C.3   300  MET300      0.0692
     31  N         28.8150   28.5040   25.4430 N.am  301  ASN301     -0.1974
     32  CA        29.3610   27.1650   25.6500 C.3   301  ASN301      0.1688
     33  C         28.4020   26.0580   25.2410 C.2   301  ASN301      0.2292
     34  O         28.7330   24.8810   25.3470 O.2   301  ASN301     -0.2864
     35  CB        29.7520   26.9560   27.1110 C.3   301  ASN301      0.1181
     36  CG        31.1470   27.4330   27.4090 C.2   301  ASN301      0.2629
     37  OD1       32.0600   27.2640   26.5990 O.2   301  ASN301     -0.2716
     38  ND2       31.3180   28.0650   28.5550 N.am  301  ASN301     -0.0877
     39  N         26.1380   26.5680   19.6460 N.3   305  VAL305     -0.1231
     40  CA        26.9210   27.7790   19.4510 C.3   305  VAL305      0.1692
     41  C         28.4170   27.5260   19.5050 C.2   305  VAL305      0.2592
     42  O         29.1720   28.0820   18.7030 O.2   305  VAL305     -0.2718
     43  CB        26.5530   28.8470   20.5100 C.3   305  VAL305      0.0266
     44  CG1       27.4520   30.0660   20.3800 C.3   305  VAL305      0.0020
     45  CG2       25.0870   29.2450   20.3450 C.3   305  VAL305      0.0020
     46  N         28.8450   26.6970   20.4510 N.am  306  TYR306     -0.1976
     47  CA        30.2690   26.4900   20.6950 C.3   306  TYR306      0.1639
     48  C         31.0270   26.0520   19.4380 C.2   306  TYR306      0.2290
     49  O         32.1990   26.3920   19.2610 O.2   306  TYR306     -0.2864
     50  CB        30.4870   25.4500   21.7970 C.3   306  TYR306      0.0560
     51  CG        31.9300   25.3430   22.2350 C.ar  306  TYR306     -0.0198
     52  CD1       32.4560   26.2150   23.1820 C.ar  306  TYR306     -0.0009
     53  CD2       32.7730   24.3790   21.6910 C.ar  306  TYR306     -0.0009
     54  CE1       33.7810   26.1260   23.5790 C.ar  306  TYR306      0.0417
     55  CE2       34.0930   24.2870   22.0780 C.ar  306  TYR306      0.0417
     56  CZ        34.5920   25.1610   23.0170 C.ar  306  TYR306      0.1957
     57  OH        35.9060   25.0590   23.3970 O.3   306  TYR306     -0.2866
     58  N         30.6600   26.8560   16.3370 N.3   308  LEU308     -0.1231
     59  CA        30.6310   27.7910   15.2140 C.3   308  LEU308      0.1693
     60  C         31.9760   28.5030   14.9960 C.2   308  LEU308      0.2592
     61  O         32.0810   29.7160   15.1630 O.2   308  LEU308     -0.2718
     62  CB        29.5180   28.8170   15.4170 C.3   308  LEU308      0.0284
     63  CG        28.0910   28.2550   15.4680 C.3   308  LEU308      0.0019
     64  CD1       27.0990   29.3500   15.7690 C.3   308  LEU308      0.0001
     65  CD2       27.7120   27.5180   14.1630 C.3   308  LEU308      0.0001
     66  N         32.9870   27.7330   14.6000 N.am  309  ASP309     -0.1974
     67  CA        34.3530   28.2360   14.3980 C.3   309  ASP309      0.1709
     68  C         34.4800   29.4470   13.4710 C.2   309  ASP309      0.2293
     69  O         35.2860   30.3500   13.7270 O.2   309  ASP309     -0.2864
     70  CB        35.2360   27.1120   13.8560 C.3   309  ASP309      0.1436
     71  CG        35.4460   26.0070   14.8640 C.2   309  ASP309      0.3671
     72  OD1       35.3210   26.2790   16.0740 O.co2 309  ASP309     -0.2456
     73  OD2       35.7360   24.8680   14.4490 O.co2 309  ASP309     -0.2456
     74  N         32.3470   31.7940   12.9830 N.3   311  THR311     -0.1203
     75  CA        31.8290   32.9660   13.6760 C.3   311  THR311      0.1994
     76  C         32.8630   33.4660   14.6860 C.2   311  THR311      0.2617
     77  O         33.1920   34.6490   14.7270 O.2   311  THR311     -0.2717
     78  CB        30.4940   32.6340   14.3850 C.3   311  THR311      0.1784
     79  OG1       29.6000   32.0440   13.4340 O.3   311  THR311     -0.2211
     80  CG2       29.8460   33.8900   14.9580 C.3   311  THR311      0.0376
     81  N         33.3930   32.5370   15.4710 N.am  312  PHE312     -0.1975
     82  CA        34.4040   32.8430   16.4810 C.3   312  PHE312      0.1639
     83  C         35.6140   33.5390   15.8650 C.2   312  PHE312      0.2290
     84  O         36.1210   34.5260   16.4010 O.2   312  PHE312     -0.2864
     85  CB        34.8300   31.5560   17.1930 C.3   312  PHE312      0.0560
     86  CG        35.9890   31.7290   18.1330 C.ar  312  PHE312     -0.0200
     87  CD1       35.8130   32.3210   19.3750 C.ar  312  PHE312     -0.0042
     88  CD2       37.2530   31.2800   17.7790 C.ar  312  PHE312     -0.0042
     89  CE1       36.8880   32.4740   20.2470 C.ar  312  PHE312     -0.0003
     90  CE2       38.3210   31.4250   18.6390 C.ar  312  PHE312     -0.0003
     91  CZ        38.1370   32.0220   19.8750 C.ar  312  PHE312     -0.0000
     92  N         35.1470   37.3080   15.5030 N.3   315  ILE315     -0.1245
     93  CA        34.9060   38.1280   16.6900 C.3   315  ILE315      0.1561
     94  C         36.1740   38.9050   17.0520 C.2   315  ILE315      0.2260
     95  O         37.2510   38.3180   17.1250 O.2   315  ILE315     -0.2867
     96  CB        34.4590   37.2630   17.8890 C.3   315  ILE315      0.0252
     97  CG1       33.1390   36.5550   17.5600 C.3   315  ILE315      0.0019
     98  CG2       34.3230   38.1210   19.1340 C.3   315  ILE315      0.0019
     99  CD1       32.0000   37.5290   17.2550 C.3   315  ILE315      0.0001
    100  N         36.7550   38.5580   22.4330 N.3   320  LYS320     -0.1245
    101  CA        37.2020   37.2320   22.8310 C.3   320  LYS320      0.1561
    102  C         37.7290   37.2510   24.2630 C.2   320  LYS320      0.2260
    103  O         37.4640   36.3340   25.0410 O.2   320  LYS320     -0.2867
    104  CB        38.2880   36.7130   21.8860 C.3   320  LYS320      0.0271
    105  CG        37.7680   36.3070   20.5170 C.3   320  LYS320      0.0035
    106  CD        38.8910   35.7800   19.6380 C.3   320  LYS320      0.0206
    107  CE        38.3570   35.4280   18.2710 C.3   320  LYS320      0.1093
    108  NZ        39.4290   35.1020   17.3120 N.3   320  LYS320     -0.1314
    109  N         34.8840   37.5830   26.8370 N.3   323  LEU323     -0.1231
    110  CA        34.1720   36.3250   26.9720 C.3   323  LEU323      0.1693
    111  C         35.0120   35.3300   27.7520 C.2   323  LEU323      0.2591
    112  O         34.5060   34.6020   28.6140 O.2   323  LEU323     -0.2718
    113  CB        33.8040   35.7630   25.5910 C.3   323  LEU323      0.0284
    114  CG        33.0550   34.4260   25.5790 C.3   323  LEU323      0.0019
    115  CD1       31.7920   34.5220   26.4140 C.3   323  LEU323      0.0001
    116  CD2       32.7240   33.9960   24.1440 C.3   323  LEU323      0.0001
    117  N         36.3060   35.3120   27.4610 N.am  324  GLU324     -0.1979
    118  CA        37.2270   34.4220   28.1540 C.3   324  GLU324      0.1602
    119  C         37.2910   34.7280   29.6580 C.2   324  GLU324      0.2287
    120  O         37.2480   33.8230   30.4830 O.2   324  GLU324     -0.2864
    121  CB        38.6300   34.5220   27.5380 C.3   324  GLU324      0.0415
    122  CG        39.6680   33.6340   28.2240 C.3   324  GLU324      0.1163
    123  CD        39.4490   32.1580   27.9550 C.2   324  GLU324      0.3649
    124  OE1       39.1210   31.8070   26.7980 O.co2 324  GLU324     -0.2457
    125  OE2       39.6010   31.3500   28.9020 O.co2 324  GLU324     -0.2457
    126  N         34.0610   33.5120   31.2630 N.3   327  HIS327     -0.1241
    127  CA        34.0680   32.0580   31.4100 C.3   327  HIS327      0.1621
    128  C         34.9800   31.5800   32.5310 C.2   327  HIS327      0.2264
    129  O         34.6820   30.6040   33.2170 O.2   327  HIS327     -0.2867
    130  CB        34.5020   31.3800   30.1100 C.3   327  HIS327      0.0745
    131  CG        34.7100   29.9050   30.2550 C.ar  327  HIS327      0.0817
    132  ND1       33.6660   29.0020   30.2440 N.ar  327  HIS327     -0.2268
    133  CD2       35.8330   29.1800   30.4640 C.ar  327  HIS327      0.1154
    134  CE1       34.1450   27.7810   30.4080 C.ar  327  HIS327      0.1986
    135  NE2       35.4550   27.8620   30.5500 N.ar  327  HIS327     -0.2212
@<TRIPOS>BOND
     1    74    75    1
     2    79    78    1
     3    68    69    2
     4    68    67    1
     5    75    78    1
     6    75    76    1
     7    70    67    1
     8    70    71    1
     9    65    63    1
    10    78    80    1
    11    67    66    1
    12    73    71   ar
    13    66    60   am
    14    76    77    2
    15    76    81   am
    16    71    72   ar
    17    60    61    2
    18    60    59    1
    19    59    62    1
    20    59    58    1
    21    62    63    1
    22    63    64    1
    23    81    82    1
    24    92    93    1
    25    83    84    2
    26    83    82    1
    27    82    85    1
    28    93    94    1
    29    93    96    1
    30    94    95    2
    31    85    86    1
    32    99    97    1
    33   108   107    1
    34    97    96    1
    35     1     2    1
    36    88    86   ar
    37    88    90   ar
    38    96    98    1
    39     7     5    1
    40    86    87   ar
    41   107   106    1
    42     5     2    1
    43     5     6    1
    44    90    91   ar
    45    42    41    2
    46     2     3    1
    47    49    48    2
    48    87    89   ar
    49    48    47    1
    50     3     4    2
    51    40    41    1
    52    40    39    1
    53    40    43    1
    54    41    46   am
    55   106   105    1
    56    91    89   ar
    57    45    43    1
    58    44    43    1
    59    46    47    1
    60   105   104    1
    61    47    50    1
    62    53    55   ar
    63    53    51   ar
    64    50    51    1
    65   104   101    1
    66    55    56   ar
    67    51    52   ar
    68    15    13    1
    69   100   101    1
    70    30    29    1
    71    29    28    1
    72   101   102    1
    73    56    57    1
    74    56    54   ar
    75    13    12    1
    76    52    54   ar
    77     8     9    1
    78    26    25    2
    79    12     9    1
    80    12    14    1
    81   116   114    1
    82    24    25    1
    83    24    27    1
    84    24    23    1
    85     9    10    1
    86   102   103    2
    87    28    27    1
    88    25    31   am
    89    10    11    2
    90    33    34    2
    91    33    32    1
    92    31    32    1
    93   114   113    1
    94   114   115    1
    95   113   110    1
    96    32    35    1
    97    37    36    2
    98   124   123   ar
    99   109   110    1
   100   110   111    1
   101    35    36    1
   102    36    38   am
   103   117   111   am
   104   117   118    1
   105   121   118    1
   106   121   122    1
   107   111   112    2
   108    19    18    2
   109   123   122    1
   110   123   125   ar
   111   118   119    1
   112    18    17    1
   113    17    16    1
   114    17    20    1
   115   119   120    2
   116   130   131    1
   117   130   127    1
   118   132   131   ar
   119   132   134   ar
   120   131   133   ar
   121    20    21    1
   122    20    22    1
   123   134   135   ar
   124   133   135   ar
   125   126   127    1
   126   127   128    1
   127   128   129    2
