@<TRIPOS>MOLECULE
tmp/6d5xB01.pdb
 143 140 0 0 0
SMALL
GASTEIGER

@<TRIPOS>ATOM
      1  N        -35.4170   23.1400  -32.0230 N.3     2  ILE2       -0.1231
      2  CA       -36.2840   23.9780  -31.1990 C.3     2  ILE2        0.1692
      3  C        -36.3290   25.4080  -31.7270 C.2     2  ILE2        0.2592
      4  O        -37.3710   26.0730  -31.6570 O.2     2  ILE2       -0.2718
      5  CB       -35.8120   23.9190  -29.7320 C.3     2  ILE2        0.0266
      6  CG1      -36.0730   22.5310  -29.1320 C.3     2  ILE2        0.0019
      7  CG2      -36.4930   24.9880  -28.8940 C.3     2  ILE2        0.0020
      8  CD1      -35.0450   21.4670  -29.4940 C.3     2  ILE2        0.0001
      9  N        -35.2190   25.8970  -32.2650 N.am    3  TYR3       -0.1962
     10  CA       -35.1050   27.2420  -32.8080 C.3     3  TYR3        0.1771
     11  C        -35.2010   27.2030  -34.3300 C.2     3  TYR3        0.2620
     12  O        -34.8690   26.1970  -34.9610 O.2     3  TYR3       -0.2715
     13  CB       -33.7770   27.8740  -32.3820 C.3     3  TYR3        0.0574
     14  CG       -32.5970   26.9420  -32.5700 C.ar    3  TYR3       -0.0198
     15  CD1      -32.2300   26.0440  -31.5750 C.ar    3  TYR3       -0.0009
     16  CD2      -31.8630   26.9460  -33.7500 C.ar    3  TYR3       -0.0009
     17  CE1      -31.1620   25.1830  -31.7450 C.ar    3  TYR3        0.0417
     18  CE2      -30.7910   26.0850  -33.9290 C.ar    3  TYR3        0.0417
     19  CZ       -30.4460   25.2080  -32.9220 C.ar    3  TYR3        0.1957
     20  OH       -29.3820   24.3490  -33.0860 O.3     3  TYR3       -0.2866
     21  N        -35.6610   28.3110  -34.9170 N.am    4  THR4       -0.1937
     22  CA       -35.7820   28.4140  -36.3680 C.3     4  THR4        0.2028
     23  C        -34.6940   29.2600  -37.0090 C.2     4  THR4        0.2642
     24  O        -34.4060   29.0680  -38.1970 O.2     4  THR4       -0.2714
     25  CB       -37.1460   28.9980  -36.7680 C.3     4  THR4        0.1808
     26  OG1      -37.2210   30.3820  -36.3960 O.3     4  THR4       -0.2208
     27  CG2      -38.2680   28.2340  -36.0970 C.3     4  THR4        0.0379
     28  N        -34.0960   30.1860  -36.2560 N.am    5  LYS5       -0.1963
     29  CA       -33.0900   31.1640  -36.6690 C.3     5  LYS5        0.1728
     30  C        -33.7160   32.3200  -37.4460 C.2     5  LYS5        0.2617
     31  O        -32.9860   33.2370  -37.8380 O.2     5  LYS5       -0.2715
     32  CB       -31.9620   30.5510  -37.5170 C.3     5  LYS5        0.0311
     33  CG       -31.0420   29.6030  -36.7620 C.3     5  LYS5        0.0038
     34  CD       -29.8800   29.1570  -37.6400 C.3     5  LYS5        0.0206
     35  CE       -28.8930   28.3030  -36.8630 C.3     5  LYS5        0.1093
     36  NZ       -27.7420   27.8630  -37.7010 N.3     5  LYS5       -0.1314
     37  N        -35.0320   32.3160  -37.6780 N.am    6  THR6       -0.1937
     38  CA       -35.6920   33.3970  -38.4080 C.3     6  THR6        0.2028
     39  C        -35.6700   34.7270  -37.6650 C.2     6  THR6        0.2643
     40  O        -36.0090   35.7530  -38.2630 O.2     6  THR6       -0.2714
     41  CB       -37.1370   33.0130  -38.7220 C.3     6  THR6        0.1808
     42  OG1      -37.8390   32.7610  -37.4990 O.3     6  THR6       -0.2208
     43  CG2      -37.1720   31.7650  -39.5900 C.3     6  THR6        0.0379
     44  N        -35.3000   34.7350  -36.3900 N.am    7  GLY7       -0.1939
     45  CA       -35.1890   35.9510  -35.6150 C.3     7  GLY7        0.2014
     46  C        -33.7670   36.4130  -35.3830 C.2     7  GLY7        0.2638
     47  O        -33.5490   37.3050  -34.5550 O.2     7  GLY7       -0.2714
     48  N        -32.7890   35.8360  -36.0870 N.am    8  ASP8       -0.1971
     49  CA       -31.3920   36.2030  -35.8890 C.3     8  ASP8        0.1709
     50  C        -31.0630   37.6020  -36.3970 C.2     8  ASP8        0.2293
     51  O        -30.0820   38.1980  -35.9340 O.2     8  ASP8       -0.2864
     52  CB       -30.4930   35.1790  -36.5800 C.3     8  ASP8        0.1436
     53  CG       -30.3570   33.8890  -35.7870 C.2     8  ASP8        0.3671
     54  OD1      -30.7830   33.8510  -34.6100 O.co2   8  ASP8       -0.2456
     55  OD2      -29.8200   32.9100  -36.3450 O.co2   8  ASP8       -0.2456
     56  N        -35.8330   40.5900  -36.2330 N.3    11  PHE11      -0.1227
     57  CA       -37.2370   40.7570  -36.5830 C.3    11  PHE11       0.1736
     58  C        -38.0190   39.5500  -36.0830 C.2    11  PHE11       0.2596
     59  O        -37.4740   38.4520  -35.9430 O.2    11  PHE11      -0.2718
     60  CB       -37.4290   40.9180  -38.1120 C.3    11  PHE11       0.0547
     61  CG       -36.8040   42.1710  -38.6700 C.ar   11  PHE11      -0.0202
     62  CD1      -35.5480   42.1210  -39.2540 C.ar   11  PHE11      -0.0042
     63  CD2      -37.4470   43.3980  -38.5830 C.ar   11  PHE11      -0.0042
     64  CE1      -34.9460   43.2650  -39.7510 C.ar   11  PHE11      -0.0003
     65  CE2      -36.8460   44.5510  -39.0800 C.ar   11  PHE11      -0.0003
     66  CZ       -35.5940   44.4800  -39.6640 C.ar   11  PHE11      -0.0000
     67  N        -39.3040   39.7530  -35.8170 N.am   12  SER12      -0.1938
     68  CA       -40.1390   38.6630  -35.3380 C.3    12  SER12       0.2055
     69  C        -41.5630   38.8900  -35.8230 C.2    12  SER12       0.2644
     70  O        -41.8590   39.8740  -36.5070 O.2    12  SER12      -0.2714
     71  CB       -40.0650   38.5340  -33.8180 C.3    12  SER12       0.2130
     72  OG       -40.4100   37.2210  -33.4200 O.3    12  SER12      -0.2179
     73  N        -42.4510   37.9770  -35.4430 N.am   13  SER13      -0.1935
     74  CA       -43.8190   37.9560  -35.9380 C.3    13  SER13       0.2055
     75  C        -44.7990   38.2580  -34.8150 C.2    13  SER13       0.2644
     76  O        -44.6300   37.7840  -33.6870 O.2    13  SER13      -0.2714
     77  CB       -44.1610   36.5890  -36.5330 C.3    13  SER13       0.2130
     78  OG       -43.4110   36.3260  -37.7020 O.3    13  SER13      -0.2179
     79  N        -45.8250   39.0410  -35.1350 N.am   14  THR14      -0.1936
     80  CA       -47.0130   39.1400  -34.3050 C.3    14  THR14       0.2028
     81  C        -47.9730   38.0000  -34.6410 C.2    14  THR14       0.2642
     82  O        -47.7730   37.2450  -35.5980 O.2    14  THR14      -0.2714
     83  CB       -47.7020   40.4900  -34.5000 C.3    14  THR14       0.1808
     84  OG1      -48.3080   40.5300  -35.7970 O.3    14  THR14      -0.2208
     85  CG2      -46.6940   41.6220  -34.3840 C.3    14  THR14       0.0379
     86  N        -49.0320   37.8780  -33.8420 N.am   15  PHE15      -0.1973
     87  CA       -50.0280   36.8400  -34.0960 C.3    15  PHE15       0.1639
     88  C        -50.9160   37.1520  -35.2950 C.2    15  PHE15       0.2290
     89  O        -51.7340   36.3020  -35.6710 O.2    15  PHE15      -0.2864
     90  CB       -50.8650   36.5910  -32.8400 C.3    15  PHE15       0.0560
     91  CG       -50.1120   35.8710  -31.7440 C.ar   15  PHE15      -0.0200
     92  CD1      -48.7580   35.5950  -31.8790 C.ar   15  PHE15      -0.0042
     93  CD2      -50.7570   35.4610  -30.5880 C.ar   15  PHE15      -0.0042
     94  CE1      -48.0590   34.9380  -30.8820 C.ar   15  PHE15      -0.0003
     95  CE2      -50.0620   34.7980  -29.5850 C.ar   15  PHE15      -0.0003
     96  CZ       -48.7120   34.5380  -29.7330 C.ar   15  PHE15      -0.0000
     97  N        -44.5470   41.1990  -39.5330 N.3    19  ARG19      -0.1245
     98  CA       -43.1790   41.1300  -39.0360 C.3    19  ARG19       0.1563
     99  C        -42.6860   42.5150  -38.6360 C.2    19  ARG19       0.2260
    100  O        -42.7930   43.4670  -39.4150 O.2    19  ARG19      -0.2867
    101  CB       -42.2680   40.5030  -40.0900 C.3    19  ARG19       0.0307
    102  CG       -42.3160   38.9900  -40.0010 C.3    19  ARG19       0.0489
    103  CD       -41.2480   38.3130  -40.8020 C.3    19  ARG19       0.2205
    104  NE       -39.9730   38.2230  -40.0920 N.pl3  19  ARG19      -0.0865
    105  CZ       -39.7160   37.4070  -39.0710 C.cat  19  ARG19       0.5346
    106  NH1      -40.6530   36.6000  -38.5840 N.pl3  19  ARG19       0.1354
    107  NH2      -38.5090   37.4070  -38.5240 N.pl3  19  ARG19       0.1354
    108  N        -37.6880   43.6510  -33.1900 N.3    22  LYS22      -0.1245
    109  CA       -37.9130   43.1110  -31.8550 C.3    22  LYS22       0.1561
    110  C        -37.9950   44.1780  -30.7680 C.2    22  LYS22       0.2260
    111  O        -38.3770   43.8470  -29.6410 O.2    22  LYS22      -0.2867
    112  CB       -36.8240   42.0900  -31.5120 C.3    22  LYS22       0.0271
    113  CG       -36.9180   40.8080  -32.3270 C.3    22  LYS22       0.0035
    114  CD       -35.9790   39.7290  -31.8040 C.3    22  LYS22       0.0206
    115  CE       -36.2130   38.4090  -32.5230 C.3    22  LYS22       0.1093
    116  NZ       -35.2500   37.3590  -32.1070 N.3    22  LYS22      -0.1314
    117  N        -43.6470   43.7940  -28.5050 N.3    27  PHE27      -0.1241
    118  CA       -42.7590   42.8070  -27.9060 C.3    27  PHE27       0.1605
    119  C        -42.2690   43.2310  -26.5290 C.2    27  PHE27       0.2264
    120  O        -42.0500   42.3720  -25.6760 O.2    27  PHE27      -0.2867
    121  CB       -41.5850   42.5150  -28.8430 C.3    27  PHE27       0.0534
    122  CG       -42.0080   41.9630  -30.1760 C.ar   27  PHE27      -0.0203
    123  CD1      -41.6760   42.6090  -31.3550 C.ar   27  PHE27      -0.0042
    124  CD2      -42.7600   40.8020  -30.2430 C.ar   27  PHE27      -0.0042
    125  CE1      -42.0780   42.0970  -32.5800 C.ar   27  PHE27      -0.0003
    126  CE2      -43.1630   40.2870  -31.4600 C.ar   27  PHE27      -0.0003
    127  CZ       -42.8210   40.9330  -32.6300 C.ar   27  PHE27      -0.0000
    128  N        -45.2430   42.1230  -24.3770 N.3    30  VAL30      -0.1231
    129  CA       -45.3120   40.6680  -24.2560 C.3    30  VAL30       0.1692
    130  C        -44.1750   40.1480  -23.3820 C.2    30  VAL30       0.2592
    131  O        -44.3820   39.3020  -22.5000 O.2    30  VAL30      -0.2718
    132  CB       -45.2940   40.0190  -25.6520 C.3    30  VAL30       0.0266
    133  CG1      -45.0710   38.5170  -25.5410 C.3    30  VAL30       0.0020
    134  CG2      -46.5890   40.3220  -26.3890 C.3    30  VAL30       0.0020
    135  N        -42.9640   40.6680  -23.5870 N.am   31  GLY31      -0.1957
    136  CA       -41.8280   40.2090  -22.8100 C.3    31  GLY31       0.1869
    137  C        -41.9300   40.5710  -21.3430 C.2    31  GLY31       0.2309
    138  O        -41.5220   39.7940  -20.4780 O.2    31  GLY31      -0.2863
    139  N        -50.1270   40.3590  -28.3580 N.3    73  ALA73      -0.1245
    140  CA       -49.4500   40.0120  -29.6020 C.3    73  ALA73       0.1562
    141  C        -50.3350   40.1520  -30.8360 C.2    73  ALA73       0.2260
    142  O        -49.8390   39.9800  -31.9540 O.2    73  ALA73      -0.2867
    143  CB       -48.9030   38.5850  -29.5190 C.3    73  ALA73       0.0290
@<TRIPOS>BOND
     1   103   104    1
     2   103   102    1
     3   104   105    2
     4   101   102    1
     5   101    98    1
     6    64    66   ar
     7    64    62   ar
     8    66    65   ar
     9    43    41    1
    10    97    98    1
    11   100    99    2
    12    62    61   ar
    13    65    63   ar
    14   105   106    1
    15   105   107    1
    16    98    99    1
    17    41    38    1
    18    41    42    1
    19    61    63   ar
    20    61    60    1
    21    38    37    1
    22    38    39    1
    23    40    39    2
    24    24    23    2
    25    60    57    1
    26    31    30    2
    27    78    77    1
    28    36    35    1
    29    37    30   am
    30    39    44   am
    31    34    35    1
    32    34    33    1
    33    32    33    1
    34    32    29    1
    35    30    29    1
    36    23    22    1
    37    23    28   am
    38    25    26    1
    39    25    22    1
    40    25    27    1
    41    29    28    1
    42    57    56    1
    43    57    58    1
    44    52    49    1
    45    52    53    1
    46    77    74    1
    47    70    69    2
    48    50    51    2
    49    50    49    1
    50    44    45    1
    51    22    21    1
    52    55    53   ar
    53    48    49    1
    54    48    46   am
    55    58    59    2
    56    58    67   am
    57    74    73    1
    58    74    75    1
    59    69    73   am
    60    69    68    1
    61    67    68    1
    62    84    83    1
    63    53    54   ar
    64    89    88    2
    65    45    46    1
    66    82    81    2
    67    46    47    2
    68    68    71    1
    69    88    87    1
    70    79    75   am
    71    79    80    1
    72    12    11    2
    73    21    11   am
    74    75    76    2
    75    81    80    1
    76    81    86   am
    77    83    85    1
    78    83    80    1
    79    11    10    1
    80    87    86    1
    81    87    90    1
    82    18    16   ar
    83    18    19   ar
    84    71    72    1
    85    16    14   ar
    86   108   109    1
    87    20    19    1
    88    19    17   ar
    89    90    91    1
    90    10    13    1
    91    10     9    1
    92   127   125   ar
    93   127   126   ar
    94   125   123   ar
    95    14    13    1
    96    14    15   ar
    97   115   116    1
    98   115   114    1
    99   113   114    1
   100   113   112    1
   101     9     3   am
   102     1     2    1
   103   142   141    2
   104    92    91   ar
   105    92    94   ar
   106   109   112    1
   107   109   110    1
   108    17    15   ar
   109    91    93   ar
   110     3     4    2
   111     3     2    1
   112   126   124   ar
   113   123   122   ar
   114     2     5    1
   115    94    96   ar
   116   141   140    1
   117   110   111    2
   118    93    95   ar
   119   124   122   ar
   120   122   121    1
   121    96    95   ar
   122     5     6    1
   123     5     7    1
   124   140   143    1
   125   140   139    1
   126     8     6    1
   127   121   118    1
   128   117   118    1
   129   118   119    1
   130   119   120    2
   131   134   132    1
   132   132   133    1
   133   132   129    1
   134   128   129    1
   135   129   130    1
   136   135   130   am
   137   135   136    1
   138   130   131    2
   139   136   137    1
   140   137   138    2
