@<TRIPOS>MOLECULE
tmp/6d63J00.pdb
 122 111 0 0 0
SMALL
GASTEIGER

@<TRIPOS>ATOM
      1  N         43.8900  -10.5550  -16.0320 N.3    21  TYR21      -0.1241
      2  CA        42.7870   -9.7790  -15.4680 C.3    21  TYR21       0.1605
      3  C         43.3240   -8.5980  -14.6740 C.2    21  TYR21       0.2264
      4  O         42.8530   -7.4860  -14.8240 O.2    21  TYR21      -0.2867
      5  CB        41.9010  -10.6530  -14.5770 C.3    21  TYR21       0.0534
      6  CG        40.7390   -9.9120  -13.9480 C.ar   21  TYR21      -0.0201
      7  CD1       39.5710   -9.7050  -14.6480 C.ar   21  TYR21      -0.0009
      8  CD2       40.8050   -9.4400  -12.6380 C.ar   21  TYR21      -0.0009
      9  CE1       38.4870   -9.0320  -14.0810 C.ar   21  TYR21       0.0417
     10  CE2       39.7380   -8.7700  -12.0580 C.ar   21  TYR21       0.0417
     11  CZ        38.5760   -8.5650  -12.7940 C.ar   21  TYR21       0.1957
     12  OH        37.5040   -7.9240  -12.2110 O.3    21  TYR21      -0.2866
     13  N         42.8170   -4.5030  -15.2990 N.3    25  LEU25      -0.1245
     14  CA        42.2680   -3.5700  -14.3040 C.3    25  LEU25       0.1561
     15  C         43.1300   -2.3210  -14.2330 C.2    25  LEU25       0.2260
     16  O         42.6070   -1.2130  -14.2240 O.2    25  LEU25      -0.2867
     17  CB        42.1850   -4.1950  -12.9100 C.3    25  LEU25       0.0270
     18  CG        41.1190   -5.2500  -12.6320 C.3    25  LEU25       0.0019
     19  CD1       41.5640   -6.0900  -11.3950 C.3    25  LEU25       0.0001
     20  CD2       39.6990   -4.7680  -12.6030 C.3    25  LEU25       0.0001
     21  N         28.5420  -10.4010  -10.0370 N.3    45  ARG45      -0.1245
     22  CA        29.6320   -9.7210   -9.3890 C.3    45  ARG45       0.1563
     23  C         29.1090   -8.9200   -8.2100 C.2    45  ARG45       0.2260
     24  O         28.3370   -7.9870   -8.3800 O.2    45  ARG45      -0.2867
     25  CB        30.3550   -8.8210  -10.3550 C.3    45  ARG45       0.0307
     26  CG        31.5750   -8.1090   -9.7970 C.3    45  ARG45       0.0489
     27  CD        32.2030   -7.2770  -10.9090 C.3    45  ARG45       0.2205
     28  NE        33.2710   -6.4310  -10.3890 N.pl3  45  ARG45      -0.0865
     29  CZ        33.0940   -5.2360   -9.8450 C.cat  45  ARG45       0.5346
     30  NH1       31.8880   -4.6840   -9.7000 N.pl3  45  ARG45       0.1354
     31  NH2       34.1350   -4.5610   -9.3830 N.pl3  45  ARG45       0.1354
     32  N         32.4450   -3.8100   -4.6550 N.3    48  ALA48      -0.1245
     33  CA        32.6940   -3.1430   -3.3810 C.3    48  ALA48       0.1562
     34  C         31.4900   -2.3690   -2.8690 C.2    48  ALA48       0.2260
     35  O         31.2800   -2.2930   -1.6710 O.2    48  ALA48      -0.2867
     36  CB        33.9110   -2.2340   -3.4840 C.3    48  ALA48       0.0290
     37  N         31.1810   -1.8510  -16.4460 N.3    62  ARG62      -0.1245
     38  CA        32.5610   -1.6150  -16.8630 C.3    62  ARG62       0.1563
     39  C         32.6630   -0.4470  -17.8230 C.2    62  ARG62       0.2260
     40  O         33.6540    0.2800  -17.7880 O.2    62  ARG62      -0.2867
     41  CB        33.1650   -2.8460  -17.5410 C.3    62  ARG62       0.0307
     42  CG        33.1420   -4.1160  -16.7380 C.3    62  ARG62       0.0489
     43  CD        34.4440   -4.3560  -15.9870 C.3    62  ARG62       0.2205
     44  NE        34.3510   -5.6560  -15.3270 N.pl3  62  ARG62      -0.0865
     45  CZ        35.0210   -5.9950  -14.2320 C.cat  62  ARG62       0.5346
     46  NH1       35.8520   -5.1320  -13.6440 N.pl3  62  ARG62       0.1354
     47  NH2       34.8590   -7.2080  -13.7140 N.pl3  62  ARG62       0.1354
     48  N         32.4610    2.9250  -15.6260 N.3    65  ARG65      -0.1245
     49  CA        33.2910    3.0580  -14.4230 C.3    65  ARG65       0.1563
     50  C         34.4220    4.0580  -14.5810 C.2    65  ARG65       0.2260
     51  O         35.0770    4.1030  -15.6410 O.2    65  ARG65      -0.2867
     52  CB        33.8760    1.6950  -14.0520 C.3    65  ARG65       0.0307
     53  CG        34.5970    1.6850  -12.7300 C.3    65  ARG65       0.0489
     54  CD        35.2420    0.3370  -12.4580 C.3    65  ARG65       0.2205
     55  NE        36.3080    0.4620  -11.4620 N.pl3  65  ARG65      -0.0865
     56  CZ        36.7340   -0.5060  -10.6440 C.cat  65  ARG65       0.5346
     57  NH1       36.1890   -1.7130  -10.6700 N.pl3  65  ARG65       0.1354
     58  NH2       37.7040   -0.2510   -9.7760 N.pl3  65  ARG65       0.1354
     59  N         40.2450    4.5020  -10.7700 N.3    68  ASN68      -0.1240
     60  CA        40.8740    5.2340   -9.6690 C.3    68  ASN68       0.1653
     61  C         42.3300    5.6200   -9.9500 C.2    68  ASN68       0.2266
     62  O         42.7300    6.7100   -9.6110 O.2    68  ASN68      -0.2867
     63  CB        40.7050    4.5260   -8.3270 C.3    68  ASN68       0.1155
     64  CG        41.4060    3.1740   -8.2520 C.2    68  ASN68       0.2627
     65  OD1       42.6260    3.0680   -8.3500 O.2    68  ASN68      -0.2716
     66  ND2       40.6100    2.1290   -8.0590 N.am   68  ASN68      -0.0877
     67  N         46.8020   -0.3050   -6.1010 N.3    72  LYS72      -0.1197
     68  CA        46.2250   -1.3880   -5.2750 C.3    72  LYS72       0.1778
     69  C         47.4070   -2.3300   -5.1520 C.2    72  LYS72       0.2305
     70  O         47.8290   -2.9270   -6.1510 O.2    72  LYS72      -0.2863
     71  CB        45.0560   -1.9700   -6.0740 C.2    72  LYS72      -0.0042
     72  CG        44.6680   -3.4290   -5.8150 C.2    72  LYS72      -0.0273
     73  CD        43.4040   -3.8910   -6.4460 C.3    72  LYS72       0.0462
     74  CE        43.5420   -5.2440   -7.1530 C.3    72  LYS72       0.1140
     75  NZ        42.2810   -5.7000   -7.7750 N.3    72  LYS72      -0.1310
     76  N         44.3790   -7.1850   -0.8050 N.3    93  PHE93      -0.1241
     77  CA        45.1250   -6.0320   -1.2690 C.3    93  PHE93       0.1605
     78  C         44.9420   -4.8520   -0.3260 C.2    93  PHE93       0.2264
     79  O         44.1020   -4.8780    0.5960 O.2    93  PHE93      -0.2867
     80  CB        44.7270   -5.6680   -2.7080 C.3    93  PHE93       0.0534
     81  CG        43.2630   -5.2980   -2.8730 C.ar   93  PHE93      -0.0203
     82  CD1       42.3140   -6.2820   -3.1320 C.ar   93  PHE93      -0.0042
     83  CD2       42.8530   -4.0010   -2.7910 C.ar   93  PHE93      -0.0042
     84  CE1       40.9800   -5.9850   -3.3060 C.ar   93  PHE93      -0.0003
     85  CE2       41.5220   -3.6650   -2.9680 C.ar   93  PHE93      -0.0003
     86  CZ        40.5760   -4.6690   -3.2340 C.ar   93  PHE93      -0.0000
     87  N         45.4600   -0.2870   -0.1120 N.3    95  ARG95      -0.1245
     88  CA        45.7230    0.9690   -0.8150 C.3    95  ARG95       0.1563
     89  C         46.2440    1.9860    0.1670 C.2    95  ARG95       0.2260
     90  O         45.7080    2.1180    1.2690 O.2    95  ARG95      -0.2867
     91  CB        44.4770    1.5320   -1.5260 C.3    95  ARG95       0.0307
     92  CG        44.4160    1.1890   -2.9870 C.3    95  ARG95       0.0489
     93  CD        43.0770    1.5700   -3.5890 C.3    95  ARG95       0.2205
     94  NE        42.6880    0.7690   -4.7560 N.pl3  95  ARG95      -0.0865
     95  CZ        41.6180   -0.0340   -4.8260 C.cat  95  ARG95       0.5346
     96  NH1       40.8200   -0.2000   -3.7820 N.pl3  95  ARG95       0.1354
     97  NH2       41.3810   -0.6930   -5.9280 N.pl3  95  ARG95       0.1354
     98  N         39.3220   -9.8780   -2.8170 N.3   105  GLN105     -0.1245
     99  CA        38.7040  -10.1860   -4.0960 C.3   105  GLN105      0.1566
    100  C         38.6860  -11.6930   -4.3020 C.2   105  GLN105      0.2260
    101  O         39.7360  -12.3260   -4.2610 O.2   105  GLN105     -0.2867
    102  CB        39.4280   -9.4810   -5.2360 C.3   105  GLN105      0.0367
    103  CG        39.0160   -9.8800   -6.6400 C.3   105  GLN105      0.0905
    104  CD        39.8420   -9.1650   -7.7090 C.2   105  GLN105      0.2608
    105  OE1       39.4850   -8.0650   -8.0400 O.2   105  GLN105     -0.2717
    106  NE2       40.8520   -9.8200   -8.3220 N.am  105  GLN105     -0.0878
    107  N         37.2260  -14.8730   -6.8730 N.3   107  GLN107     -0.1245
    108  CA        36.7170  -15.2150   -8.1950 C.3   107  GLN107      0.1566
    109  C         36.6200  -16.7280   -8.3280 C.2   107  GLN107      0.2260
    110  O         37.4620  -17.4510   -7.7900 O.2   107  GLN107     -0.2867
    111  CB        37.6390  -14.7040   -9.3030 C.3   107  GLN107      0.0367
    112  CG        37.8410  -13.1950   -9.3550 C.3   107  GLN107      0.0905
    113  CD        38.8980  -12.7840  -10.3460 C.2   107  GLN107      0.2608
    114  OE1       39.8190  -13.5170  -10.6150 O.2   107  GLN107     -0.2717
    115  NE2       38.7740  -11.6150  -10.8690 N.am  107  GLN107     -0.0878
    116  N         34.0120   -8.6370   -4.3290 N.3   123  VAL123     -0.1245
    117  CA        35.0450   -7.6950   -3.8680 C.3   123  VAL123      0.1561
    118  C         34.4950   -6.9600   -2.6570 C.2   123  VAL123      0.2260
    119  O         33.3360   -6.5610   -2.6400 O.2   123  VAL123     -0.2867
    120  CB        35.4000   -6.6850   -4.9670 C.3   123  VAL123      0.0252
    121  CG1       36.4470   -5.6690   -4.5050 C.3   123  VAL123      0.0019
    122  CG2       35.8920   -7.4110   -6.2000 C.3   123  VAL123      0.0019
@<TRIPOS>BOND
     1    39    40    2
     2    39    38    1
     3    41    38    1
     4    41    42    1
     5    38    37    1
     6    42    43    1
     7     1     2    1
     8    43    44    1
     9    51    50    2
    10    48    49    1
    11     2     3    1
    12     2     5    1
    13    44    45    2
    14    13    14    1
    15     4     3    2
    16     7     9   ar
    17     7     6   ar
    18    50    49    1
    19     5     6    1
    20    49    52    1
    21    14    15    1
    22    14    17    1
    23    15    16    2
    24    45    47    1
    25    45    46    1
    26     9    11   ar
    27    52    53    1
    28     6     8   ar
    29    17    18    1
    30    11    12    1
    31    11    10   ar
    32    53    54    1
    33     8    10   ar
    34    18    20    1
    35    18    19    1
    36    54    55    1
    37    55    56    2
    38    27    28    1
    39    27    26    1
    40   115   113   am
    41    59    60    1
    42    57    56    1
    43    56    58    1
    44   114   113    2
    45    28    29    2
    46    25    26    1
    47    25    22    1
    48   113   112    1
    49    21    22    1
    50    61    60    1
    51    61    62    2
    52    29    30    1
    53    29    31    1
    54    60    63    1
    55    22    23    1
    56   112   111    1
    57   111   108    1
    58    24    23    2
    59    65    64    2
    60   109   108    1
    61   109   110    2
    62    63    64    1
    63   106   104   am
    64    64    66   am
    65   108   107    1
    66   105   104    2
    67    75    74    1
    68   104   103    1
    69    74    73    1
    70   103   102    1
    71    73    72    1
    72   122   120    1
    73    70    69    2
    74    67    68    1
    75    71    72    2
    76    71    68    1
    77    97    95    1
    78    68    69    1
    79   102    99    1
    80   120   121    1
    81   120   117    1
    82    95    94    2
    83    95    96    1
    84    94    93    1
    85    32    33    1
    86   116   117    1
    87   100   101    2
    88   100    99    1
    89    99    98    1
    90   117   118    1
    91    93    92    1
    92    36    33    1
    93    33    34    1
    94    84    86   ar
    95    84    82   ar
    96    86    85   ar
    97    82    81   ar
    98    92    91    1
    99    85    83   ar
   100    81    83   ar
   101    81    80    1
   102    34    35    2
   103    80    77    1
   104   118   119    2
   105    91    88    1
   106    77    76    1
   107    77    78    1
   108    88    87    1
   109    88    89    1
   110    78    79    2
   111    89    90    2
