@<TRIPOS>MOLECULE
tmp/6d66A02.pdb
 78 72 0 0 0
SMALL
GASTEIGER

@<TRIPOS>ATOM
      1  N        -28.0610    3.3860    2.6120 N.3    21  GLU21      -0.1231
      2  CA       -27.1350    4.4840    2.8510 C.3    21  GLU21       0.1699
      3  C        -25.9400    4.0320    3.6850 C.2    21  GLU21       0.2592
      4  O        -24.8060    4.4720    3.4460 O.2    21  GLU21      -0.2718
      5  CB       -27.8880    5.6220    3.5420 C.3    21  GLU21       0.0402
      6  CG       -27.2280    6.9760    3.5000 C.3    21  GLU21       0.1161
      7  CD       -28.0240    7.9920    4.2840 C.2    21  GLU21       0.3649
      8  OE1      -27.4820    8.5680    5.2600 O.co2  21  GLU21      -0.2457
      9  OE2      -29.2070    8.1830    3.9310 O.co2  21  GLU21      -0.2457
     10  N        -26.1740    3.1680    4.6840 N.am   22  VAL22      -0.1980
     11  CA       -25.0580    2.6210    5.4580 C.3    22  VAL22       0.1595
     12  C        -24.1900    1.7410    4.5700 C.2    22  VAL22       0.2287
     13  O        -22.9550    1.7730    4.6560 O.2    22  VAL22      -0.2864
     14  CB       -25.5660    1.8520    6.6990 C.3    22  VAL22       0.0276
     15  CG1      -24.4000    1.2870    7.5280 C.3    22  VAL22       0.0022
     16  CG2      -26.4270    2.7520    7.5650 C.3    22  VAL22       0.0022
     17  N        -21.7950    3.9150    2.5060 N.3    25  LYS25      -0.1245
     18  CA       -20.6130    4.3010    3.2740 C.3    25  LYS25       0.1561
     19  C        -19.6440    3.1320    3.4260 C.2    25  LYS25       0.2260
     20  O        -18.4240    3.3210    3.3840 O.2    25  LYS25      -0.2867
     21  CB       -21.0220    4.8430    4.6400 C.3    25  LYS25       0.0271
     22  CG       -19.8830    4.9260    5.6450 C.3    25  LYS25       0.0035
     23  CD       -19.1930    6.2790    5.5890 C.3    25  LYS25       0.0206
     24  CE       -17.7950    6.2450    6.2040 C.3    25  LYS25       0.1093
     25  NZ       -16.7580    6.7020    5.2250 N.3    25  LYS25      -0.1314
     26  N        -15.7800    3.0940    1.9010 N.3    29  ASP29      -0.1239
     27  CA       -14.6130    2.8160    2.7310 C.3    29  ASP29       0.1674
     28  C        -13.8540    1.5780    2.2720 C.2    29  ASP29       0.2266
     29  O        -12.6290    1.5130    2.4300 O.2    29  ASP29      -0.2867
     30  CB       -15.0300    2.6250    4.1920 C.3    29  ASP29       0.1410
     31  CG       -15.4010    3.9210    4.8690 C.2    29  ASP29       0.3668
     32  OD1      -15.4910    4.9510    4.1700 O.co2  29  ASP29      -0.2456
     33  OD2      -15.5950    3.9100    6.1060 O.co2  29  ASP29      -0.2456
     34  N        -19.2910   -2.9650   12.6030 N.3   281  ASN281     -0.1225
     35  CA       -18.5730   -1.6980   12.5630 C.3   281  ASN281      0.1785
     36  C        -19.3200   -0.5850   11.8440 C.2   281  ASN281      0.2597
     37  O        -18.9510    0.5790   12.0070 O.2   281  ASN281     -0.2718
     38  CB       -17.2000   -1.8890   11.9110 C.3   281  ASN281      0.1169
     39  CG       -16.2910   -2.7780   12.7380 C.2   281  ASN281      0.2627
     40  OD1      -16.0200   -2.4910   13.9000 O.2   281  ASN281     -0.2716
     41  ND2      -15.8490   -3.8790   12.1530 N.am  281  ASN281     -0.0877
     42  N        -20.3600   -0.8970   11.0700 N.am  282  TYR282     -0.1976
     43  CA       -21.0920    0.1320   10.3360 C.3   282  TYR282      0.1639
     44  C        -22.5400    0.2550   10.7940 C.2   282  TYR282      0.2290
     45  O        -22.9500    1.3440   11.2100 O.2   282  TYR282     -0.2864
     46  CB       -20.9970   -0.1500    8.8310 C.3   282  TYR282      0.0560
     47  CG       -19.6300    0.2160    8.2900 C.ar  282  TYR282     -0.0198
     48  CD1      -18.5060   -0.5590    8.5970 C.ar  282  TYR282     -0.0009
     49  CD2      -19.4490    1.3630    7.5160 C.ar  282  TYR282     -0.0009
     50  CE1      -17.2410   -0.2160    8.1300 C.ar  282  TYR282      0.0417
     51  CE2      -18.1870    1.7130    7.0370 C.ar  282  TYR282      0.0417
     52  CZ       -17.0910    0.9190    7.3460 C.ar  282  TYR282      0.1957
     53  OH       -15.8490    1.2650    6.8770 O.3   282  TYR282     -0.2866
     54  N        -23.8040    1.1010   15.0230 N.3   285  THR285     -0.1218
     55  CA       -23.1990    2.3310   15.5050 C.3   285  THR285      0.1862
     56  C        -24.3050    3.3650   15.6370 C.2   285  THR285      0.2287
     57  O        -25.3570    3.2400   15.0030 O.2   285  THR285     -0.2866
     58  CB       -22.1310    2.8560   14.5280 C.3   285  THR285      0.1770
     59  OG1      -22.7680    3.2170   13.2870 O.3   285  THR285     -0.2211
     60  CG2      -21.0580    1.7790   14.2530 C.3   285  THR285      0.0375
     61  N        -24.3270    6.2680   14.3470 N.3   287  GLU287     -0.1231
     62  CA       -24.5340    6.8430   13.0200 C.3   287  GLU287      0.1699
     63  C        -25.2710    5.8800   12.0950 C.2   287  GLU287      0.2592
     64  O        -26.1390    6.3020   11.3210 O.2   287  GLU287     -0.2718
     65  CB       -23.1890    7.2450   12.4050 C.3   287  GLU287      0.0402
     66  CG       -22.3870    8.2640   13.2160 C.3   287  GLU287      0.1161
     67  CD       -21.7200    7.6570   14.4480 C.2   287  GLU287      0.3649
     68  OE1      -21.3510    8.4200   15.3710 O.co2 287  GLU287     -0.2457
     69  OE2      -21.5780    6.4170   14.5040 O.co2 287  GLU287     -0.2457
     70  N        -24.9270    4.5880   12.1500 N.am  288  GLY288     -0.1957
     71  CA       -25.6090    3.6050   11.3120 C.3   288  GLY288      0.1869
     72  C        -27.0870    3.4620   11.6400 C.2   288  GLY288      0.2309
     73  O        -27.9460    3.5220   10.7530 O.2   288  GLY288     -0.2863
     74  N        -29.1000    6.4960   10.6620 N.3   291  ALA291     -0.1245
     75  CA       -29.4320    6.5350    9.2410 C.3   291  ALA291      0.1562
     76  C        -30.6680    5.6960    8.9470 C.2   291  ALA291      0.2260
     77  O        -31.5570    6.1280    8.2050 O.2   291  ALA291     -0.2867
     78  CB       -28.2370    6.0610    8.4110 C.3   291  ALA291      0.0290
@<TRIPOS>BOND
     1    26    27    1
     2    28    29    2
     3    28    27    1
     4    17    18    1
     5     1     2    1
     6    27    30    1
     7     2     5    1
     8     2     3    1
     9    18    19    1
    10    18    21    1
    11    20    19    2
    12     4     3    2
    13     6     5    1
    14     6     7    1
    15     3    10   am
    16     9     7   ar
    17    32    31   ar
    18    30    31    1
    19     7     8   ar
    20    12    13    2
    21    12    11    1
    22    21    22    1
    23    10    11    1
    24    31    33   ar
    25    25    24    1
    26    11    14    1
    27    23    22    1
    28    23    24    1
    29    14    15    1
    30    14    16    1
    31    53    52    1
    32    51    52   ar
    33    51    49   ar
    34    52    50   ar
    35    49    47   ar
    36    50    48   ar
    37    77    76    2
    38    47    48   ar
    39    47    46    1
    40    78    75    1
    41    46    43    1
    42    76    75    1
    43    75    74    1
    44    43    44    1
    45    43    42    1
    46    73    72    2
    47    44    45    2
    48    42    36   am
    49    71    72    1
    50    71    70    1
    51    64    63    2
    52    36    37    2
    53    36    35    1
    54    38    35    1
    55    38    39    1
    56    63    70   am
    57    63    62    1
    58    41    39   am
    59    65    62    1
    60    65    66    1
    61    35    34    1
    62    39    40    2
    63    62    61    1
    64    66    67    1
    65    59    58    1
    66    60    58    1
    67    67    69   ar
    68    67    68   ar
    69    58    55    1
    70    57    56    2
    71    54    55    1
    72    55    56    1
