@<TRIPOS>MOLECULE
tmp/6d67A01.pdb
 179 175 0 0 0
SMALL
GASTEIGER

@<TRIPOS>ATOM
      1  N         29.1190   -5.8520  -19.0140 N.3    12  ASN12      -0.1240
      2  CA        29.1850   -4.4330  -19.3310 C.3    12  ASN12       0.1653
      3  C         30.5520   -4.0400  -19.9060 C.2    12  ASN12       0.2266
      4  O         31.5730   -4.6900  -19.6560 O.2    12  ASN12      -0.2867
      5  CB        28.8710   -3.6070  -18.0960 C.3    12  ASN12       0.1155
      6  CG        28.3420   -2.2670  -18.4540 C.2    12  ASN12       0.2627
      7  OD1       27.5670   -2.1470  -19.3930 O.2    12  ASN12      -0.2716
      8  ND2       28.7670   -1.2350  -17.7360 N.am   12  ASN12      -0.0877
      9  N         32.5230   -1.7970  -19.1110 N.3    14  ASP14      -0.1225
     10  CA        33.5310   -1.3380  -18.1800 C.3    14  ASP14       0.1805
     11  C         34.1690   -2.4790  -17.4010 C.2    14  ASP14       0.2597
     12  O         35.1080   -2.2350  -16.6340 O.2    14  ASP14      -0.2718
     13  CB        32.9380   -0.2890  -17.2250 C.3    14  ASP14       0.1424
     14  CG        31.6300   -0.7320  -16.5730 C.2    14  ASP14       0.3668
     15  OD1       31.1550   -1.8620  -16.8360 O.co2  14  ASP14      -0.2456
     16  OD2       31.0730    0.0710  -15.7890 O.co2  14  ASP14      -0.2456
     17  N         33.7120   -3.7140  -17.6030 N.am   15  LYS15      -0.1979
     18  CA        34.1890   -4.8490  -16.8390 C.3    15  LYS15       0.1596
     19  C         35.2760   -5.5770  -17.6270 C.2    15  LYS15       0.2287
     20  O         35.5720   -5.2490  -18.7860 O.2    15  LYS15      -0.2864
     21  CB        33.0220   -5.7750  -16.4850 C.3    15  LYS15       0.0298
     22  CG        31.8760   -5.1120  -15.6960 C.3    15  LYS15       0.0038
     23  CD        32.4030   -4.3290  -14.5180 C.3    15  LYS15       0.0206
     24  CE        31.3160   -4.0060  -13.5210 C.3    15  LYS15       0.1093
     25  NZ        30.2010   -3.3210  -14.1940 N.3    15  LYS15      -0.1314
     26  N         21.8790   -3.2450  -19.7040 N.3    44  GLU44      -0.1245
     27  CA        20.8220   -3.4290  -18.7170 C.3    44  GLU44       0.1567
     28  C         19.4430   -3.1840  -19.3140 C.2    44  GLU44       0.2260
     29  O         18.4680   -3.8210  -18.9000 O.2    44  GLU44      -0.2867
     30  CB        21.0640   -2.4960  -17.5210 C.3    44  GLU44       0.0388
     31  CG        20.7220   -1.0290  -17.7690 C.3    44  GLU44       0.1160
     32  CD        21.8240   -0.2430  -18.4820 C.2    44  GLU44       0.3649
     33  OE1       22.6740   -0.8460  -19.1780 O.co2  44  GLU44      -0.2457
     34  OE2       21.8340    0.9990  -18.3530 O.co2  44  GLU44      -0.2457
     35  N         25.3150   -8.5230  -14.5350 N.3    62  TRP62      -0.1227
     36  CA        25.0030   -7.1730  -14.0860 C.3    62  TRP62       0.1737
     37  C         25.0470   -7.1690  -12.5610 C.2    62  TRP62       0.2595
     38  O         25.1470   -8.2200  -11.9260 O.2    62  TRP62      -0.2718
     39  CB        23.6420   -6.6980  -14.6000 C.3    62  TRP62       0.0564
     40  CG        23.5350   -5.2160  -14.5630 C.ar   62  TRP62       0.0003
     41  CD1       22.9480   -4.4640  -13.6030 C.ar   62  TRP62       0.0946
     42  CD2       24.0860   -4.2980  -15.5120 C.ar   62  TRP62       0.0152
     43  NE1       23.0860   -3.1250  -13.8900 N.ar   62  TRP62      -0.2442
     44  CE2       23.7740   -3.0000  -15.0680 C.ar   62  TRP62       0.0810
     45  CE3       24.8070   -4.4500  -16.7010 C.ar   62  TRP62       0.0012
     46  CZ2       24.1510   -1.8610  -15.7740 C.ar   62  TRP62       0.0191
     47  CZ3       25.1830   -3.3190  -17.3930 C.ar   62  TRP62       0.0001
     48  CH2       24.8550   -2.0390  -16.9240 C.ar   62  TRP62       0.0015
     49  N         25.0170   -5.9730  -11.9730 N.am   63  ALA63      -0.1980
     50  CA        24.8630   -5.9090  -10.5330 C.3    63  ALA63       0.1597
     51  C         23.4890   -6.4490  -10.1660 C.2    63  ALA63       0.2287
     52  O         22.5380   -6.3740  -10.9460 O.2    63  ALA63      -0.2864
     53  CB        25.0390   -4.4830  -10.0110 C.3    63  ALA63       0.0319
     54  N         21.0420   -5.5210   -8.5640 N.3    65  ASP65      -0.1225
     55  CA        19.8450   -4.6900   -8.4020 C.3    65  ASP65       0.1805
     56  C         18.8210   -4.8710   -9.5320 C.2    65  ASP65       0.2597
     57  O         17.6190   -4.7270   -9.2900 O.2    65  ASP65      -0.2718
     58  CB        20.2320   -3.2050   -8.2330 C.3    65  ASP65       0.1424
     59  CG        20.7550   -2.5590   -9.5070 C.2    65  ASP65       0.3668
     60  OD1       21.8370   -2.9460   -9.9990 O.co2  65  ASP65      -0.2456
     61  OD2       20.0880   -1.6340  -10.0150 O.co2  65  ASP65      -0.2456
     62  N         19.2560   -5.1830  -10.7600 N.am   66  ARG66      -0.1979
     63  CA        18.3280   -5.3810  -11.8780 C.3    66  ARG66       0.1597
     64  C         17.7350   -6.7870  -11.9360 C.2    66  ARG66       0.2287
     65  O         16.8510   -7.0250  -12.7660 O.2    66  ARG66      -0.2864
     66  CB        19.0180   -5.1300  -13.2230 C.3    66  ARG66       0.0334
     67  CG        19.4130   -3.7110  -13.5030 C.3    66  ARG66       0.0492
     68  CD        18.3370   -2.9440  -14.2040 C.3    66  ARG66       0.2205
     69  NE        18.8220   -1.6120  -14.5610 N.pl3  66  ARG66      -0.0865
     70  CZ        18.0400   -0.5610  -14.7860 C.cat  66  ARG66       0.5346
     71  NH1       16.7230   -0.6760  -14.6850 N.pl3  66  ARG66       0.1354
     72  NH2       18.5720    0.6120  -15.1020 N.pl3  66  ARG66       0.1354
     73  N         30.8370   -4.5180   -5.2160 N.3   111  GLU111     -0.1245
     74  CA        31.2940   -3.2700   -5.8050 C.3   111  GLU111      0.1567
     75  C         30.8370   -2.0920   -4.9600 C.2   111  GLU111      0.2260
     76  O         29.7040   -2.0630   -4.4710 O.2   111  GLU111     -0.2867
     77  CB        30.7660   -3.0810   -7.2450 C.3   111  GLU111      0.0388
     78  CG        30.8870   -4.2620   -8.1700 C.3   111  GLU111      0.1160
     79  CD        30.2090   -4.0170   -9.5230 C.2   111  GLU111      0.3649
     80  OE1       29.2400   -3.2210   -9.5870 O.co2 111  GLU111     -0.2457
     81  OE2       30.6570   -4.6160  -10.5260 O.co2 111  GLU111     -0.2457
     82  N         24.9450    9.2170  -15.1060 N.3   153  GLU153     -0.1231
     83  CA        24.4710    8.0100  -14.4460 C.3   153  GLU153      0.1684
     84  C         24.2280    8.3090  -12.9730 C.2   153  GLU153      0.2434
     85  O         25.1830    8.6830  -12.2670 O.2   153  GLU153     -0.2733
     86  CB        25.4910    6.8820  -14.6040 C.3   153  GLU153      0.0402
     87  CG        25.4290    6.2090  -15.9340 C.3   153  GLU153      0.1161
     88  CD        24.0840    5.5220  -16.1870 C.2   153  GLU153      0.3649
     89  OE1       23.4180    5.0900  -15.2160 O.co2 153  GLU153     -0.2457
     90  OE2       23.6830    5.4200  -17.3650 O.co2 153  GLU153     -0.2457
     91  N         22.9930    8.1540  -12.4660 N.am  154  PRO154     -0.2718
     92  CA        22.6990    8.5500  -11.0740 C.3   154  PRO154      0.1535
     93  C         23.4780    7.7580  -10.0190 C.2   154  PRO154      0.2599
     94  O         23.6990    8.2770   -8.9180 O.2   154  PRO154     -0.2715
     95  CB        21.1830    8.3170  -10.9590 C.3   154  PRO154      0.0310
     96  CG        20.8480    7.3710  -12.0220 C.3   154  PRO154      0.0237
     97  CD        21.7940    7.6470  -13.1520 C.3   154  PRO154      0.0939
     98  N         23.9120    6.5350  -10.3420 N.am  155  TYR155     -0.1960
     99  CA        24.8070    5.7540   -9.4870 C.3   155  TYR155      0.1771
    100  C         25.9690    6.5800   -8.9480 C.2   155  TYR155      0.2619
    101  O         26.3770    6.4090   -7.7940 O.2   155  TYR155     -0.2715
    102  CB        25.3480    4.5920  -10.3020 C.3   155  TYR155      0.0574
    103  CG        26.2370    3.6020   -9.6070 C.ar  155  TYR155     -0.0198
    104  CD1       25.7010    2.5980   -8.8170 C.ar  155  TYR155     -0.0009
    105  CD2       27.6150    3.6260   -9.7920 C.ar  155  TYR155     -0.0009
    106  CE1       26.5220    1.6560   -8.1930 C.ar  155  TYR155      0.0417
    107  CE2       28.4380    2.6820   -9.1800 C.ar  155  TYR155      0.0417
    108  CZ        27.8850    1.7050   -8.3800 C.ar  155  TYR155      0.1957
    109  OH        28.6820    0.7670   -7.7610 O.3   155  TYR155     -0.2866
    110  N         26.5340    7.4600   -9.7840 N.am  156  PHE156     -0.1974
    111  CA        27.7080    8.2290   -9.3920 C.3   156  PHE156      0.1639
    112  C         27.3650    9.4210   -8.5000 C.2   156  PHE156      0.2290
    113  O         28.2270    9.8690   -7.7360 O.2   156  PHE156     -0.2864
    114  CB        28.4720    8.6920  -10.6380 C.3   156  PHE156      0.0560
    115  CG        29.1080    7.5640  -11.3920 C.ar  156  PHE156     -0.0200
    116  CD1       28.3980    6.8830  -12.3790 C.ar  156  PHE156     -0.0042
    117  CD2       30.3980    7.1630  -11.1010 C.ar  156  PHE156     -0.0042
    118  CE1       28.9600    5.8240  -13.0590 C.ar  156  PHE156     -0.0003
    119  CE2       30.9600    6.1040  -11.7730 C.ar  156  PHE156     -0.0003
    120  CZ        30.2370    5.4270  -12.7550 C.ar  156  PHE156     -0.0000
    121  N         36.7890   -1.5130  -11.2160 N.3   230  TRP230     -0.1241
    122  CA        37.0380   -1.7510  -12.6370 C.3   230  TRP230      0.1605
    123  C         37.8990   -0.6580  -13.2630 C.2   230  TRP230      0.2264
    124  O         38.6900   -0.9330  -14.1730 O.2   230  TRP230     -0.2867
    125  CB        35.6990   -1.8640  -13.3930 C.3   230  TRP230      0.0550
    126  CG        34.7830   -0.6840  -13.1580 C.ar  230  TRP230      0.0003
    127  CD1       34.7840    0.5100  -13.8310 C.ar  230  TRP230      0.0946
    128  CD2       33.7620   -0.5770  -12.1540 C.ar  230  TRP230      0.0152
    129  NE1       33.8230    1.3490  -13.3100 N.ar  230  TRP230     -0.2442
    130  CE2       33.1750    0.7000  -12.2880 C.ar  230  TRP230      0.0810
    131  CE3       33.2790   -1.4450  -11.1630 C.ar  230  TRP230      0.0012
    132  CZ2       32.1450    1.1360  -11.4630 C.ar  230  TRP230      0.0191
    133  CZ3       32.2350   -1.0100  -10.3410 C.ar  230  TRP230      0.0001
    134  CH2       31.6850    0.2690  -10.5000 C.ar  230  TRP230      0.0015
    135  N         26.8360   -2.6790   -5.0200 N.3   260  GLY260     -0.1225
    136  CA        26.3570   -3.6280   -6.0190 C.3   260  GLY260      0.1811
    137  C         27.1090   -4.9440   -5.9410 C.2   260  GLY260      0.2280
    138  O         28.3120   -4.9730   -5.6630 O.2   260  GLY260     -0.2866
    139  N         28.0850   -7.8140   -8.3390 N.3   262  LEU262     -0.1245
    140  CA        28.1290   -8.3080   -9.7050 C.3   262  LEU262      0.1561
    141  C         27.6910   -9.7670   -9.7310 C.2   262  LEU262      0.2260
    142  O         28.1560  -10.5860   -8.9230 O.2   262  LEU262     -0.2867
    143  CB        29.5360   -8.1400  -10.2940 C.3   262  LEU262      0.0270
    144  CG        29.6400   -8.5100  -11.7860 C.3   262  LEU262      0.0019
    145  CD1       28.8150   -7.5630  -12.6080 C.3   262  LEU262      0.0001
    146  CD2       31.0740   -8.5180  -12.2870 C.3   262  LEU262      0.0001
    147  N         22.1480   -2.4000   -2.6100 N.3   330  MET330     -0.1245
    148  CA        20.9500   -2.0520   -3.3530 C.3   330  MET330      0.1570
    149  C         19.8820   -3.1140   -3.1280 C.2   330  MET330      0.2261
    150  O         20.2020   -4.2990   -2.9820 O.2   330  MET330     -0.2867
    151  CB        21.2430   -1.9300   -4.8550 C.3   330  MET330      0.0387
    152  CG        22.2520   -0.8710   -5.2260 C.3   330  MET330      0.0595
    153  SD        22.4080   -0.6750   -7.0180 S.3   330  MET330     -0.1393
    154  CE        23.7610   -1.7950   -7.3710 C.3   330  MET330      0.0692
    155  N         15.6270    3.8680  -10.7580 N.3   340  TRP340     -0.1241
    156  CA        16.8370    4.3770  -11.4020 C.3   340  TRP340      0.1605
    157  C         16.5030    5.3150  -12.5460 C.2   340  TRP340      0.2264
    158  O         17.1400    6.3640  -12.6970 O.2   340  TRP340     -0.2867
    159  CB        17.7130    3.2290  -11.9040 C.3   340  TRP340      0.0550
    160  CG        18.5710    2.6330  -10.8380 C.ar  340  TRP340      0.0003
    161  CD1       18.6220    1.3210  -10.4740 C.ar  340  TRP340      0.0946
    162  CD2       19.4940    3.3230   -9.9840 C.ar  340  TRP340      0.0152
    163  NE1       19.5170    1.1460   -9.4550 N.ar  340  TRP340     -0.2442
    164  CE2       20.0740    2.3580   -9.1370 C.ar  340  TRP340      0.0810
    165  CE3       19.8970    4.6620   -9.8610 C.ar  340  TRP340      0.0012
    166  CZ2       21.0290    2.6850   -8.1720 C.ar  340  TRP340      0.0191
    167  CZ3       20.8460    4.9850   -8.9100 C.ar  340  TRP340      0.0001
    168  CH2       21.4040    4.0000   -8.0770 C.ar  340  TRP340      0.0015
    169  N         17.7990    9.1360  -12.5550 N.3   344  ARG344     -0.1245
    170  CA        18.5840    9.5550  -13.7190 C.3   344  ARG344      0.1563
    171  C         18.0250   10.8270  -14.3440 C.2   344  ARG344      0.2260
    172  O         18.7730   11.7700  -14.6290 O.2   344  ARG344     -0.2867
    173  CB        18.6370    8.4220  -14.7550 C.3   344  ARG344      0.0307
    174  CG        19.4100    8.7300  -16.0540 C.3   344  ARG344      0.0489
    175  CD        19.4660    7.5180  -16.9850 C.3   344  ARG344      0.2205
    176  NE        20.2550    6.4070  -16.4290 N.pl3 344  ARG344     -0.0865
    177  CZ        19.7920    5.1710  -16.1960 C.cat 344  ARG344      0.5346
    178  NH1       18.5270    4.8510  -16.4620 N.pl3 344  ARG344      0.1354
    179  NH2       20.5930    4.2400  -15.6930 N.pl3 344  ARG344      0.1354
@<TRIPOS>BOND
     1     3     4    2
     2     3     2    1
     3    26    27    1
     4     7     6    2
     5     2     1    1
     6     2     5    1
     7    28    29    2
     8    28    27    1
     9    33    32   ar
    10     9    10    1
    11    20    19    2
    12    27    30    1
    13    32    34   ar
    14    32    31    1
    15     6     5    1
    16     6     8   am
    17    10    11    1
    18    10    13    1
    19    31    30    1
    20    19    18    1
    21    17    11   am
    22    17    18    1
    23    11    12    2
    24    47    48   ar
    25    47    45   ar
    26    90    88   ar
    27    13    14    1
    28   175   176    1
    29   175   174    1
    30    48    46   ar
    31    18    21    1
    32    15    14   ar
    33    45    42   ar
    34    14    16   ar
    35    21    22    1
    36   178   177    1
    37   176   177    2
    38   177   179    1
    39    88    87    1
    40    88    89   ar
    41   174   173    1
    42    87    86    1
    43    46    44   ar
    44    22    23    1
    45    42    44   ar
    46    42    40   ar
    47    82    83    1
    48    72    70    1
    49    44    43   ar
    50    70    71    1
    51    70    69    2
    52   173   170    1
    53   172   171    2
    54    86    83    1
    55    39    40    1
    56    39    36    1
    57    40    41   ar
    58    69    68    1
    59    35    36    1
    60    23    24    1
    61    83    84    1
    62   171   170    1
    63    68    67    1
    64    25    24    1
    65   124   123    2
    66    36    37    1
    67    43    41   ar
    68   127   129   ar
    69   127   126   ar
    70   170   169    1
    71    67    66    1
    72   125   126    1
    73   125   122    1
    74   129   130   ar
    75   123   122    1
    76    66    63    1
    77   126   128   ar
    78    97    91    1
    79    97    96    1
    80   118   120   ar
    81   118   116   ar
    82    84    91   am
    83    84    85    2
    84    65    64    2
    85   120   119   ar
    86   158   157    2
    87   122   121    1
    88   145   144    1
    89    37    49   am
    90    37    38    2
    91   157   156    1
    92    91    92    1
    93   116   115   ar
    94   130   128   ar
    95   130   132   ar
    96   146   144    1
    97   128   131   ar
    98    96    95    1
    99    49    50    1
   100    64    63    1
   101   159   156    1
   102   159   160    1
   103    63    62    1
   104   144   143    1
   105   119   117   ar
   106   132   134   ar
   107   156   155    1
   108   115   117   ar
   109   115   114    1
   110   131   133   ar
   111    92    95    1
   112    92    93    1
   113    52    51    2
   114   160   161   ar
   115   160   162   ar
   116    62    56   am
   117   114   111    1
   118    50    51    1
   119    50    53    1
   120    81    79   ar
   121   134   133   ar
   122   161   163   ar
   123    98    93   am
   124    98    99    1
   125   102   103    1
   126   102    99    1
   127   143   140    1
   128    93    94    2
   129    61    59   ar
   130    60    59   ar
   131   162   165   ar
   132   162   164   ar
   133   165   167   ar
   134   105   103   ar
   135   105   107   ar
   136   110   111    1
   137   110   100   am
   138   141   140    1
   139   141   142    2
   140   140   139    1
   141   103   104   ar
   142    80    79   ar
   143    56    57    2
   144    56    55    1
   145    79    78    1
   146    59    58    1
   147    99   100    1
   148   163   164   ar
   149   111   112    1
   150   107   108   ar
   151   164   166   ar
   152   100   101    2
   153   167   168   ar
   154   104   106   ar
   155    54    55    1
   156   112   113    2
   157    55    58    1
   158   108   106   ar
   159   108   109    1
   160   166   168   ar
   161    78    77    1
   162   154   153    1
   163    77    74    1
   164   153   152    1
   165   136   137    1
   166   136   135    1
   167   137   138    2
   168    74    73    1
   169    74    75    1
   170   152   151    1
   171    75    76    2
   172   151   148    1
   173   148   149    1
   174   148   147    1
   175   149   150    2
