@<TRIPOS>MOLECULE
tmp/6d6bB00.pdb
 218 208 0 0 0
SMALL
GASTEIGER

@<TRIPOS>ATOM
      1  N         48.2770    8.5740   77.8060 N.3    34  LEU34      -0.1245
      2  CA        48.2050    9.9160   77.3280 C.3    34  LEU34       0.1561
      3  C         49.6030   10.3290   76.8160 C.2    34  LEU34       0.2260
      4  O         50.6070   10.1740   77.5300 O.2    34  LEU34      -0.2867
      5  CB        47.6750   10.8630   78.3650 C.3    34  LEU34       0.0270
      6  CG        47.5860   12.3560   78.0400 C.3    34  LEU34       0.0019
      7  CD1       46.4890   12.9880   78.8950 C.3    34  LEU34       0.0001
      8  CD2       48.9200   13.0880   78.2040 C.3    34  LEU34       0.0001
      9  N         51.2320   13.7530   75.4310 N.3    36  GLY36      -0.1210
     10  CA        51.0660   15.2300   75.4300 C.3    36  GLY36       0.1956
     11  C         52.3410   15.8900   74.9570 C.2    36  GLY36       0.2612
     12  O         53.4330   15.4100   75.2580 O.2    36  GLY36      -0.2717
     13  N         52.1750   16.9470   74.1420 N.am   37  LEU37      -0.1965
     14  CA        53.3360   17.6250   73.5990 C.3    37  LEU37       0.1728
     15  C         53.0390   19.1280   73.4880 C.2    37  LEU37       0.2616
     16  O         51.9190   19.5170   73.0340 O.2    37  LEU37      -0.2715
     17  CB        53.6850   16.9340   72.2720 C.3    37  LEU37       0.0311
     18  CG        55.1080   17.1500   71.7620 C.3    37  LEU37       0.0022
     19  CD1       56.1120   16.5670   72.7470 C.3    37  LEU37       0.0001
     20  CD2       55.1930   16.4830   70.3960 C.3    37  LEU37       0.0001
     21  N         54.0040   19.9440   73.9080 N.am   38  LEU38      -0.1977
     22  CA        53.9850   21.4170   73.7660 C.3    38  LEU38       0.1596
     23  C         55.1570   21.7980   72.8570 C.2    38  LEU38       0.2287
     24  O         56.2230   21.1910   72.8680 O.2    38  LEU38      -0.2864
     25  CB        54.1620   22.1620   75.0850 C.3    38  LEU38       0.0297
     26  CG        52.9340   22.1160   75.9410 C.3    38  LEU38       0.0022
     27  CD1       53.2720   22.5630   77.3490 C.3    38  LEU38       0.0001
     28  CD2       51.8200   22.9410   75.3260 C.3    38  LEU38       0.0001
     29  N         49.6470   24.4770   78.9690 N.3    45  TYR45      -0.1241
     30  CA        49.2280   23.0800   79.1190 C.3    45  TYR45       0.1605
     31  C         47.8030   22.8240   78.6630 C.2    45  TYR45       0.2264
     32  O         47.5090   21.7940   78.1160 O.2    45  TYR45      -0.2867
     33  CB        49.4200   22.6470   80.5710 C.3    45  TYR45       0.0534
     34  CG        50.8820   22.5020   80.8730 C.ar   45  TYR45      -0.0201
     35  CD1       51.5750   21.3220   80.5290 C.ar   45  TYR45      -0.0009
     36  CD2       51.5900   23.5140   81.4850 C.ar   45  TYR45      -0.0009
     37  CE1       52.9390   21.1960   80.7900 C.ar   45  TYR45       0.0417
     38  CE2       52.9550   23.3870   81.7500 C.ar   45  TYR45       0.0417
     39  CZ        53.6320   22.2320   81.3860 C.ar   45  TYR45       0.1957
     40  OH        54.9860   22.1610   81.6710 O.3    45  TYR45      -0.2866
     41  N         47.8090   21.8570   74.9900 N.3    48  ALA48      -0.1245
     42  CA        48.7920   20.8640   74.5380 C.3    48  ALA48       0.1562
     43  C         48.2160   19.9980   73.4380 C.2    48  ALA48       0.2260
     44  O         47.0130   19.8340   73.3340 O.2    48  ALA48      -0.2867
     45  CB        49.2880   20.0250   75.7270 C.3    48  ALA48       0.0290
     46  N         47.3410   16.5610   72.5210 N.3    50  ILE50      -0.1245
     47  CA        47.0770   15.4140   73.3840 C.3    50  ILE50       0.1561
     48  C         46.4810   14.2960   72.5730 C.2    50  ILE50       0.2260
     49  O         45.5110   14.4730   71.8050 O.2    50  ILE50      -0.2867
     50  CB        46.0930   15.7950   74.5140 C.3    50  ILE50       0.0252
     51  CG1       46.7650   16.8400   75.4310 C.3    50  ILE50       0.0019
     52  CG2       45.6970   14.5480   75.2740 C.3    50  ILE50       0.0019
     53  CD1       45.8010   17.5450   76.3290 C.3    50  ILE50       0.0001
     54  N         42.6470    8.2570   77.8290 N.3    54  TYR54      -0.1241
     55  CA        42.2110    8.6920   79.1780 C.3    54  TYR54       0.1605
     56  C         40.7410    9.0310   79.0900 C.2    54  TYR54       0.2264
     57  O         40.3160    9.5460   78.0470 O.2    54  TYR54      -0.2867
     58  CB        42.9480    9.8950   79.6880 C.3    54  TYR54       0.0534
     59  CG        44.3010    9.6350   80.3360 C.ar   54  TYR54      -0.0201
     60  CD1       44.9770    8.4580   80.2290 C.ar   54  TYR54      -0.0009
     61  CD2       44.8540   10.6380   81.1580 C.ar   54  TYR54      -0.0009
     62  CE1       46.2240    8.2510   80.8560 C.ar   54  TYR54       0.0417
     63  CE2       46.0660   10.4640   81.7620 C.ar   54  TYR54       0.0417
     64  CZ        46.7240    9.2460   81.6730 C.ar   54  TYR54       0.1957
     65  OH        47.9450    9.1370   82.3330 O.3    54  TYR54      -0.2866
     66  N         37.8220   12.9180   82.7760 N.3    58  TRP58      -0.1227
     67  CA        39.0720   13.1860   83.5340 C.3    58  TRP58       0.1737
     68  C         39.9480   14.2450   82.8430 C.2    58  TRP58       0.2595
     69  O         40.4000   15.1730   83.4630 O.2    58  TRP58      -0.2718
     70  CB        39.8530   11.8730   83.7190 C.3    58  TRP58       0.0564
     71  CG        41.2200   12.1030   84.2960 C.ar   58  TRP58       0.0003
     72  CD1       42.4310   11.8310   83.6750 C.ar   58  TRP58       0.0946
     73  CD2       41.5370   12.7090   85.5460 C.ar   58  TRP58       0.0152
     74  NE1       43.4710   12.2010   84.4950 N.ar   58  TRP58      -0.2442
     75  CE2       42.9570   12.7460   85.6380 C.ar   58  TRP58       0.0810
     76  CE3       40.7830   13.2450   86.5760 C.ar   58  TRP58       0.0012
     77  CZ2       43.6300   13.2990   86.7240 C.ar   58  TRP58       0.0191
     78  CZ3       41.4680   13.7660   87.7050 C.ar   58  TRP58       0.0001
     79  CH2       42.8760   13.7980   87.7440 C.ar   58  TRP58       0.0015
     80  N         40.1420   14.1430   81.5360 N.am   59  ARG59      -0.1980
     81  CA        40.9030   15.2200   80.8170 C.3    59  ARG59       0.1597
     82  C         40.2700   16.6140   80.9970 C.2    59  ARG59       0.2287
     83  O         40.9620   17.5570   81.2270 O.2    59  ARG59      -0.2864
     84  CB        41.1210   14.8710   79.3430 C.3    59  ARG59       0.0334
     85  CG        41.9310   13.5950   79.1150 C.3    59  ARG59       0.0492
     86  CD        41.8420   13.0740   77.6650 C.3    59  ARG59       0.2205
     87  NE        42.4360   14.0210   76.7350 N.pl3  59  ARG59      -0.0865
     88  CZ        41.8100   14.7060   75.7740 C.cat  59  ARG59       0.5346
     89  NH1       40.4690   14.6570   75.6160 N.pl3  59  ARG59       0.1354
     90  NH2       42.5350   15.4890   74.9580 N.pl3  59  ARG59       0.1354
     91  N         40.8820   17.7350   84.6260 N.3    62  TYR62      -0.1227
     92  CA        42.3040   18.1590   84.7040 C.3    62  TYR62       0.1736
     93  C         42.4900   19.6010   84.2390 C.2    62  TYR62       0.2595
     94  O         43.0880   20.4280   84.9480 O.2    62  TYR62      -0.2718
     95  CB        43.1660   17.1710   83.8900 C.3    62  TYR62       0.0548
     96  CG        44.6780   17.2870   84.1060 C.ar   62  TYR62      -0.0200
     97  CD1       45.4150   18.3320   83.5840 C.ar   62  TYR62      -0.0009
     98  CD2       45.3590   16.3050   84.8360 C.ar   62  TYR62      -0.0009
     99  CE1       46.7800   18.4010   83.7040 C.ar   62  TYR62       0.0417
    100  CE2       46.7370   16.3580   84.9780 C.ar   62  TYR62       0.0417
    101  CZ        47.4470   17.4330   84.4210 C.ar   62  TYR62       0.1957
    102  OH        48.8390   17.5300   84.5220 O.3    62  TYR62      -0.2866
    103  N         41.9080   19.9340   83.0870 N.am   63  ASP63      -0.1974
    104  CA        42.0160   21.3100   82.5530 C.3    63  ASP63       0.1709
    105  C         41.2510   22.3130   83.4060 C.2    63  ASP63       0.2293
    106  O         41.7470   23.3750   83.7400 O.2    63  ASP63      -0.2864
    107  CB        41.4880   21.3780   81.1130 C.3    63  ASP63       0.1436
    108  CG        42.4810   20.8730   80.0840 C.2    63  ASP63       0.3671
    109  OD1       43.7210   20.7230   80.3540 O.co2  63  ASP63      -0.2456
    110  OD2       42.0200   20.6150   78.9440 O.co2  63  ASP63      -0.2456
    111  N         49.8150   18.3350   89.5120 N.3    71  ASP71      -0.1239
    112  CA        50.3780   17.0630   89.0530 C.3    71  ASP71       0.1674
    113  C         51.8610   17.0860   89.2180 C.2    71  ASP71       0.2266
    114  O         52.5520   17.7980   88.5290 O.2    71  ASP71      -0.2867
    115  CB        49.9500   16.8600   87.5790 C.3    71  ASP71       0.1410
    116  CG        50.4830   15.6400   86.9370 C.2    71  ASP71       0.3668
    117  OD1       51.3190   14.8870   87.4690 O.co2  71  ASP71      -0.2456
    118  OD2       50.0040   15.4530   85.8020 O.co2  71  ASP71      -0.2456
    119  N         54.0780   15.1260   88.0710 N.3    73  THR73      -0.1203
    120  CA        54.8420   14.6330   86.9500 C.3    73  THR73       0.1994
    121  C         55.1930   15.8150   86.0410 C.2    73  THR73       0.2617
    122  O         56.1690   15.7110   85.2650 O.2    73  THR73      -0.2717
    123  CB        54.1500   13.4730   86.1870 C.3    73  THR73       0.1784
    124  OG1       53.0020   13.9660   85.4850 O.3    73  THR73      -0.2211
    125  CG2       53.7170   12.3790   87.1100 C.3    73  THR73       0.0376
    126  N         54.4330   16.9000   86.0730 N.am   74  VAL74      -0.1979
    127  CA        54.6630   18.0410   85.1740 C.3    74  VAL74       0.1595
    128  C         55.9730   18.7420   85.4840 C.2    74  VAL74       0.2287
    129  O         56.8030   18.9340   84.6000 O.2    74  VAL74      -0.2864
    130  CB        53.4640   19.0440   85.2070 C.3    74  VAL74       0.0276
    131  CG1       53.8030   20.3090   84.4150 C.3    74  VAL74       0.0022
    132  CG2       52.2580   18.3390   84.5780 C.3    74  VAL74       0.0022
    133  N         58.8980   16.4210   84.5280 N.3    77  CYS77      -0.1235
    134  CA        59.2260   16.4840   83.0850 C.3    77  CYS77       0.1677
    135  C         60.0540   17.7200   82.6570 C.2    77  CYS77       0.2270
    136  O         60.8990   17.5850   81.7960 O.2    77  CYS77      -0.2867
    137  CB        57.9440   16.3500   82.2420 C.3    77  CYS77       0.0956
    138  SG        57.1850   14.7200   82.3490 S.3    77  CYS77      -0.0801
    139  N         54.5160    6.3890   89.4020 N.3    86  TRP86      -0.1241
    140  CA        53.4190    6.9640   90.1720 C.3    86  TRP86       0.1605
    141  C         53.4240    6.3680   91.5900 C.2    86  TRP86       0.2264
    142  O         52.5010    5.6800   92.0260 O.2    86  TRP86      -0.2867
    143  CB        52.0990    6.7570   89.4850 C.3    86  TRP86       0.0550
    144  CG        51.9900    7.3610   88.1040 C.ar   86  TRP86       0.0003
    145  CD1       52.9020    8.1420   87.4290 C.ar   86  TRP86       0.0946
    146  CD2       50.8470    7.2430   87.2350 C.ar   86  TRP86       0.0152
    147  NE1       52.3810    8.5040   86.1870 N.ar   86  TRP86      -0.2442
    148  CE2       51.1390    7.9570   86.0280 C.ar   86  TRP86       0.0810
    149  CE3       49.6260    6.6090   87.3490 C.ar   86  TRP86       0.0012
    150  CZ2       50.2510    8.0010   84.9590 C.ar   86  TRP86       0.0191
    151  CZ3       48.7350    6.6340   86.3290 C.ar   86  TRP86       0.0001
    152  CH2       49.0290    7.3750   85.1190 C.ar   86  TRP86       0.0015
    153  N         53.2890   12.3420   95.6940 N.3    91  TYR91      -0.1241
    154  CA        52.1560   13.1530   96.0040 C.3    91  TYR91       0.1605
    155  C         52.3970   13.7320   97.4090 C.2    91  TYR91       0.2264
    156  O         52.1700   13.0200   98.4040 O.2    91  TYR91      -0.2867
    157  CB        50.8540   12.3580   95.9430 C.3    91  TYR91       0.0534
    158  CG        50.6770   11.6240   94.6160 C.ar   91  TYR91      -0.0201
    159  CD1       50.3300   12.3310   93.4790 C.ar   91  TYR91      -0.0009
    160  CD2       50.9820   10.2870   94.4990 C.ar   91  TYR91      -0.0009
    161  CE1       50.2300   11.7070   92.2490 C.ar   91  TYR91       0.0417
    162  CE2       50.8880    9.6340   93.2690 C.ar   91  TYR91       0.0417
    163  CZ        50.5060   10.3570   92.1460 C.ar   91  TYR91       0.1957
    164  OH        50.3410    9.7490   90.9430 O.3    91  TYR91      -0.2866
    165  N         44.6710   15.2510   94.0000 N.3    99  PHE99      -0.1241
    166  CA        44.9170   14.9030   92.5830 C.3    99  PHE99       0.1605
    167  C         44.9860   13.3860   92.4690 C.2    99  PHE99       0.2264
    168  O         44.3800   12.7750   91.5970 O.2    99  PHE99      -0.2867
    169  CB        46.2250   15.5570   92.1180 C.3    99  PHE99       0.0534
    170  CG        46.6800   15.0590   90.7820 C.ar   99  PHE99      -0.0203
    171  CD1       46.0910   15.5360   89.6140 C.ar   99  PHE99      -0.0042
    172  CD2       47.6110   14.0440   90.6890 C.ar   99  PHE99      -0.0042
    173  CE1       46.5030   15.0470   88.3570 C.ar   99  PHE99      -0.0003
    174  CE2       47.9790   13.5050   89.4600 C.ar   99  PHE99      -0.0003
    175  CZ        47.4320   14.0200   88.2800 C.ar   99  PHE99      -0.0000
    176  N         42.4090   11.1640   90.1780 N.3   103  ALA103     -0.1245
    177  CA        42.9260   10.3170   89.1300 C.3   103  ALA103      0.1562
    178  C         42.5990    8.8350   89.3800 C.2   103  ALA103      0.2260
    179  O         42.2370    8.1310   88.4560 O.2   103  ALA103     -0.2867
    180  CB        44.4350   10.5130   88.9490 C.3   103  ALA103      0.0290
    181  N         43.0570    5.7000   87.0870 N.3   108  LEU108     -0.1245
    182  CA        44.4670    5.9560   86.8510 C.3   108  LEU108      0.1561
    183  C         45.1550    6.0140   88.1750 C.2   108  LEU108      0.2260
    184  O         45.2370    7.0880   88.7640 O.2   108  LEU108     -0.2867
    185  CB        44.5850    7.3020   86.0980 C.3   108  LEU108      0.0270
    186  CG        43.8600    7.2480   84.7320 C.3   108  LEU108      0.0019
    187  CD1       43.6590    8.6170   84.1540 C.3   108  LEU108      0.0001
    188  CD2       44.6210    6.3600   83.7490 C.3   108  LEU108      0.0001
    189  N         55.1840    8.1030   84.0720 N.3   113  THR113     -0.1218
    190  CA        55.2370    9.2030   83.0780 C.3   113  THR113      0.1862
    191  C         56.6560    9.3270   82.5780 C.2   113  THR113      0.2287
    192  O         57.5940    9.4980   83.3640 O.2   113  THR113     -0.2866
    193  CB        54.6920   10.5190   83.6760 C.3   113  THR113      0.1770
    194  OG1       53.3190   10.3270   84.0750 O.3   113  THR113     -0.2211
    195  CG2       54.8390   11.7280   82.6820 C.3   113  THR113      0.0375
    196  N         58.3490   19.8460   74.4220 N.3   123  LEU123     -0.1231
    197  CA        58.2940   19.3970   75.8110 C.3   123  LEU123      0.1693
    198  C         57.0320   18.5640   75.9170 C.2   123  LEU123      0.2593
    199  O         55.9570   19.0470   75.5650 O.2   123  LEU123     -0.2718
    200  CB        58.2060   20.5950   76.7220 C.3   123  LEU123      0.0284
    201  CG        57.8060   20.3580   78.1820 C.3   123  LEU123      0.0019
    202  CD1       58.8890   19.5440   78.8750 C.3   123  LEU123      0.0001
    203  CD2       57.6030   21.7070   78.9310 C.3   123  LEU123      0.0001
    204  N         57.1080   17.3590   76.4680 N.am  124  GLY124     -0.1942
    205  CA        55.9050   16.5550   76.4810 C.3   124  GLY124      0.2014
    206  C         56.0020   15.4860   77.5580 C.2   124  GLY124      0.2638
    207  O         56.9950   15.4690   78.3320 O.2   124  GLY124     -0.2714
    208  N         55.0520   14.5780   77.5170 N.am  125  ALA125     -0.1977
    209  CA        55.0120   13.4420   78.3980 C.3   125  ALA125      0.1597
    210  C         54.3130   12.2820   77.7090 C.2   125  ALA125      0.2287
    211  O         53.2940   12.5060   77.0130 O.2   125  ALA125     -0.2864
    212  CB        54.2770   13.8420   79.6610 C.3   125  ALA125      0.0319
    213  N         52.4190    9.1300   79.2960 N.3   127  SER127     -0.1217
    214  CA        51.9710    8.5330   80.5720 C.3   127  SER127      0.1889
    215  C         51.2540    7.2640   80.2130 C.2   127  SER127      0.2288
    216  O         50.4250    7.2540   79.2730 O.2   127  SER127     -0.2866
    217  CB        51.0400    9.4910   81.3500 C.3   127  SER127      0.2089
    218  OG        51.7320   10.6580   81.7670 O.3   127  SER127     -0.2183
@<TRIPOS>BOND
     1    20    18    1
     2    18    17    1
     3    18    19    1
     4    49    48    2
     5    17    14    1
     6    46    47    1
     7    48    47    1
     8    23    24    2
     9    23    22    1
    10    16    15    2
    11    44    43    2
    12    47    50    1
    13    43    42    1
    14    15    14    1
    15    15    21   am
    16    14    13    1
    17    22    21    1
    18    22    25    1
    19    13    11   am
    20   196   197    1
    21    50    52    1
    22    50    51    1
    23    42    41    1
    24    42    45    1
    25    11    12    2
    26    11    10    1
    27    90    88    1
    28    25    26    1
    29    28    26    1
    30    10     9    1
    31    51    53    1
    32   199   198    2
    33    89    88    1
    34    88    87    2
    35   197   198    1
    36   197   200    1
    37   198   204   am
    38    26    27    1
    39   204   205    1
    40   205   206    1
    41   200   201    1
    42    87    86    1
    43     3     2    1
    44     3     4    2
    45   211   210    2
    46     2     1    1
    47     2     5    1
    48   208   206   am
    49   208   209    1
    50   206   207    2
    51    86    85    1
    52   210   209    1
    53    54    55    1
    54     6     8    1
    55     6     5    1
    56     6     7    1
    57    57    56    2
    58    32    31    2
    59   201   202    1
    60   201   203    1
    61   209   212    1
    62    31    30    1
    63   110   108   ar
    64    29    30    1
    65    56    55    1
    66    85    84    1
    67    30    33    1
    68    55    58    1
    69   216   215    2
    70   213   214    1
    71    84    81    1
    72    58    59    1
    73   108   109   ar
    74   108   107    1
    75   215   214    1
    76    60    59   ar
    77    60    62   ar
    78    59    61   ar
    79    35    37   ar
    80    35    34   ar
    81    33    34    1
    82   214   217    1
    83    37    39   ar
    84    81    82    1
    85    81    80    1
    86    62    64   ar
    87    34    36   ar
    88    82    83    2
    89   107   104    1
    90    61    63   ar
    91   217   218    1
    92    39    40    1
    93    39    38   ar
    94    36    38   ar
    95    80    68   am
    96    64    63   ar
    97    64    65    1
    98   136   135    2
    99   137   138    1
   100   137   134    1
   101   104   103    1
   102   104   105    1
   103   191   190    1
   104   191   192    2
   105   135   134    1
   106   195   193    1
   107    66    67    1
   108    68    69    2
   109    68    67    1
   110   190   193    1
   111   190   189    1
   112   134   133    1
   113   103    93   am
   114   105   106    2
   115    67    70    1
   116    97    99   ar
   117    97    96   ar
   118    72    71   ar
   119    72    74   ar
   120   193   194    1
   121    99   101   ar
   122    70    71    1
   123   188   186    1
   124    95    96    1
   125    95    92    1
   126    96    98   ar
   127   187   186    1
   128    93    92    1
   129    93    94    2
   130    71    73   ar
   131   131   130    1
   132   101   102    1
   133   101   100   ar
   134    74    75   ar
   135   132   130    1
   136   129   128    2
   137    91    92    1
   138   186   185    1
   139    98   100   ar
   140   150   152   ar
   141   150   148   ar
   142   152   151   ar
   143   127   130    1
   144   127   128    1
   145   127   126    1
   146   122   121    2
   147   124   123    1
   148    73    75   ar
   149    73    76   ar
   150    75    77   ar
   151   118   116   ar
   152   148   147   ar
   153   148   146   ar
   154   121   126   am
   155   121   120    1
   156   185   182    1
   157   147   145   ar
   158   123   120    1
   159   123   125    1
   160   151   149   ar
   161    76    78   ar
   162    77    79   ar
   163   182   181    1
   164   182   183    1
   165   116   117   ar
   166   116   115    1
   167   120   119    1
   168   146   149   ar
   169   146   144   ar
   170   145   144   ar
   171   115   112    1
   172    78    79   ar
   173   144   143    1
   174   183   184    2
   175   175   173   ar
   176   175   174   ar
   177   173   171   ar
   178   179   178    2
   179   114   113    2
   180   180   177    1
   181   112   113    1
   182   112   111    1
   183   177   178    1
   184   177   176    1
   185   139   140    1
   186   174   172   ar
   187   143   140    1
   188   171   170   ar
   189   140   141    1
   190   172   170   ar
   191   170   169    1
   192   164   163    1
   193   141   142    2
   194   168   167    2
   195   169   166    1
   196   163   161   ar
   197   163   162   ar
   198   161   159   ar
   199   167   166    1
   200   166   165    1
   201   162   160   ar
   202   159   158   ar
   203   160   158   ar
   204   158   157    1
   205   153   154    1
   206   157   154    1
   207   154   155    1
   208   155   156    2
