@<TRIPOS>MOLECULE
tmp/6d6nC00.pdb
 73 70 0 0 0
SMALL
GASTEIGER

@<TRIPOS>ATOM
      1  N         33.0520   25.9540  -33.2690 N.3    33  LEU33      -0.1231
      2  CA        31.8580   26.2530  -32.4230 C.3    33  LEU33       0.1693
      3  C         32.1620   27.1610  -31.2680 C.2    33  LEU33       0.2592
      4  O         33.1710   26.9520  -30.5590 O.2    33  LEU33      -0.2718
      5  CB        31.3030   24.9370  -31.9020 C.3    33  LEU33       0.0284
      6  CG        29.8610   24.8740  -31.4310 C.3    33  LEU33       0.0019
      7  CD1       28.9080   25.2180  -32.6190 C.3    33  LEU33       0.0001
      8  CD2       29.5530   23.5210  -30.8760 C.3    33  LEU33       0.0001
      9  N         31.3470   28.2060  -31.1000 N.am   34  LEU34      -0.1966
     10  CA        31.3940   29.1140  -29.9560 C.3    34  LEU34       0.1713
     11  C         30.1630   28.9830  -29.0650 C.2    34  LEU34       0.2458
     12  O         29.0350   28.7080  -29.5530 O.2    34  LEU34      -0.2730
     13  CB        31.4800   30.5750  -30.4150 C.3    34  LEU34       0.0310
     14  CG        32.9250   30.9310  -30.9000 C.3    34  LEU34       0.0022
     15  CD1       33.3740   30.0950  -32.0860 C.3    34  LEU34       0.0001
     16  CD2       32.9800   32.4030  -31.2210 C.3    34  LEU34       0.0001
     17  N         30.3370   29.2720  -27.7620 N.am   35  PRO35      -0.2727
     18  CA        29.1730   29.2730  -26.8500 C.3    35  PRO35       0.1402
     19  C         28.2660   30.4280  -27.1080 C.2    35  PRO35       0.2269
     20  O         28.6780   31.4060  -27.7340 O.2    35  PRO35      -0.2865
     21  CB        29.8050   29.4300  -25.4310 C.3    35  PRO35       0.0296
     22  CG        31.2580   29.2230  -25.5650 C.3    35  PRO35       0.0237
     23  CD        31.6350   29.3320  -27.0320 C.3    35  PRO35       0.0939
     24  N         36.8560   31.0440  -26.0060 N.3    43  ASN43      -0.1240
     25  CA        36.2600   29.7480  -25.6600 C.3    43  ASN43       0.1653
     26  C         35.8320   28.8970  -26.8750 C.2    43  ASN43       0.2266
     27  O         35.0270   27.9580  -26.7190 O.2    43  ASN43      -0.2867
     28  CB        35.0770   29.9650  -24.7050 C.3    43  ASN43       0.1155
     29  CG        35.4940   30.6480  -23.4100 C.2    43  ASN43       0.2627
     30  OD1       34.9720   31.7090  -23.0400 O.2    43  ASN43      -0.2716
     31  ND2       36.4570   30.0570  -22.7320 N.am   43  ASN43      -0.0877
     32  N         35.7700   26.0840  -29.7600 N.3    45  PHE45      -0.1241
     33  CA        36.1780   24.7040  -29.9690 C.3    45  PHE45       0.1605
     34  C         36.3770   24.5830  -31.4330 C.2    45  PHE45       0.2264
     35  O         35.4070   24.7500  -32.1960 O.2    45  PHE45      -0.2867
     36  CB        35.0360   23.7890  -29.5780 C.3    45  PHE45       0.0534
     37  CG        35.2870   22.3420  -29.7630 C.ar   45  PHE45      -0.0203
     38  CD1       36.0420   21.6280  -28.8410 C.ar   45  PHE45      -0.0042
     39  CD2       34.6740   21.6470  -30.7800 C.ar   45  PHE45      -0.0042
     40  CE1       36.2230   20.2790  -29.0040 C.ar   45  PHE45      -0.0003
     41  CE2       34.8270   20.2960  -30.9350 C.ar   45  PHE45      -0.0003
     42  CZ        35.6080   19.6050  -30.0450 C.ar   45  PHE45      -0.0000
     43  N         24.5830   27.9650  -29.2420 N.3   118  GLU118     -0.1245
     44  CA        25.9360   27.7600  -29.8140 C.3   118  GLU118      0.1567
     45  C         25.9470   28.2410  -31.2700 C.2   118  GLU118      0.2260
     46  O         24.9190   28.1700  -31.9830 O.2   118  GLU118     -0.2867
     47  CB        26.3510   26.2930  -29.7770 C.3   118  GLU118      0.0388
     48  CG        26.3060   25.5890  -28.4070 C.3   118  GLU118      0.1160
     49  CD        24.9920   24.8700  -28.1210 C.2   118  GLU118      0.3649
     50  OE1       23.9210   25.3490  -28.6360 O.co2 118  GLU118     -0.2457
     51  OE2       25.0020   23.8290  -27.4050 O.co2 118  GLU118     -0.2457
     52  N         28.7900   19.9630  -29.6330 N.3   157  ALA157     -0.1231
     53  CA        28.3400   20.8430  -28.5570 C.3   157  ALA157      0.1694
     54  C         28.4210   20.0670  -27.1990 C.2   157  ALA157      0.2593
     55  O         28.9000   20.6140  -26.2590 O.2   157  ALA157     -0.2718
     56  CB        26.9150   21.3780  -28.8180 C.3   157  ALA157      0.0304
     57  N         27.9930   18.8010  -27.1630 N.am  158  GLY158     -0.1942
     58  CA        28.1460   17.9000  -25.9660 C.3   158  GLY158      0.2014
     59  C         29.6040   17.6990  -25.5300 C.2   158  GLY158      0.2639
     60  O         29.9200   17.7570  -24.3400 O.2   158  GLY158     -0.2714
     61  N         30.5030   17.4600  -26.4730 N.am  159  LEU159     -0.1963
     62  CA        31.9480   17.3640  -26.1620 C.3   159  LEU159      0.1728
     63  C         32.5450   18.6710  -25.6650 C.2   159  LEU159      0.2616
     64  O         33.3500   18.6620  -24.7550 O.2   159  LEU159     -0.2715
     65  CB        32.7750   16.9400  -27.3740 C.3   159  LEU159      0.0311
     66  CG        33.0580   15.4670  -27.5910 C.3   159  LEU159      0.0022
     67  CD1       33.5510   15.2270  -29.0040 C.3   159  LEU159      0.0001
     68  CD2       34.0730   14.9520  -26.5700 C.3   159  LEU159      0.0001
     69  N         32.1900   19.7890  -26.2830 N.am  160  ALA160     -0.1977
     70  CA        33.0650   20.9690  -26.2580 C.3   160  ALA160      0.1597
     71  C         33.3350   21.5150  -24.8430 C.2   160  ALA160      0.2287
     72  O         33.1390   22.6870  -24.5500 O.2   160  ALA160     -0.2864
     73  CB        32.5830   22.0510  -27.2310 C.3   160  ALA160      0.0319
@<TRIPOS>BOND
     1     1     2    1
     2     7     6    1
     3     2     5    1
     4     2     3    1
     5    35    34    2
     6    15    14    1
     7    46    45    2
     8     5     6    1
     9    34    33    1
    10     6     8    1
    11    45    44    1
    12     3     9   am
    13     3     4    2
    14    16    14    1
    15     9    10    1
    16    41    39   ar
    17    41    42   ar
    18    14    13    1
    19    39    37   ar
    20    13    10    1
    21    42    40   ar
    22    33    32    1
    23    33    36    1
    24    10    11    1
    25    44    47    1
    26    44    43    1
    27    47    48    1
    28    37    36    1
    29    37    38   ar
    30    52    53    1
    31    12    11    2
    32    11    17   am
    33    67    66    1
    34    40    38   ar
    35    56    53    1
    36    50    49   ar
    37    53    54    1
    38    48    49    1
    39    49    51   ar
    40    17    23    1
    41    17    18    1
    42    20    19    2
    43    66    65    1
    44    66    68    1
    45    65    62    1
    46    73    70    1
    47    54    57   am
    48    54    55    2
    49    57    58    1
    50    19    18    1
    51    23    22    1
    52    26    27    2
    53    26    25    1
    54    18    21    1
    55    61    62    1
    56    61    59   am
    57    69    70    1
    58    69    63   am
    59    70    71    1
    60    62    63    1
    61    24    25    1
    62    58    59    1
    63    63    64    2
    64    25    28    1
    65    22    21    1
    66    59    60    2
    67    71    72    2
    68    28    29    1
    69    29    30    2
    70    29    31   am
