@<TRIPOS>MOLECULE
tmp/6d6oA00.pdb
 226 218 0 0 0
SMALL
GASTEIGER

@<TRIPOS>ATOM
      1  N         23.5200    1.0640   -1.8440 N.3    31  LEU31      -0.1245
      2  CA        23.3730    2.3020   -1.1070 C.3    31  LEU31       0.1561
      3  C         24.7250    2.9910   -0.9730 C.2    31  LEU31       0.2260
      4  O         25.6900    2.3980   -0.4900 O.2    31  LEU31      -0.2867
      5  CB        22.7640    2.0420    0.2660 C.3    31  LEU31       0.0270
      6  CG        22.1500    3.2880    0.9030 C.3    31  LEU31       0.0019
      7  CD1       20.8910    3.6780    0.1420 C.3    31  LEU31       0.0001
      8  CD2       21.8450    3.0190    2.3660 C.3    31  LEU31       0.0001
      9  N         26.4310    6.0660    0.8840 N.3    33  GLY33      -0.1210
     10  CA        26.2170    7.0080    1.9830 C.3    33  GLY33       0.1956
     11  C         27.5200    7.7010    2.3060 C.2    33  GLY33       0.2612
     12  O         28.5730    7.0570    2.4150 O.2    33  GLY33      -0.2717
     13  N         27.4670    9.0220    2.4520 N.am   34  LEU34      -0.1965
     14  CA        28.6800    9.7870    2.6600 C.3    34  LEU34       0.1728
     15  C         28.4140   10.9400    3.6240 C.2    34  LEU34       0.2616
     16  O         27.4140   11.6570    3.4890 O.2    34  LEU34      -0.2715
     17  CB        29.2030   10.3140    1.3190 C.3    34  LEU34       0.0311
     18  CG        30.6490   10.8060    1.2980 C.3    34  LEU34       0.0022
     19  CD1       31.6250    9.6650    1.5890 C.3    34  LEU34       0.0001
     20  CD2       30.9330   11.4270   -0.0530 C.3    34  LEU34       0.0001
     21  N         29.2890   11.0600    4.6160 N.am   35  LEU35      -0.1977
     22  CA        29.2310   12.1270    5.6140 C.3    35  LEU35       0.1596
     23  C         30.4110   13.0610    5.4230 C.2    35  LEU35       0.2287
     24  O         31.4990   12.6150    5.0680 O.2    35  LEU35      -0.2864
     25  CB        29.2980   11.5490    7.0280 C.3    35  LEU35       0.0297
     26  CG        28.1430   10.7280    7.6040 C.3    35  LEU35       0.0022
     27  CD1       28.6270    9.9610    8.8200 C.3    35  LEU35       0.0001
     28  CD2       26.9800   11.6210    7.9980 C.3    35  LEU35       0.0001
     29  N         23.8710   12.1670   11.4000 N.3    42  TYR42      -0.1241
     30  CA        23.6210   11.8690    9.9860 C.3    42  TYR42       0.1605
     31  C         22.8180   12.9580    9.2870 C.2    42  TYR42       0.2264
     32  O         22.3570   12.7730    8.1630 O.2    42  TYR42      -0.2867
     33  CB        22.9060   10.5190    9.8540 C.3    42  TYR42       0.0534
     34  CG        23.8230    9.3530   10.1090 C.ar   42  TYR42      -0.0201
     35  CD1       24.1170    8.9410   11.4100 C.ar   42  TYR42      -0.0009
     36  CD2       24.4070    8.6640    9.0500 C.ar   42  TYR42      -0.0009
     37  CE1       24.9720    7.8780   11.6470 C.ar   42  TYR42       0.0417
     38  CE2       25.2620    7.5990    9.2770 C.ar   42  TYR42       0.0417
     39  CZ        25.5390    7.2090   10.5720 C.ar   42  TYR42       0.1957
     40  OH        26.3880    6.1510   10.7910 O.3    42  TYR42      -0.2866
     41  N         22.9280   10.4400    0.9950 N.3    47  ILE47      -0.1245
     42  CA        22.5960    9.0160    0.8950 C.3    47  ILE47       0.1561
     43  C         21.7280    8.7800   -0.3220 C.2    47  ILE47       0.2260
     44  O         20.6060    9.2940   -0.4040 O.2    47  ILE47      -0.2867
     45  CB        21.8860    8.5000    2.1570 C.3    47  ILE47       0.0252
     46  CG1       22.7540    8.7530    3.3940 C.3    47  ILE47       0.0019
     47  CG2       21.5540    7.0130    1.9920 C.3    47  ILE47       0.0019
     48  CD1       22.0680    8.5040    4.7240 C.3    47  ILE47       0.0001
     49  N         18.0160    0.9160   -2.3820 N.3    51  TYR51      -0.1241
     50  CA        17.4620    0.1590   -1.2560 C.3    51  TYR51       0.1605
     51  C         15.9830    0.5060   -1.1160 C.2    51  TYR51       0.2264
     52  O         15.6080    1.6670   -1.3050 O.2    51  TYR51      -0.2867
     53  CB        18.1610    0.5340    0.0480 C.3    51  TYR51       0.0534
     54  CG        19.4450   -0.2260    0.3450 C.ar   51  TYR51      -0.0201
     55  CD1       20.1690   -0.8720   -0.6660 C.ar   51  TYR51      -0.0009
     56  CD2       19.9380   -0.2850    1.6440 C.ar   51  TYR51      -0.0009
     57  CE1       21.3390   -1.5630   -0.3850 C.ar   51  TYR51       0.0417
     58  CE2       21.1080   -0.9790    1.9360 C.ar   51  TYR51       0.0417
     59  CZ        21.8000   -1.6130    0.9190 C.ar   51  TYR51       0.1957
     60  OH        22.9700   -2.2950    1.2050 O.3    51  TYR51      -0.2866
     61  N         12.7190   -0.3270    4.1540 N.3    55  TRP55      -0.1227
     62  CA        13.9450   -0.6980    4.8500 C.3    55  TRP55       0.1737
     63  C         14.7440    0.5360    5.2840 C.2    55  TRP55       0.2595
     64  O         15.2180    0.6020    6.4210 O.2    55  TRP55      -0.2718
     65  CB        14.7780   -1.6470    3.9800 C.3    55  TRP55       0.0564
     66  CG        16.0830   -2.0580    4.5830 C.ar   55  TRP55       0.0003
     67  CD1       17.3130   -1.8890    4.0310 C.ar   55  TRP55       0.0946
     68  CD2       16.2980   -2.6880    5.8570 C.ar   55  TRP55       0.0152
     69  NE1       18.2850   -2.3930    4.8610 N.ar   55  TRP55      -0.2442
     70  CE2       17.6930   -2.8800    5.9940 C.ar   55  TRP55       0.0810
     71  CE3       15.4510   -3.1170    6.8860 C.ar   55  TRP55       0.0012
     72  CZ2       18.2650   -3.4800    7.1260 C.ar   55  TRP55       0.0191
     73  CZ3       16.0220   -3.7060    8.0230 C.ar   55  TRP55       0.0001
     74  CH2       17.4180   -3.8830    8.1250 C.ar   55  TRP55       0.0015
     75  N         14.8890    1.5100    4.3870 N.am   56  ARG56      -0.1980
     76  CA        15.5520    2.7730    4.7330 C.3    56  ARG56       0.1597
     77  C         14.8980    3.4330    5.9510 C.2    56  ARG56       0.2287
     78  O         15.5880    3.8280    6.8860 O.2    56  ARG56      -0.2864
     79  CB        15.5400    3.7330    3.5420 C.3    56  ARG56       0.0334
     80  CG        16.4210    3.3130    2.3690 C.3    56  ARG56       0.0492
     81  CD        17.9030    3.6120    2.5890 C.3    56  ARG56       0.2205
     82  NE        18.0940    4.9770    3.0770 N.pl3  56  ARG56      -0.0865
     83  CZ        18.0620    6.0630    2.3110 C.cat  56  ARG56       0.5346
     84  NH1       17.8620    5.9720    1.0000 N.pl3  56  ARG56       0.1354
     85  NH2       18.2240    7.2520    2.8670 N.pl3  56  ARG56       0.1354
     86  N         15.4330    1.1330    9.2000 N.3    59  TYR59      -0.1227
     87  CA        16.8160    1.1860    9.6500 C.3    59  TYR59       0.1736
     88  C         17.0570    2.4650   10.4450 C.2    59  TYR59       0.2595
     89  O         17.7050    2.4370   11.4850 O.2    59  TYR59      -0.2718
     90  CB        17.7290    1.1100    8.4310 C.3    59  TYR59       0.0548
     91  CG        19.2190    1.0630    8.6940 C.ar   59  TYR59      -0.0200
     92  CD1       19.9240    2.2150    9.0410 C.ar   59  TYR59      -0.0009
     93  CD2       19.9370   -0.1250    8.5450 C.ar   59  TYR59      -0.0009
     94  CE1       21.2940    2.1850    9.2580 C.ar   59  TYR59       0.0417
     95  CE2       21.3120   -0.1600    8.7440 C.ar   59  TYR59       0.0417
     96  CZ        21.9830    0.9910    9.1060 C.ar   59  TYR59       0.1957
     97  OH        23.3420    0.9530    9.3070 O.3    59  TYR59      -0.2866
     98  N         16.5220    3.5800    9.9460 N.am   60  ASP60      -0.1974
     99  CA        16.6010    4.8630   10.6490 C.3    60  ASP60       0.1709
    100  C         15.8400    4.8480   11.9760 C.2    60  ASP60       0.2293
    101  O         16.4040    5.1630   13.0310 O.2    60  ASP60      -0.2864
    102  CB        16.0620    5.9870    9.7620 C.3    60  ASP60       0.1436
    103  CG        16.9380    6.2530    8.5560 C.2    60  ASP60       0.3671
    104  OD1       18.0600    5.7050    8.4830 O.co2  60  ASP60      -0.2456
    105  OD2       16.5030    7.0250    7.6760 O.co2  60  ASP60      -0.2456
    106  N         24.3860   -2.2310   13.2350 N.3    68  ASP68      -0.1239
    107  CA        24.9770   -2.6820   11.9850 C.3    68  ASP68       0.1674
    108  C         26.5040   -2.7910   12.0960 C.2    68  ASP68       0.2266
    109  O         27.1910   -1.7770   12.2400 O.2    68  ASP68      -0.2867
    110  CB        24.5810   -1.6580   10.9170 C.3    68  ASP68       0.1410
    111  CG        25.0420   -2.0260    9.5240 C.2    68  ASP68       0.3668
    112  OD1       25.8620   -2.9490    9.3530 O.co2  68  ASP68      -0.2456
    113  OD2       24.5740   -1.3490    8.5910 O.co2  68  ASP68      -0.2456
    114  N         28.7250   -3.3460    9.9550 N.3    70  THR70      -0.1203
    115  CA        29.4700   -2.7700    8.8310 C.3    70  THR70       0.1994
    116  C         29.8090   -1.3020    9.0800 C.2    70  THR70       0.2617
    117  O         30.8390   -0.8180    8.6020 O.2    70  THR70      -0.2717
    118  CB        28.7320   -2.9050    7.4800 C.3    70  THR70       0.1784
    119  OG1       27.5690   -2.0710    7.4750 O.3    70  THR70      -0.2211
    120  CG2       28.3370   -4.3500    7.2060 C.3    70  THR70       0.0376
    121  N         28.9480   -0.6130    9.8280 N.am   71  VAL71      -0.1979
    122  CA        29.1460    0.8080   10.1470 C.3    71  VAL71       0.1595
    123  C         30.3960    0.9940   11.0090 C.2    71  VAL71       0.2287
    124  O         31.2900    1.7560   10.6450 O.2    71  VAL71      -0.2864
    125  CB        27.9050    1.4460   10.8150 C.3    71  VAL71       0.0276
    126  CG1       28.2010    2.8780   11.2640 C.3    71  VAL71       0.0022
    127  CG2       26.7270    1.4230    9.8590 C.3    71  VAL71       0.0022
    128  N         33.5460    0.4090    9.0550 N.3    74  CYS74      -0.1221
    129  CA        33.9340    1.5070    8.1610 C.3    74  CYS74       0.1808
    130  C         34.7330    2.5970    8.8800 C.2    74  CYS74       0.2601
    131  O         35.5940    3.2260    8.2770 O.2    74  CYS74      -0.2717
    132  CB        32.7150    2.1240    7.4790 C.3    74  CYS74       0.0970
    133  SG        31.9600    1.0970    6.2010 S.3    74  CYS74      -0.0800
    134  N         34.4460    2.8170   10.1610 N.am   75  THR75      -0.1953
    135  CA        35.1970    3.7940   10.9580 C.3    75  THR75       0.1897
    136  C         36.6380    3.3480   11.2410 C.2    75  THR75       0.2313
    137  O         37.4670    4.1610   11.6550 O.2    75  THR75      -0.2863
    138  CB        34.5030    4.1220   12.3060 C.3    75  THR75       0.1794
    139  OG1       34.6500    3.0180   13.2150 O.3    75  THR75      -0.2208
    140  CG2       33.0300    4.4320   12.1130 C.3    75  THR75       0.0378
    141  N         28.8770   -9.2780    4.2180 N.3    83  TRP83      -0.1241
    142  CA        27.7190   -9.4090    5.1060 C.3    83  TRP83       0.1605
    143  C         27.5510  -10.8400    5.5910 C.2    83  TRP83       0.2264
    144  O         27.1400  -11.7090    4.8350 O.2    83  TRP83      -0.2867
    145  CB        26.4250   -9.0040    4.4080 C.3    83  TRP83       0.0550
    146  CG        26.3910   -7.6230    3.8420 C.ar   83  TRP83       0.0003
    147  CD1       27.3210   -6.6290    4.0110 C.ar   83  TRP83       0.0946
    148  CD2       25.3330   -7.0610    3.0720 C.ar   83  TRP83       0.0152
    149  NE1       26.9170   -5.4920    3.3460 N.ar   83  TRP83      -0.2442
    150  CE2       25.6930   -5.7230    2.7770 C.ar   83  TRP83       0.0810
    151  CE3       24.1110   -7.5550    2.5930 C.ar   83  TRP83       0.0012
    152  CZ2       24.8790   -4.8840    2.0110 C.ar   83  TRP83       0.0191
    153  CZ3       23.2980   -6.7180    1.8400 C.ar   83  TRP83       0.0001
    154  CH2       23.6900   -5.3950    1.5570 C.ar   83  TRP83       0.0015
    155  N         18.8430   -7.2420   13.5340 N.3    96  PHE96      -0.1227
    156  CA        19.2360   -6.5150   12.3230 C.3    96  PHE96       0.1736
    157  C         19.3660   -7.4400   11.1210 C.2    96  PHE96       0.2595
    158  O         18.7760   -7.1790   10.0730 O.2    96  PHE96      -0.2718
    159  CB        20.5450   -5.7470   12.5390 C.3    96  PHE96       0.0547
    160  CG        21.1700   -5.2440   11.2650 C.ar   96  PHE96      -0.0202
    161  CD1       20.6200   -4.1620   10.5840 C.ar   96  PHE96      -0.0042
    162  CD2       22.3060   -5.8590   10.7400 C.ar   96  PHE96      -0.0042
    163  CE1       21.1910   -3.7080    9.4020 C.ar   96  PHE96      -0.0003
    164  CE2       22.8820   -5.4080    9.5620 C.ar   96  PHE96      -0.0003
    165  CZ        22.3280   -4.3240    8.8960 C.ar   96  PHE96      -0.0000
    166  N         20.1300   -8.5210   11.2720 N.am   97  PHE97      -0.1976
    167  CA        20.3010   -9.4680   10.1660 C.3    97  PHE97       0.1639
    168  C         18.9970  -10.1220    9.7370 C.2    97  PHE97       0.2290
    169  O         18.7420  -10.2720    8.5400 O.2    97  PHE97      -0.2864
    170  CB        21.3970  -10.4920   10.4680 C.3    97  PHE97       0.0560
    171  CG        22.7710   -9.9790   10.1650 C.ar   97  PHE97      -0.0200
    172  CD1       23.6120   -9.5650   11.1890 C.ar   97  PHE97      -0.0042
    173  CD2       23.2080   -9.8590    8.8470 C.ar   97  PHE97      -0.0042
    174  CE1       24.8740   -9.0730   10.9150 C.ar   97  PHE97      -0.0003
    175  CE2       24.4760   -9.3710    8.5630 C.ar   97  PHE97      -0.0003
    176  CZ        25.3070   -8.9770    9.5980 C.ar   97  PHE97      -0.0000
    177  N         17.0390   -7.3960    7.8570 N.3   100  ALA100     -0.1245
    178  CA        17.6560   -7.1780    6.5480 C.3   100  ALA100      0.1562
    179  C         17.2880   -8.3060    5.5880 C.2   100  ALA100      0.2260
    180  O         16.9260   -8.0540    4.4420 O.2   100  ALA100     -0.2867
    181  CB        19.1690   -7.0560    6.6680 C.3   100  ALA100      0.0290
    182  N         17.6300   -8.2900    1.6410 N.3   105  LEU105     -0.1231
    183  CA        19.0380   -7.9340    1.6190 C.3   105  LEU105      0.1693
    184  C         19.8040   -8.9200    2.4930 C.2   105  LEU105      0.2591
    185  O         19.9960   -8.6940    3.6930 O.2   105  LEU105     -0.2718
    186  CB        19.2190   -6.4960    2.1120 C.3   105  LEU105      0.0284
    187  CG        18.5380   -5.4480    1.2270 C.3   105  LEU105      0.0019
    188  CD1       17.7780   -4.4480    2.0800 C.3   105  LEU105      0.0001
    189  CD2       19.5410   -4.7480    0.3260 C.3   105  LEU105      0.0001
    190  N         20.2090  -10.0300    1.8880 N.am  106  VAL106     -0.1980
    191  CA        20.8590  -11.1190    2.6300 C.3   106  VAL106      0.1595
    192  C         22.3640  -11.2020    2.3580 C.2   106  VAL106      0.2287
    193  O         23.1650  -11.1390    3.2920 O.2   106  VAL106     -0.2864
    194  CB        20.1350  -12.4870    2.4440 C.3   106  VAL106      0.0276
    195  CG1       19.8320  -12.7730    0.9910 C.3   106  VAL106      0.0022
    196  CG2       20.9440  -13.6240    3.0490 C.3   106  VAL106      0.0022
    197  N         30.0260   -4.3240    2.1110 N.3   110  THR110     -0.1218
    198  CA        30.0580   -2.8840    2.3530 C.3   110  THR110      0.1862
    199  C         31.5070   -2.4510    2.1580 C.2   110  THR110      0.2287
    200  O         32.4280   -3.0320    2.7490 O.2   110  THR110     -0.2866
    201  CB        29.5190   -2.5710    3.7590 C.3   110  THR110      0.1770
    202  OG1       28.1270   -2.9070    3.8240 O.3   110  THR110     -0.2211
    203  CG2       29.6930   -1.0920    4.1060 C.3   110  THR110      0.0375
    204  N         33.5480   10.5360    5.1410 N.3   120  LEU120     -0.1231
    205  CA        33.4630    9.1910    5.6790 C.3   120  LEU120      0.1693
    206  C         32.1680    8.5600    5.2220 C.2   120  LEU120      0.2593
    207  O         31.1010    9.1470    5.3500 O.2   120  LEU120     -0.2718
    208  CB        33.5180    9.2460    7.2120 C.3   120  LEU120      0.0284
    209  CG        33.1180    8.0030    8.0170 C.3   120  LEU120      0.0019
    210  CD1       34.0960    6.8550    7.7890 C.3   120  LEU120      0.0001
    211  CD2       33.0160    8.3530    9.5020 C.3   120  LEU120      0.0001
    212  N         32.2470    7.3460    4.6910 N.am  121  GLY121     -0.1942
    213  CA        31.0310    6.7390    4.2150 C.3   121  GLY121      0.2014
    214  C         31.1880    5.2930    3.8380 C.2   121  GLY121      0.2638
    215  O         32.1290    4.6170    4.2660 O.2   121  GLY121     -0.2714
    216  N         30.2330    4.8200    3.0500 N.am  122  ALA122     -0.1977
    217  CA        30.1910    3.4220    2.6630 C.3   122  ALA122      0.1597
    218  C         29.4410    3.2570    1.3570 C.2   122  ALA122      0.2287
    219  O         28.4520    3.9500    1.1080 O.2   122  ALA122     -0.2864
    220  CB        29.5130    2.6150    3.7630 C.3   122  ALA122      0.0319
    221  N         27.4730    0.2050   -0.0640 N.3   124  SER124     -0.1217
    222  CA        26.9480   -1.1230    0.2480 C.3   124  SER124      0.1889
    223  C         26.2210   -1.6920   -0.9590 C.2   124  SER124      0.2288
    224  O         25.4680   -0.9990   -1.6290 O.2   124  SER124     -0.2866
    225  CB        26.0070   -1.0540    1.4430 C.3   124  SER124      0.2089
    226  OG        26.7200   -0.6840    2.6110 O.3   124  SER124     -0.2183
@<TRIPOS>BOND
     1    49    50    1
     2     1     2    1
     3   224   223    2
     4    52    51    2
     5    50    51    1
     6    50    53    1
     7     2     3    1
     8     2     5    1
     9     3     4    2
    10   223   222    1
    11    55    57   ar
    12    55    54   ar
    13    44    43    2
    14    57    59   ar
    15    43    42    1
    16   221   222    1
    17    20    18    1
    18    53    54    1
    19     7     6    1
    20   222   225    1
    21     5     6    1
    22   189   187    1
    23    54    56   ar
    24     9    10    1
    25    42    41    1
    26    42    45    1
    27     6     8    1
    28    59    60    1
    29    59    58   ar
    30   195   194    1
    31    84    83    1
    32   219   218    2
    33   187   188    1
    34   187   186    1
    35    18    17    1
    36    18    19    1
    37    17    14    1
    38   218   217    1
    39   225   226    1
    40   154   153   ar
    41   154   152   ar
    42   183   182    1
    43   183   186    1
    44   183   184    1
    45    56    58   ar
    46   153   151   ar
    47   190   184   am
    48   190   191    1
    49    10    11    1
    50    47    45    1
    51   152   150   ar
    52   197   198    1
    53    45    46    1
    54   199   198    1
    55   199   200    2
    56    11    12    2
    57    11    13   am
    58    83    85    1
    59    83    82    2
    60   198   201    1
    61   192   191    1
    62   192   193    2
    63    80    81    1
    64    80    79    1
    65   194   191    1
    66   194   196    1
    67    13    14    1
    68   184   185    2
    69    81    82    1
    70   151   148   ar
    71    14    15    1
    72   217   216    1
    73   217   220    1
    74   150   148   ar
    75   150   149   ar
    76   216   214   am
    77   148   146   ar
    78   149   147   ar
    79    46    48    1
    80    16    15    2
    81    79    76    1
    82    15    21   am
    83   201   202    1
    84   201   203    1
    85   214   213    1
    86   214   215    2
    87   146   147   ar
    88   146   145    1
    89    65    66    1
    90    65    62    1
    91    67    66   ar
    92    67    69   ar
    93    61    62    1
    94   213   212    1
    95   141   142    1
    96    75    76    1
    97    75    63   am
    98   145   142    1
    99   180   179    2
   100    66    68   ar
   101    21    22    1
   102   212   206   am
   103    76    77    1
   104   144   143    2
   105    62    63    1
   106    69    70   ar
   107    24    23    2
   108   142   143    1
   109   204   205    1
   110   206   207    2
   111   206   205    1
   112    63    64    2
   113    23    22    1
   114   179   178    1
   115    22    25    1
   116   205   208    1
   117    68    70   ar
   118    68    71   ar
   119    77    78    2
   120    70    72   ar
   121   133   132    1
   122   178   181    1
   123   178   177    1
   124    71    73   ar
   125    25    26    1
   126    72    74   ar
   127   120   118    1
   128   208   209    1
   129   119   118    1
   130   132   129    1
   131   118   115    1
   132    26    28    1
   133    26    27    1
   134   105   103   ar
   135   210   209    1
   136   209   211    1
   137    73    74   ar
   138   129   130    1
   139   129   128    1
   140    32    31    2
   141   131   130    2
   142    90    91    1
   143    90    87    1
   144   104   103   ar
   145   169   168    2
   146    93    91   ar
   147    93    95   ar
   148   103   102    1
   149   175   173   ar
   150   175   176   ar
   151   113   111   ar
   152   117   116    2
   153    91    92   ar
   154    95    96   ar
   155   115   116    1
   156   115   114    1
   157   173   171   ar
   158   130   134   am
   159   165   163   ar
   160   165   164   ar
   161    92    94   ar
   162    36    38   ar
   163    36    34   ar
   164   116   121   am
   165    96    94   ar
   166    96    97    1
   167    86    87    1
   168    38    39   ar
   169    31    30    1
   170   112   111   ar
   171   163   161   ar
   172   111   110    1
   173   164   162   ar
   174   176   174   ar
   175    87    88    1
   176   168   167    1
   177   102    99    1
   178   121   122    1
   179    33    30    1
   180    33    34    1
   181   127   125    1
   182    98    88   am
   183    98    99    1
   184    30    29    1
   185   158   157    2
   186    34    35   ar
   187   122   125    1
   188   122   123    1
   189   134   135    1
   190   171   170    1
   191   171   172   ar
   192   167   170    1
   193   167   166    1
   194    88    89    2
   195    39    40    1
   196    39    37   ar
   197   161   160   ar
   198   124   123    2
   199    99   100    1
   200   162   160   ar
   201   125   126    1
   202   174   172   ar
   203   110   107    1
   204   135   136    1
   205   135   138    1
   206   157   166   am
   207   157   156    1
   208   136   137    2
   209   160   159    1
   210    35    37   ar
   211   100   101    2
   212   107   108    1
   213   107   106    1
   214   108   109    2
   215   140   138    1
   216   138   139    1
   217   156   159    1
   218   156   155    1
