@<TRIPOS>MOLECULE
tmp/6d6pD00.pdb
 197 188 0 0 0
SMALL
GASTEIGER

@<TRIPOS>ATOM
      1  N         62.2240  -17.8290  -38.0850 N.3    34  LEU34      -0.1245
      2  CA        62.3370  -16.4740  -37.5760 C.3    34  LEU34       0.1561
      3  C         60.9660  -15.9540  -37.1500 C.2    34  LEU34       0.2260
      4  O         60.0270  -15.9310  -37.9440 O.2    34  LEU34      -0.2867
      5  CB        62.9680  -15.5460  -38.6170 C.3    34  LEU34       0.0270
      6  CG        63.5640  -14.2560  -38.0510 C.3    34  LEU34       0.0019
      7  CD1       64.8720  -14.5240  -37.3180 C.3    34  LEU34       0.0001
      8  CD2       63.7750  -13.2410  -39.1580 C.3    34  LEU34       0.0001
      9  N         59.1500  -12.6380  -35.7550 N.3    36  GLY36      -0.1225
     10  CA        59.3030  -11.1900  -35.6570 C.3    36  GLY36       0.1811
     11  C         58.0060  -10.5470  -35.2240 C.2    36  GLY36       0.2280
     12  O         56.9370  -10.9430  -35.6850 O.2    36  GLY36      -0.2866
     13  N         61.9130   -0.3100  -36.8520 N.3    45  TYR45      -0.1241
     14  CA        62.2590   -1.6090  -36.2700 C.3    45  TYR45       0.1605
     15  C         63.0400   -1.4790  -34.9590 C.2    45  TYR45       0.2264
     16  O         63.7310   -2.4150  -34.5470 O.2    45  TYR45      -0.2867
     17  CB        63.0600   -2.4420  -37.2760 C.3    45  TYR45       0.0534
     18  CG        62.2190   -3.1590  -38.3080 C.ar   45  TYR45      -0.0201
     19  CD1       61.8240   -2.5210  -39.4850 C.ar   45  TYR45      -0.0009
     20  CD2       61.8260   -4.4840  -38.1130 C.ar   45  TYR45      -0.0009
     21  CE1       61.0560   -3.1800  -40.4330 C.ar   45  TYR45       0.0417
     22  CE2       61.0590   -5.1520  -39.0550 C.ar   45  TYR45       0.0417
     23  CZ        60.6770   -4.4970  -40.2130 C.ar   45  TYR45       0.1957
     24  OH        59.9170   -5.1590  -41.1490 O.3    45  TYR45      -0.2866
     25  N         62.6070   -9.7330  -32.4380 N.3    50  ILE50      -0.1245
     26  CA        62.9940  -10.7140  -33.4540 C.3    50  ILE50       0.1561
     27  C         63.8620  -11.8030  -32.8370 C.2    50  ILE50       0.2260
     28  O         64.9280  -11.5220  -32.2880 O.2    50  ILE50      -0.2867
     29  CB        63.6980  -10.0540  -34.6660 C.3    50  ILE50       0.0252
     30  CG1       62.7630   -9.0390  -35.3350 C.3    50  ILE50       0.0019
     31  CG2       64.1310  -11.1130  -35.6770 C.3    50  ILE50       0.0019
     32  CD1       63.4580   -8.0140  -36.2070 C.3    50  ILE50       0.0001
     33  N         67.7480  -18.2950  -37.8270 N.3    54  TYR54      -0.1241
     34  CA        68.2740  -17.8530  -39.1240 C.3    54  TYR54       0.1605
     35  C         69.7560  -17.5040  -38.9650 C.2    54  TYR54       0.2264
     36  O         70.1450  -16.9240  -37.9490 O.2    54  TYR54      -0.2867
     37  CB        67.5260  -16.6150  -39.6120 C.3    54  TYR54       0.0534
     38  CG        66.2760  -16.8800  -40.4300 C.ar   54  TYR54      -0.0201
     39  CD1       65.5290  -18.0500  -40.2620 C.ar   54  TYR54      -0.0009
     40  CD2       65.8300  -15.9360  -41.3580 C.ar   54  TYR54      -0.0009
     41  CE1       64.3810  -18.2790  -41.0150 C.ar   54  TYR54       0.0417
     42  CE2       64.6800  -16.1510  -42.1060 C.ar   54  TYR54       0.0417
     43  CZ        63.9650  -17.3230  -41.9330 C.ar   54  TYR54       0.1957
     44  OH        62.8260  -17.5310  -42.6750 O.3    54  TYR54      -0.2866
     45  N         73.0120  -13.8430  -42.7620 N.3    58  TRP58      -0.1227
     46  CA        71.7960  -13.4780  -43.4770 C.3    58  TRP58       0.1737
     47  C         71.0180  -12.3870  -42.7320 C.2    58  TRP58       0.2595
     48  O         70.5590  -11.4250  -43.3460 O.2    58  TRP58      -0.2718
     49  CB        70.9450  -14.7240  -43.7380 C.3    58  TRP58       0.0564
     50  CG        69.6420  -14.4550  -44.4130 C.ar   58  TRP58       0.0003
     51  CD1       68.4110  -14.7700  -43.9360 C.ar   58  TRP58       0.0946
     52  CD2       69.4280  -13.7990  -45.6780 C.ar   58  TRP58       0.0152
     53  NE1       67.4400  -14.3730  -44.8220 N.ar   58  TRP58      -0.2442
     54  CE2       68.0350  -13.7660  -45.8960 C.ar   58  TRP58       0.0810
     55  CE3       70.2780  -13.2380  -46.6440 C.ar   58  TRP58       0.0012
     56  CZ2       67.4650  -13.1990  -47.0420 C.ar   58  TRP58       0.0191
     57  CZ3       69.7100  -12.6710  -47.7850 C.ar   58  TRP58       0.0001
     58  CH2       68.3180  -12.6600  -47.9710 C.ar   58  TRP58       0.0015
     59  N         70.9070  -12.5180  -41.4100 N.am   59  ARG59      -0.1980
     60  CA        70.2730  -11.4880  -40.5820 C.3    59  ARG59       0.1597
     61  C         70.9280  -10.1150  -40.7950 C.2    59  ARG59       0.2287
     62  O         70.2340   -9.1130  -40.9990 O.2    59  ARG59      -0.2864
     63  CB        70.3040  -11.8820  -39.0960 C.3    59  ARG59       0.0334
     64  CG        69.4410  -13.0830  -38.7130 C.3    59  ARG59       0.0492
     65  CD        67.9470  -12.7490  -38.6600 C.3    59  ARG59       0.2205
     66  NE        67.6920  -11.5060  -37.9310 N.pl3  59  ARG59      -0.0865
     67  CZ        67.6240  -11.4100  -36.6050 C.cat  59  ARG59       0.5346
     68  NH1       67.7720  -12.4830  -35.8400 N.pl3  59  ARG59       0.1354
     69  NH2       67.4080  -10.2290  -36.0400 N.pl3  59  ARG59       0.1354
     70  N         70.3830   -8.9270  -44.5920 N.3    62  TYR62      -0.1227
     71  CA        68.9980   -8.4860  -44.7760 C.3    62  TYR62       0.1736
     72  C         68.8210   -7.0540  -44.2790 C.2    62  TYR62       0.2595
     73  O         68.2310   -6.2200  -44.9740 O.2    62  TYR62      -0.2718
     74  CB        68.0480   -9.4370  -44.0370 C.3    62  TYR62       0.0548
     75  CG        66.5560   -9.2480  -44.2850 C.ar   62  TYR62      -0.0200
     76  CD1       65.8370   -8.2440  -43.6330 C.ar   62  TYR62      -0.0009
     77  CD2       65.8580  -10.1050  -45.1390 C.ar   62  TYR62      -0.0009
     78  CE1       64.4720   -8.0830  -43.8400 C.ar   62  TYR62       0.0417
     79  CE2       64.4930   -9.9560  -45.3500 C.ar   62  TYR62       0.0417
     80  CZ        63.8050   -8.9470  -44.7010 C.ar   62  TYR62       0.1957
     81  OH        62.4480   -8.8040  -44.9060 O.3    62  TYR62      -0.2866
     82  N         69.3440   -6.7800  -43.0830 N.am   63  ASP63      -0.1974
     83  CA        69.2700   -5.4540  -42.4680 C.3    63  ASP63       0.1709
     84  C         70.0750   -4.4100  -43.2390 C.2    63  ASP63       0.2293
     85  O         69.5810   -3.3140  -43.5020 O.2    63  ASP63      -0.2864
     86  CB        69.7480   -5.5080  -41.0130 C.3    63  ASP63       0.1436
     87  CG        68.7350   -6.1510  -40.0820 C.2    63  ASP63       0.3671
     88  OD1       67.5260   -6.1630  -40.4070 O.co2  63  ASP63      -0.2456
     89  OD2       69.1490   -6.6410  -39.0120 O.co2  63  ASP63      -0.2456
     90  N         61.7380   -7.8810  -49.8830 N.3    71  ASP71      -0.1239
     91  CA        61.0970   -9.1190  -49.4360 C.3    71  ASP71       0.1674
     92  C         59.5760   -9.0640  -49.6570 C.2    71  ASP71       0.2266
     93  O         58.8920   -8.2890  -48.9960 O.2    71  ASP71      -0.2867
     94  CB        61.4310   -9.3090  -47.9450 C.3    71  ASP71       0.1410
     95  CG        60.8420  -10.5800  -47.3390 C.2    71  ASP71       0.3668
     96  OD1       60.0100  -11.2590  -47.9750 O.co2  71  ASP71      -0.2456
     97  OD2       61.2280  -10.8870  -46.1890 O.co2  71  ASP71      -0.2456
     98  N         57.2100  -10.9820  -48.7810 N.3    73  THR73      -0.1203
     99  CA        56.4020  -11.3880  -47.6240 C.3    73  THR73       0.1994
    100  C         56.0300  -10.2300  -46.7070 C.2    73  THR73       0.2617
    101  O         55.0280  -10.3050  -45.9970 O.2    73  THR73      -0.2717
    102  CB        57.0440  -12.5360  -46.8060 C.3    73  THR73       0.1784
    103  OG1       58.1750  -12.0490  -46.0670 O.3    73  THR73      -0.2211
    104  CG2       57.4670  -13.6810  -47.7220 C.3    73  THR73       0.0376
    105  N         56.8140   -9.1520  -46.7380 N.am   74  VAL74      -0.1979
    106  CA        56.5600   -8.0000  -45.8750 C.3    74  VAL74       0.1595
    107  C         55.2400   -7.3090  -46.2160 C.2    74  VAL74       0.2287
    108  O         54.3950   -7.1270  -45.3400 O.2    74  VAL74      -0.2864
    109  CB        57.7220   -6.9860  -45.8940 C.3    74  VAL74       0.0276
    110  CG1       57.4290   -5.8230  -44.9600 C.3    74  VAL74       0.0022
    111  CG2       59.0160   -7.6700  -45.4890 C.3    74  VAL74       0.0022
    112  N         52.1720   -9.5610  -45.5040 N.3    77  CYS77      -0.1235
    113  CA        51.7600   -9.6060  -44.0910 C.3    77  CYS77       0.1677
    114  C         50.9270   -8.3940  -43.6540 C.2    77  CYS77       0.2270
    115  O         50.1240   -8.4970  -42.7340 O.2    77  CYS77      -0.2867
    116  CB        52.9650   -9.7890  -43.1650 C.3    77  CYS77       0.0956
    117  SG        53.7250  -11.4240  -43.2190 S.3    77  CYS77      -0.0801
    118  N         56.9410  -19.6540  -50.2430 N.3    86  TRP86      -0.1241
    119  CA        58.0730  -19.1060  -50.9940 C.3    86  TRP86       0.1605
    120  C         58.1240  -19.7150  -52.3990 C.2    86  TRP86       0.2264
    121  O         59.0590  -20.4400  -52.7500 O.2    86  TRP86      -0.2867
    122  CB        59.4060  -19.3070  -50.2480 C.3    86  TRP86       0.0550
    123  CG        59.4470  -18.7610  -48.8200 C.ar   86  TRP86       0.0003
    124  CD1       58.5230  -17.9470  -48.2110 C.ar   86  TRP86       0.0946
    125  CD2       60.4880  -18.9700  -47.8560 C.ar   86  TRP86       0.0152
    126  NE1       58.9160  -17.6660  -46.9180 N.ar   86  TRP86      -0.2442
    127  CE2       60.1200  -18.2770  -46.6800 C.ar   86  TRP86       0.0810
    128  CE3       61.6960  -19.6780  -47.8720 C.ar   86  TRP86       0.0012
    129  CZ2       60.9190  -18.2740  -45.5290 C.ar   86  TRP86       0.0191
    130  CZ3       62.4900  -19.6780  -46.7260 C.ar   86  TRP86       0.0001
    131  CH2       62.0960  -18.9780  -45.5740 C.ar   86  TRP86       0.0015
    132  N         56.2300  -15.3940  -56.3440 N.3    90  ILE90      -0.1231
    133  CA        56.2240  -14.2220  -55.4580 C.3    90  ILE90       0.1692
    134  C         57.4300  -13.3120  -55.7170 C.2    90  ILE90       0.2592
    135  O         57.4550  -12.1750  -55.2580 O.2    90  ILE90      -0.2718
    136  CB        56.1200  -14.5770  -53.9460 C.3    90  ILE90       0.0266
    137  CG1       57.4320  -15.1750  -53.4150 C.3    90  ILE90       0.0019
    138  CG2       54.9070  -15.4640  -53.6720 C.3    90  ILE90       0.0020
    139  CD1       57.5240  -15.2230  -51.9010 C.3    90  ILE90       0.0001
    140  N         58.4210  -13.8360  -56.4390 N.am   91  TYR91      -0.1976
    141  CA        59.6060  -13.0750  -56.8410 C.3    91  TYR91       0.1639
    142  C         59.4440  -12.6120  -58.2850 C.2    91  TYR91       0.2290
    143  O         59.7270  -13.3570  -59.2280 O.2    91  TYR91      -0.2864
    144  CB        60.8810  -13.9130  -56.6790 C.3    91  TYR91       0.0560
    145  CG        60.9710  -14.6420  -55.3560 C.ar   91  TYR91      -0.0198
    146  CD1       61.2430  -13.9540  -54.1750 C.ar   91  TYR91      -0.0009
    147  CD2       60.7760  -16.0190  -55.2870 C.ar   91  TYR91      -0.0009
    148  CE1       61.3180  -14.6170  -52.9620 C.ar   91  TYR91       0.0417
    149  CE2       60.8530  -16.6920  -54.0790 C.ar   91  TYR91       0.0417
    150  CZ        61.1230  -15.9840  -52.9210 C.ar   91  TYR91       0.1957
    151  OH        61.1980  -16.6470  -51.7250 O.3    91  TYR91      -0.2866
    152  N         66.9650  -11.1050  -54.1960 N.3    99  PHE99      -0.1241
    153  CA        66.5670  -11.5270  -52.8500 C.3    99  PHE99       0.1605
    154  C         66.4570  -13.0470  -52.7650 C.2    99  PHE99       0.2264
    155  O         67.0170  -13.6520  -51.8510 O.2    99  PHE99      -0.2867
    156  CB        65.2580  -10.8420  -52.4320 C.3    99  PHE99       0.0534
    157  CG        64.7390  -11.2770  -51.0850 C.ar   99  PHE99      -0.0203
    158  CD1       65.3010  -10.7800  -49.9150 C.ar   99  PHE99      -0.0042
    159  CD2       63.6800  -12.1750  -50.9880 C.ar   99  PHE99      -0.0042
    160  CE1       64.8260  -11.1770  -48.6730 C.ar   99  PHE99      -0.0003
    161  CE2       63.2000  -12.5730  -49.7490 C.ar   99  PHE99      -0.0003
    162  CZ        63.7750  -12.0730  -48.5910 C.ar   99  PHE99      -0.0000
    163  N         68.9400  -15.0920  -50.4900 N.3   103  ALA103     -0.1245
    164  CA        68.3640  -16.0050  -49.5020 C.3   103  ALA103      0.1562
    165  C         68.8010  -17.4540  -49.7320 C.2   103  ALA103      0.2260
    166  O         69.2420  -18.1190  -48.7980 O.2   103  ALA103     -0.2867
    167  CB        66.8440  -15.8940  -49.4820 C.3   103  ALA103      0.0290
    168  N         68.5260  -20.4700  -47.5130 N.3   108  LEU108     -0.1245
    169  CA        67.0870  -20.4270  -47.2710 C.3   108  LEU108      0.1561
    170  C         66.3470  -20.3380  -48.6020 C.2   108  LEU108      0.2260
    171  O         66.2480  -19.2620  -49.1950 O.2   108  LEU108     -0.2867
    172  CB        66.7410  -19.2340  -46.3790 C.3   108  LEU108      0.0270
    173  CG        67.3390  -19.2420  -44.9690 C.3   108  LEU108      0.0019
    174  CD1       68.0780  -17.9470  -44.6970 C.3   108  LEU108      0.0001
    175  CD2       66.2750  -19.4860  -43.9120 C.3   108  LEU108      0.0001
    176  N         55.9010  -18.0080  -44.9890 N.3   113  THR113     -0.1218
    177  CA        55.8080  -16.9440  -43.9940 C.3   113  THR113      0.1862
    178  C         54.3550  -16.8360  -43.5620 C.2   113  THR113      0.2287
    179  O         53.4620  -16.7050  -44.3960 O.2   113  THR113     -0.2866
    180  CB        56.3240  -15.6160  -44.5800 C.3   113  THR113      0.1770
    181  OG1       57.7350  -15.7290  -44.8120 O.3   113  THR113     -0.2211
    182  CG2       56.0490  -14.4260  -43.6460 C.3   113  THR113      0.0375
    183  N         53.4360   -8.7990  -37.1540 N.3   124  GLY124     -0.1210
    184  CA        54.6230   -9.6140  -37.3150 C.3   124  GLY124      0.1956
    185  C         54.4980  -10.7420  -38.3110 C.2   124  GLY124      0.2611
    186  O         53.6350  -10.7240  -39.2000 O.2   124  GLY124     -0.2717
    187  N         55.3920  -11.7110  -38.1660 N.am  125  ALA125     -0.1979
    188  CA        55.4490  -12.8710  -39.0440 C.3   125  ALA125      0.1597
    189  C         56.2290  -13.9940  -38.3820 C.2   125  ALA125      0.2287
    190  O         57.1920  -13.7470  -37.6390 O.2   125  ALA125     -0.2864
    191  CB        56.0940  -12.5050  -40.3730 C.3   125  ALA125      0.0319
    192  N         58.2870  -16.9860  -39.9350 N.3   127  SER127     -0.1217
    193  CA        58.8240  -17.5810  -41.1530 C.3   127  SER127      0.1889
    194  C         59.5430  -18.8750  -40.8220 C.2   127  SER127      0.2288
    195  O         60.2550  -18.9690  -39.8070 O.2   127  SER127     -0.2866
    196  CB        59.7700  -16.6180  -41.8650 C.3   127  SER127      0.2089
    197  OG        59.0660  -15.5070  -42.3750 O.3   127  SER127     -0.2183
@<TRIPOS>BOND
     1   143   142    2
     2   142   141    1
     3   141   144    1
     4   141   140    1
     5   144   145    1
     6   140   134   am
     7   132   133    1
     8   134   133    1
     9   134   135    2
    10   133   136    1
    11   145   147   ar
    12   145   146   ar
    13   147   149   ar
    14   152   153    1
    15   146   148   ar
    16   149   150   ar
    17   136   138    1
    18   136   137    1
    19   137   139    1
    20   148   150   ar
    21   150   151    1
    22   153   154    1
    23   153   156    1
    24   154   155    2
    25   121   120    2
    26   156   157    1
    27   120   119    1
    28   157   159   ar
    29   157   158   ar
    30   119   122    1
    31   119   118    1
    32   159   161   ar
    33   163   164    1
    34   122   123    1
    35   158   160   ar
    36    90    91    1
    37   161   162   ar
    38   165   164    1
    39   165   166    2
    40    92    91    1
    41    92    93    2
    42   164   167    1
    43    91    94    1
    44   171   170    2
    45   123   124   ar
    46   123   125   ar
    47    98    99    1
    48   160   162   ar
    49   170   169    1
    50   124   126   ar
    51    96    95   ar
    52    58    57   ar
    53    58    56   ar
    54    94    95    1
    55   128   125   ar
    56   128   130   ar
    57   125   127   ar
    58    57    55   ar
    59   104   102    1
    60    99   102    1
    61    99   100    1
    62   168   169    1
    63    95    97   ar
    64   169   172    1
    65    56    54   ar
    66   126   127   ar
    67   102   103    1
    68   105   100   am
    69   105   106    1
    70   130   131   ar
    71   100   101    2
    72   127   129   ar
    73    55    52   ar
    74   172   173    1
    75   107   106    1
    76   107   108    2
    77    54    52   ar
    78    54    53   ar
    79   109   106    1
    80   109   111    1
    81   109   110    1
    82    52    50   ar
    83   131   129   ar
    84   112   113    1
    85    79    77   ar
    86    79    80   ar
    87    77    75   ar
    88   176   177    1
    89    73    72    2
    90   173   174    1
    91   173   175    1
    92    81    80    1
    93    53    51   ar
    94   181   180    1
    95    71    70    1
    96    71    72    1
    97    71    74    1
    98    80    78   ar
    99   180   177    1
   100   180   182    1
   101    50    51   ar
   102    50    49    1
   103   179   178    2
   104    75    74    1
   105    75    76   ar
   106    72    82   am
   107   113   114    1
   108   113   116    1
   109   177   178    1
   110    78    76   ar
   111    49    46    1
   112   114   115    2
   113    85    84    2
   114    46    45    1
   115    46    47    1
   116    48    47    2
   117    84    83    1
   118   117   116    1
   119    82    83    1
   120    47    59   am
   121    44    43    1
   122    83    86    1
   123   197   196    1
   124    42    43   ar
   125    42    40   ar
   126    43    41   ar
   127   196   193    1
   128    59    60    1
   129    40    38   ar
   130   193   194    1
   131   193   192    1
   132    24    23    1
   133    41    39   ar
   134    86    87    1
   135    62    61    2
   136   194   195    2
   137    61    60    1
   138    60    63    1
   139    21    23   ar
   140    21    19   ar
   141    38    39   ar
   142    38    37    1
   143    88    87   ar
   144   191   188    1
   145    23    22   ar
   146    87    89   ar
   147    37    34    1
   148    19    18   ar
   149   186   185    2
   150     8     6    1
   151    34    35    1
   152    34    33    1
   153    63    64    1
   154    22    20   ar
   155   188   189    1
   156   188   187    1
   157    35    36    2
   158    64    65    1
   159    65    66    1
   160     5     6    1
   161     5     2    1
   162   189   190    2
   163   185   187   am
   164   185   184    1
   165    18    20   ar
   166    18    17    1
   167     1     2    1
   168     6     7    1
   169     4     3    2
   170    66    67    2
   171     2     3    1
   172   184   183    1
   173    17    14    1
   174    13    14    1
   175    67    69    1
   176    67    68    1
   177    14    15    1
   178    32    30    1
   179     9    10    1
   180    12    11    2
   181    31    29    1
   182    10    11    1
   183    30    29    1
   184    15    16    2
   185    29    26    1
   186    26    27    1
   187    26    25    1
   188    27    28    2
