@<TRIPOS>MOLECULE
tmp/6d6rM00.pdb
 125 118 0 0 0
SMALL
GASTEIGER

@<TRIPOS>ATOM
      1  N        193.8270  136.8590  236.8440 N.3    43  PHE43      -0.1227
      2  CA       192.9120  135.8340  237.3070 C.3    43  PHE43       0.1736
      3  C        191.6510  135.8310  236.4500 C.2    43  PHE43       0.2595
      4  O        191.5570  136.5250  235.4340 O.2    43  PHE43      -0.2718
      5  CB       192.5860  136.0600  238.7780 C.3    43  PHE43       0.0547
      6  CG       191.9200  137.3720  239.0500 C.ar   43  PHE43      -0.0202
      7  CD1      192.6670  138.4910  239.3740 C.ar   43  PHE43      -0.0042
      8  CD2      190.5490  137.4900  238.9730 C.ar   43  PHE43      -0.0042
      9  CE1      192.0530  139.7000  239.6230 C.ar   43  PHE43      -0.0003
     10  CE2      189.9300  138.6930  239.2190 C.ar   43  PHE43      -0.0003
     11  CZ       190.6830  139.8010  239.5450 C.ar   43  PHE43      -0.0000
     12  N        190.6660  135.0410  236.8640 N.am   44  ILE44      -0.1980
     13  CA       189.4000  134.9170  236.1550 C.3    44  ILE44       0.1595
     14  C        188.3580  135.7600  236.8690 C.2    44  ILE44       0.2287
     15  O        188.2680  135.7500  238.1030 O.2    44  ILE44      -0.2864
     16  CB       188.9560  133.4450  236.0560 C.3    44  ILE44       0.0276
     17  CG1      188.7770  132.8380  237.4480 C.3    44  ILE44       0.0022
     18  CG2      189.9670  132.6480  235.2550 C.3    44  ILE44       0.0022
     19  CD1      188.1300  131.4770  237.4320 C.3    44  ILE44       0.0001
     20  N        184.7220  137.0740  238.1130 N.3    46  ASP46      -0.1239
     21  CA       183.4490  136.5070  238.5110 C.3    46  ASP46       0.1674
     22  C        182.3640  136.8750  237.5030 C.2    46  ASP46       0.2266
     23  O        182.5570  137.6990  236.6070 O.2    46  ASP46      -0.2867
     24  CB       183.0600  137.0050  239.8970 C.3    46  ASP46       0.1410
     25  CG       183.9610  136.4630  240.9820 C.2    46  ASP46       0.3668
     26  OD1      184.4910  135.3460  240.8110 O.co2  46  ASP46      -0.2456
     27  OD2      184.1410  137.1560  242.0050 O.co2  46  ASP46      -0.2456
     28  N        181.6640  140.6780  237.8580 N.3    49  GLN49      -0.1245
     29  CA       182.5520  141.6050  237.1770 C.3    49  GLN49       0.1566
     30  C        182.4520  141.4720  235.6660 C.2    49  GLN49       0.2260
     31  O        182.4770  142.4780  234.9540 O.2    49  GLN49      -0.2867
     32  CB       183.9840  141.3810  237.6380 C.3    49  GLN49       0.0367
     33  CG       184.2000  141.7450  239.0790 C.3    49  GLN49       0.0905
     34  CD       185.5980  141.4410  239.5540 C.2    49  GLN49       0.2608
     35  OE1      186.4010  140.8640  238.8270 O.2    49  GLN49      -0.2717
     36  NE2      185.8980  141.8300  240.7820 N.am   49  GLN49      -0.0878
     37  N        181.9260  145.6130  249.7270 N.3    68  THR68      -0.1203
     38  CA       183.3220  145.9080  249.4690 C.3    68  THR68       0.1994
     39  C        184.1400  144.6240  249.5770 C.2    68  THR68       0.2619
     40  O        183.7040  143.6250  250.1540 O.2    68  THR68      -0.2717
     41  CB       183.8360  146.9590  250.4520 C.3    68  THR68       0.1784
     42  OG1      183.0310  148.1400  250.3530 O.3    68  THR68      -0.2211
     43  CG2      185.2690  147.3200  250.1450 C.3    68  THR68       0.0376
     44  N        185.3340  144.6540  248.9960 N.am   69  SER69      -0.1937
     45  CA       186.2740  143.5400  248.9950 C.3    69  SER69       0.2055
     46  C        185.9130  142.5050  247.9400 C.2    69  SER69       0.2643
     47  O        186.5040  141.4160  247.9310 O.2    69  SER69      -0.2714
     48  CB       186.3560  142.8480  250.3580 C.3    69  SER69       0.2130
     49  OG       185.1410  142.1940  250.6740 O.3    69  SER69      -0.2179
     50  N        184.9640  142.8030  247.0540 N.am   70  ALA70      -0.1963
     51  CA       184.6030  141.9090  245.9630 C.3    70  ALA70       0.1728
     52  C        185.1550  142.3830  244.6260 C.2    70  ALA70       0.2617
     53  O        184.5010  142.2170  243.5910 O.2    70  ALA70      -0.2715
     54  CB       183.0870  141.7580  245.8790 C.3    70  ALA70       0.0334
     55  N        186.3440  142.9750  244.6280 N.am   71  GLY71      -0.1940
     56  CA       186.9410  143.4280  243.3790 C.3    71  GLY71       0.2014
     57  C        186.0250  144.3370  242.5950 C.2    71  GLY71       0.2639
     58  O        185.9640  144.2610  241.3620 O.2    71  GLY71      -0.2714
     59  N        185.2970  145.1990  243.2990 N.am   72  LYS72      -0.1963
     60  CA       184.3400  146.1050  242.6840 C.3    72  LYS72       0.1728
     61  C        185.0050  147.1830  241.8380 C.2    72  LYS72       0.2617
     62  O        184.3050  147.8800  241.0970 O.2    72  LYS72      -0.2715
     63  CB       183.5010  146.7460  243.7840 C.3    72  LYS72       0.0311
     64  CG       182.3830  147.6210  243.3120 C.3    72  LYS72       0.0038
     65  CD       181.5750  148.1110  244.4920 C.3    72  LYS72       0.0206
     66  CE       182.3640  149.1270  245.2990 C.3    72  LYS72       0.1093
     67  NZ       181.5720  149.7760  246.3740 N.3    72  LYS72      -0.1314
     68  N        186.3250  147.3350  241.9240 N.am   73  THR73      -0.1937
     69  CA       187.0430  148.3800  241.2070 C.3    73  THR73       0.2028
     70  C        187.4610  147.9550  239.8040 C.2    73  THR73       0.2642
     71  O        188.0910  148.7450  239.0950 O.2    73  THR73      -0.2714
     72  CB       188.2830  148.7980  242.0020 C.3    73  THR73       0.1808
     73  OG1      187.9020  149.1430  243.3380 O.3    73  THR73      -0.2208
     74  CG2      188.9550  150.0060  241.3680 C.3    73  THR73       0.0379
     75  N        187.1220  146.7380  239.3810 N.am   74  VAL74      -0.1977
     76  CA       187.5990  146.2400  238.0940 C.3    74  VAL74       0.1596
     77  C        186.8780  146.9420  236.9510 C.2    74  VAL74       0.2287
     78  O        187.5010  147.3850  235.9770 O.2    74  VAL74      -0.2864
     79  CB       187.4190  144.7170  238.0140 C.3    74  VAL74       0.0276
     80  CG1      187.8540  144.2140  236.6610 C.3    74  VAL74       0.0022
     81  CG2      188.2050  144.0390  239.1100 C.3    74  VAL74       0.0022
     82  N        193.9190  156.3080  244.9530 N.3   103  LYS103     -0.1245
     83  CA       193.4680  155.9000  243.6320 C.3   103  LYS103      0.1561
     84  C        194.3420  156.4980  242.5430 C.2   103  LYS103      0.2260
     85  O        194.5970  155.8480  241.5240 O.2   103  LYS103     -0.2867
     86  CB       192.0120  156.3020  243.4320 C.3   103  LYS103      0.0271
     87  CG       191.0690  155.6600  244.4150 C.3   103  LYS103      0.0035
     88  CD       190.9860  154.1660  244.2110 C.3   103  LYS103      0.0206
     89  CE       190.0230  153.5240  245.1900 C.3   103  LYS103      0.1093
     90  NZ       189.9810  152.0470  245.0260 N.3   103  LYS103     -0.1314
     91  N        197.6160  154.5650  242.3460 N.3   106  GLU106     -0.1245
     92  CA       197.3870  153.2940  241.6690 C.3   106  GLU106      0.1567
     93  C        197.2540  153.4860  240.1620 C.2   106  GLU106      0.2260
     94  O        197.9560  152.8380  239.3710 O.2   106  GLU106     -0.2867
     95  CB       196.1400  152.6270  242.2370 C.3   106  GLU106      0.0388
     96  CG       195.8490  151.2750  241.6370 C.3   106  GLU106      0.1160
     97  CD       194.6460  150.6070  242.2650 C.2   106  GLU106      0.3649
     98  OE1      194.0420  151.2070  243.1780 O.co2 106  GLU106     -0.2457
     99  OE2      194.3000  149.4830  241.8430 O.co2 106  GLU106     -0.2457
    100  N        191.0600  150.7720  251.1850 N.3   378  ASN378     -0.1240
    101  CA       191.0600  149.3250  250.9650 C.3   378  ASN378      0.1653
    102  C        192.2740  148.7370  251.6830 C.2   378  ASN378      0.2266
    103  O        193.3330  148.5290  251.0890 O.2   378  ASN378     -0.2867
    104  CB       191.0660  148.9870  249.4680 C.3   378  ASN378      0.1155
    105  CG       192.2490  149.5930  248.7300 C.2   378  ASN378      0.2627
    106  OD1      193.1100  150.2370  249.3310 O.2   378  ASN378     -0.2716
    107  ND2      192.2990  149.3790  247.4200 N.am  378  ASN378     -0.0877
    108  N        191.9380  145.7360  254.2150 N.3   380  PRO380     -0.2116
    109  CA       191.2250  144.7870  255.0760 C.3   380  PRO380      0.1372
    110  C        192.1380  144.1150  256.0880 C.2   380  PRO380      0.2244
    111  O        193.3520  144.3420  256.0940 O.2   380  PRO380     -0.2868
    112  CB       190.6430  143.7800  254.0780 C.3   380  PRO380      0.0268
    113  CG       191.5390  143.8540  252.9030 C.3   380  PRO380      0.0207
    114  CD       191.9900  145.2790  252.8170 C.3   380  PRO380      0.0892
    115  N        191.6300  138.3970  251.4250 N.3   415  ARG415     -0.1245
    116  CA       191.5540  137.3890  250.3790 C.3   415  ARG415      0.1563
    117  C        192.8360  136.5700  250.3390 C.2   415  ARG415      0.2260
    118  O        193.9410  137.1170  250.4120 O.2   415  ARG415     -0.2867
    119  CB       191.3100  138.0560  249.0300 C.3   415  ARG415      0.0307
    120  CG       191.0710  137.0820  247.9040 C.3   415  ARG415      0.0489
    121  CD       190.9120  137.8100  246.5900 C.3   415  ARG415      0.2205
    122  NE       189.6980  138.6160  246.5400 N.pl3 415  ARG415     -0.0865
    123  CZ       188.5080  138.1550  246.1680 C.cat 415  ARG415      0.5346
    124  NH1      188.3560  136.8890  245.8050 N.pl3 415  ARG415      0.1354
    125  NH2      187.4630  138.9650  246.1510 N.pl3 415  ARG415      0.1354
@<TRIPOS>BOND
     1    31    30    2
     2    18    16    1
     3     4     3    2
     4    30    29    1
     5    78    77    2
     6    16    13    1
     7    16    17    1
     8    13    12    1
     9    13    14    1
    10     3    12   am
    11     3     2    1
    12    23    22    2
    13    80    79    1
    14     1     2    1
    15    14    15    2
    16    77    76    1
    17    29    32    1
    18    29    28    1
    19     2     5    1
    20    19    17    1
    21    22    21    1
    22    32    33    1
    23    79    76    1
    24    79    81    1
    25    76    75    1
    26    20    21    1
    27    21    24    1
    28     5     6    1
    29    35    34    2
    30     8     6   ar
    31     8    10   ar
    32     6     7   ar
    33    33    34    1
    34    71    70    2
    35    10    11   ar
    36    94    93    2
    37     7     9   ar
    38    75    70   am
    39    11     9   ar
    40    34    36   am
    41    70    69    1
    42    24    25    1
    43    93    92    1
    44    26    25   ar
    45    25    27   ar
    46    62    61    2
    47    69    68    1
    48    69    72    1
    49    58    57    2
    50    74    72    1
    51    85    84    2
    52    96    95    1
    53    96    97    1
    54    92    95    1
    55    92    91    1
    56    61    68   am
    57    61    60    1
    58    99    97   ar
    59    72    73    1
    60    97    98   ar
    61    84    83    1
    62    57    59   am
    63    57    56    1
    64    60    59    1
    65    60    63    1
    66    64    63    1
    67    64    65    1
    68    56    55    1
    69    86    83    1
    70    86    87    1
    71    53    52    2
    72    83    82    1
    73    88    87    1
    74    88    89    1
    75    65    66    1
    76    52    55   am
    77    52    51    1
    78    90    89    1
    79    66    67    1
    80   124   123    1
    81    54    51    1
    82    51    50    1
    83   125   123    1
    84   123   122    2
    85   122   121    1
    86   121   120    1
    87    50    46   am
    88   107   105   am
    89   120   119    1
    90    47    46    2
    91    46    45    1
    92   105   106    2
    93   105   104    1
    94    45    44    1
    95    45    48    1
    96    44    39   am
    97   119   116    1
    98   104   101    1
    99    38    39    1
   100    38    37    1
   101    38    41    1
   102    39    40    2
   103    43    41    1
   104   117   116    1
   105   117   118    2
   106    42    41    1
   107    48    49    1
   108   116   115    1
   109   101   100    1
   110   101   102    1
   111   103   102    2
   112   114   113    1
   113   114   108    1
   114   113   112    1
   115   112   109    1
   116   108   109    1
   117   109   110    1
   118   110   111    2
