@<TRIPOS>MOLECULE
tmp/6d6uD07.pdb
 89 86 0 0 0
SMALL
GASTEIGER

@<TRIPOS>ATOM
      1  N        115.5910  162.5210  144.2630 N.3    91  PHE91      -0.1241
      2  CA       116.8230  161.7060  144.4210 C.3    91  PHE91       0.1605
      3  C        116.5380  160.5210  145.3420 C.2    91  PHE91       0.2264
      4  O        115.4350  160.4530  145.8900 O.2    91  PHE91      -0.2867
      5  CB       117.9720  162.5590  144.9530 C.3    91  PHE91       0.0534
      6  CG       117.9370  162.8040  146.4370 C.ar   91  PHE91      -0.0203
      7  CD1      116.8790  163.4720  147.0190 C.ar   91  PHE91      -0.0042
      8  CD2      118.9770  162.3920  147.2470 C.ar   91  PHE91      -0.0042
      9  CE1      116.8520  163.6990  148.3840 C.ar   91  PHE91      -0.0003
     10  CE2      118.9530  162.6250  148.6100 C.ar   91  PHE91      -0.0003
     11  CZ       117.8900  163.2800  149.1760 C.ar   91  PHE91      -0.0000
     12  N        117.7640  158.6410  148.6610 N.3    93  HIS93      -0.1241
     13  CA       118.5070  158.8800  149.9310 C.3    93  HIS93       0.1621
     14  C        119.6230  157.8640  150.1880 C.2    93  HIS93       0.2264
     15  O        120.5540  158.2190  150.9180 O.2    93  HIS93      -0.2867
     16  CB       117.5460  158.8870  151.1220 C.3    93  HIS93       0.0745
     17  CG       116.7970  160.1600  151.3050 C.ar   93  HIS93       0.0817
     18  ND1      115.7450  160.5160  150.4990 N.ar   93  HIS93      -0.2268
     19  CD2      116.9210  161.1450  152.2150 C.ar   93  HIS93       0.1154
     20  CE1      115.2650  161.6770  150.8880 C.ar   93  HIS93       0.1986
     21  NE2      115.9660  162.0820  151.9410 N.ar   93  HIS93      -0.2212
     22  N        111.8420  164.2750  147.9790 N.3   150  SER150     -0.1202
     23  CA       112.1100  165.4880  147.1790 C.3   150  SER150      0.2020
     24  C        113.3550  166.1790  147.7140 C.2   150  SER150      0.2619
     25  O        113.6810  165.9960  148.8870 O.2   150  SER150     -0.2717
     26  CB       110.9460  166.4180  147.1720 C.3   150  SER150      0.2103
     27  OG       111.2940  167.6110  146.4940 O.3   150  SER150     -0.2182
     28  N        114.0220  166.9280  146.8490 N.am  151  TYR151     -0.1961
     29  CA       115.2400  167.6720  147.2380 C.3   151  TYR151      0.1771
     30  C        114.9690  169.1590  147.0160 C.2   151  TYR151      0.2619
     31  O        114.0200  169.4970  146.2870 O.2   151  TYR151     -0.2715
     32  CB       116.3880  167.2430  146.3250 C.3   151  TYR151      0.0574
     33  CG       117.7870  167.5030  146.8160 C.ar  151  TYR151     -0.0198
     34  CD1      118.4990  166.5190  147.4690 C.ar  151  TYR151     -0.0009
     35  CD2      118.4280  168.7020  146.5730 C.ar  151  TYR151     -0.0009
     36  CE1      119.7950  166.7240  147.9030 C.ar  151  TYR151      0.0417
     37  CE2      119.7250  168.9280  147.0020 C.ar  151  TYR151      0.0417
     38  CZ       120.4100  167.9340  147.6710 C.ar  151  TYR151      0.1957
     39  OH       121.6830  168.1280  148.1080 O.3   151  TYR151     -0.2866
     40  N        115.6930  170.0020  147.7430 N.am  152  ALA152     -0.1977
     41  CA       115.6680  171.4490  147.5530 C.3   152  ALA152      0.1597
     42  C        114.2820  172.0610  147.7290 C.2   152  ALA152      0.2287
     43  O        114.1260  173.2770  147.5900 O.2   152  ALA152     -0.2864
     44  CB       116.2180  171.8170  146.1740 C.3   152  ALA152      0.0319
     45  N        111.1050  163.4200  157.4210 N.3   194  VAL194     -0.1245
     46  CA       112.4970  163.3980  157.9610 C.3   194  VAL194      0.1561
     47  C        112.9940  164.8290  158.1650 C.2   194  VAL194      0.2260
     48  O        113.2510  165.4970  157.1600 O.2   194  VAL194     -0.2867
     49  CB       113.4450  162.6380  157.0200 C.3   194  VAL194      0.0252
     50  CG1      114.8100  163.2980  156.9620 C.3   194  VAL194      0.0019
     51  CG2      113.5650  161.1730  157.4000 C.3   194  VAL194      0.0019
     52  N        115.6550  167.7280  159.2180 N.3   196  SER196     -0.1202
     53  CA       117.1240  167.8910  159.1020 C.3   196  SER196      0.2020
     54  C        117.5220  169.3340  159.4190 C.2   196  SER196      0.2619
     55  O        116.6460  170.1110  159.8330 O.2   196  SER196     -0.2717
     56  CB       117.5860  167.4920  157.7390 C.3   196  SER196      0.2103
     57  OG       118.9670  167.1910  157.7700 O.3   196  SER196     -0.2182
     58  N        118.7960  169.6690  159.1990 N.am  197  SER197     -0.1937
     59  CA       119.3240  171.0260  159.4890 C.3   197  SER197      0.2055
     60  C        118.6100  172.0670  158.6240 C.2   197  SER197      0.2643
     61  O        118.2820  173.1390  159.1580 O.2   197  SER197     -0.2714
     62  CB       120.8050  171.0680  159.2750 C.3   197  SER197      0.2130
     63  OG       121.1470  170.3690  158.0930 O.3   197  SER197     -0.2179
     64  N        118.3540  171.7490  157.3520 N.am  198  THR198     -0.1950
     65  CA       117.6720  172.7130  156.4450 C.3   198  THR198      0.1897
     66  C        116.1870  172.8390  156.8060 C.2   198  THR198      0.2313
     67  O        115.7460  173.9740  157.0580 O.2   198  THR198     -0.2863
     68  CB       117.8740  172.3390  154.9750 C.3   198  THR198      0.1794
     69  OG1      119.2800  172.1890  154.7920 O.3   198  THR198     -0.2208
     70  CG2      117.3500  173.4030  154.0390 C.3   198  THR198      0.0378
     71  N        111.5660  167.5480  155.2970 N.3   201  TYR201     -0.1241
     72  CA       111.3710  167.0340  153.9180 C.3   201  TYR201      0.1605
     73  C        110.5310  165.7600  153.9520 C.2   201  TYR201      0.2264
     74  O        110.7260  164.9460  154.8610 O.2   201  TYR201     -0.2867
     75  CB       112.7210  166.6780  153.3030 C.3   201  TYR201      0.0534
     76  CG       113.5880  167.8690  153.0120 C.ar  201  TYR201     -0.0201
     77  CD1      113.5530  168.4840  151.7770 C.ar  201  TYR201     -0.0009
     78  CD2      114.4370  168.3860  153.9690 C.ar  201  TYR201     -0.0009
     79  CE1      114.3460  169.5800  151.4960 C.ar  201  TYR201      0.0417
     80  CE2      115.2360  169.4830  153.7060 C.ar  201  TYR201      0.0417
     81  CZ       115.1910  170.0810  152.4640 C.ar  201  TYR201      0.1957
     82  OH       115.9710  171.1620  152.1910 O.3   201  TYR201     -0.2866
     83  N        109.3860  162.0570  152.6860 N.3   203  VAL203     -0.1245
     84  CA       110.2340  160.9250  152.2190 C.3   203  VAL203      0.1561
     85  C        109.4320  159.6340  152.0970 C.2   203  VAL203      0.2260
     86  O        109.0960  159.0670  153.1360 O.2   203  VAL203     -0.2867
     87  CB       111.3780  160.6960  153.2190 C.3   203  VAL203      0.0252
     88  CG1      111.7890  159.2390  153.2720 C.3   203  VAL203      0.0019
     89  CG2      112.5680  161.5940  152.9500 C.3   203  VAL203      0.0019
@<TRIPOS>BOND
     1     1     2    1
     2     2     5    1
     3     2     3    1
     4     5     6    1
     5     3     4    2
     6    44    41    1
     7    31    30    2
     8    32    33    1
     9    32    29    1
    10     6     7   ar
    11     6     8   ar
    12    27    26    1
    13    35    33   ar
    14    35    37   ar
    15    33    34   ar
    16    28    29    1
    17    28    24   am
    18    37    38   ar
    19    30    29    1
    20    30    40   am
    21     7     9   ar
    22    26    23    1
    23    23    24    1
    24    23    22    1
    25     8    10   ar
    26    34    36   ar
    27    41    42    1
    28    41    40    1
    29    43    42    2
    30    38    36   ar
    31    38    39    1
    32    24    25    2
    33     9    11   ar
    34    10    11   ar
    35    12    13    1
    36    13    14    1
    37    13    16    1
    38    14    15    2
    39    18    20   ar
    40    18    17   ar
    41    20    21   ar
    42    16    17    1
    43    17    19   ar
    44    79    77   ar
    45    79    81   ar
    46    77    76   ar
    47    21    19   ar
    48    85    84    1
    49    85    86    2
    50    82    81    1
    51    84    83    1
    52    84    87    1
    53    81    80   ar
    54    89    87    1
    55    76    75    1
    56    76    78   ar
    57    87    88    1
    58    75    72    1
    59    80    78   ar
    60    72    73    1
    61    72    71    1
    62    73    74    2
    63    70    68    1
    64    69    68    1
    65    68    65    1
    66    65    66    1
    67    65    64    1
    68    66    67    2
    69    50    49    1
    70    49    51    1
    71    49    46    1
    72    48    47    2
    73    64    60   am
    74    45    46    1
    75    56    57    1
    76    56    53    1
    77    46    47    1
    78    63    62    1
    79    60    61    2
    80    60    59    1
    81    53    52    1
    82    53    54    1
    83    58    54   am
    84    58    59    1
    85    62    59    1
    86    54    55    2
