@<TRIPOS>MOLECULE
tmp/6d6uE04.pdb
 86 83 0 0 0
SMALL
GASTEIGER

@<TRIPOS>ATOM
      1  N        156.1950  121.2230  153.1960 N.3   272  ILE272     -0.1231
      2  CA       157.5540  120.6880  153.1600 C.3   272  ILE272      0.1692
      3  C        157.7760  119.7140  154.3120 C.2   272  ILE272      0.2592
      4  O        158.2960  118.6100  154.1200 O.2   272  ILE272     -0.2718
      5  CB       158.5810  121.8310  153.1770 C.3   272  ILE272      0.0266
      6  CG1      158.4450  122.6800  151.9140 C.3   272  ILE272      0.0019
      7  CG2      159.9870  121.2780  153.2960 C.3   272  ILE272      0.0020
      8  CD1      159.2220  123.9780  151.9710 C.3   272  ILE272      0.0001
      9  N        157.3700  120.1010  155.5250 N.am  273  PHE273     -0.1976
     10  CA       157.5350  119.2150  156.6760 C.3   273  PHE273      0.1639
     11  C        156.6950  117.9500  156.5340 C.2   273  PHE273      0.2290
     12  O        157.1920  116.8300  156.7330 O.2   273  PHE273     -0.2864
     13  CB       157.1730  119.9430  157.9710 C.3   273  PHE273      0.0560
     14  CG       158.2210  120.9020  158.4450 C.ar  273  PHE273     -0.0200
     15  CD1      159.4960  120.8750  157.9140 C.ar  273  PHE273     -0.0042
     16  CD2      157.9360  121.8160  159.4430 C.ar  273  PHE273     -0.0042
     17  CE1      160.4620  121.7530  158.3580 C.ar  273  PHE273     -0.0003
     18  CE2      158.8970  122.6940  159.8920 C.ar  273  PHE273     -0.0003
     19  CZ       160.1630  122.6620  159.3480 C.ar  273  PHE273     -0.0000
     20  N        158.2480  115.7270  153.9840 N.3   276  SER276     -0.1217
     21  CA       159.5300  115.1810  154.4040 C.3   276  SER276      0.1889
     22  C        159.3430  114.0410  155.3910 C.2   276  SER276      0.2288
     23  O        160.1340  113.0940  155.4080 O.2   276  SER276     -0.2866
     24  CB       160.3900  116.2830  155.0180 C.3   276  SER276      0.2089
     25  OG       159.7950  116.7770  156.2040 O.3   276  SER276     -0.2183
     26  N        160.7960  110.3560  154.9430 N.3   280  GLU280     -0.1245
     27  CA       161.6150  109.7050  155.9560 C.3   280  GLU280      0.1567
     28  C        161.1130  108.3030  156.2500 C.2   280  GLU280      0.2260
     29  O        161.9110  107.3740  156.4170 O.2   280  GLU280     -0.2867
     30  CB       161.6350  110.5230  157.2420 C.3   280  GLU280      0.0388
     31  CG       162.4830  109.8820  158.3210 C.3   280  GLU280      0.1160
     32  CD       162.4590  110.6530  159.6150 C.2   280  GLU280      0.3649
     33  OE1      161.7580  111.6820  159.6780 O.co2 280  GLU280     -0.2457
     34  OE2      163.1370  110.2230  160.5710 O.co2 280  GLU280     -0.2457
     35  N        166.8390  106.1790  164.1270 N.3   298  MET298     -0.1245
     36  CA       166.2180  107.1700  163.2520 C.3   298  MET298      0.1570
     37  C        164.9910  107.7890  163.9090 C.2   298  MET298      0.2261
     38  O        164.8150  109.0140  163.8980 O.2   298  MET298     -0.2867
     39  CB       165.8450  106.5280  161.9180 C.3   298  MET298      0.0387
     40  CG       167.0310  106.1130  161.0660 C.3   298  MET298      0.0595
     41  SD       168.0220  107.5120  160.5160 S.3   298  MET298     -0.1393
     42  CE       166.9060  108.2420  159.3210 C.3   298  MET298      0.0692
     43  N        166.0570  110.1130  166.7070 N.3   301  TYR301     -0.1227
     44  CA       166.4290  111.4450  166.2360 C.3   301  TYR301      0.1736
     45  C        165.1980  112.2550  165.8460 C.2   301  TYR301      0.2595
     46  O        165.0180  113.3880  166.3070 O.2   301  TYR301     -0.2718
     47  CB       167.3980  111.3670  165.0540 C.3   301  TYR301      0.0548
     48  CG       168.7900  110.8950  165.3960 C.ar  301  TYR301     -0.0200
     49  CD1      169.6440  111.6860  166.1510 C.ar  301  TYR301     -0.0009
     50  CD2      169.2790  109.6980  164.9000 C.ar  301  TYR301     -0.0009
     51  CE1      170.9220  111.2680  166.4530 C.ar  301  TYR301      0.0417
     52  CE2      170.5560  109.2720  165.1920 C.ar  301  TYR301      0.0417
     53  CZ       171.3750  110.0610  165.9670 C.ar  301  TYR301      0.1957
     54  OH       172.6500  109.6380  166.2570 O.3   301  TYR301     -0.2866
     55  N        164.3430  111.6860  164.9930 N.am  302  ALA302     -0.1980
     56  CA       163.2590  112.4590  164.3940 C.3   302  ALA302      0.1597
     57  C        162.2750  112.9560  165.4450 C.2   302  ALA302      0.2287
     58  O        161.8640  114.1250  165.4220 O.2   302  ALA302     -0.2864
     59  CB       162.5420  111.6150  163.3440 C.3   302  ALA302      0.0319
     60  N        163.7320  115.9330  166.9050 N.3   305  PHE305     -0.1227
     61  CA       164.2500  116.9700  166.0190 C.3   305  PHE305      0.1736
     62  C        163.1620  117.6980  165.2390 C.2   305  PHE305      0.2595
     63  O        163.3050  118.8960  164.9700 O.2   305  PHE305     -0.2718
     64  CB       165.2770  116.3730  165.0550 C.3   305  PHE305      0.0547
     65  CG       166.5840  116.0360  165.7060 C.ar  305  PHE305     -0.0202
     66  CD1      166.9040  116.5520  166.9490 C.ar  305  PHE305     -0.0042
     67  CD2      167.4920  115.2030  165.0810 C.ar  305  PHE305     -0.0042
     68  CE1      168.1040  116.2460  167.5530 C.ar  305  PHE305     -0.0003
     69  CE2      168.6940  114.8930  165.6800 C.ar  305  PHE305     -0.0003
     70  CZ       169.0000  115.4150  166.9190 C.ar  305  PHE305     -0.0000
     71  N        162.0830  117.0150  164.8550 N.am  306  PHE306     -0.1976
     72  CA       160.9860  117.7230  164.1930 C.3   306  PHE306      0.1639
     73  C        160.3930  118.8380  165.0420 C.2   306  PHE306      0.2290
     74  O        160.2140  119.9500  164.5140 O.2   306  PHE306     -0.2864
     75  CB       159.9030  116.7380  163.7450 C.3   306  PHE306      0.0560
     76  CG       160.1850  116.0870  162.4300 C.ar  306  PHE306     -0.0200
     77  CD1      159.8810  116.7410  161.2520 C.ar  306  PHE306     -0.0042
     78  CD2      160.7450  114.8310  162.3620 C.ar  306  PHE306     -0.0042
     79  CE1      160.1290  116.1520  160.0290 C.ar  306  PHE306     -0.0003
     80  CE2      160.9980  114.2390  161.1380 C.ar  306  PHE306     -0.0003
     81  CZ       160.6860  114.9000  159.9730 C.ar  306  PHE306     -0.0000
     82  N        162.8760  121.6920  164.9860 N.3   309  ALA309     -0.1245
     83  CA       162.9010  122.4080  163.7150 C.3   309  ALA309      0.1562
     84  C        161.6680  123.2820  163.5450 C.2   309  ALA309      0.2260
     85  O        161.7590  124.4050  163.0360 O.2   309  ALA309     -0.2867
     86  CB       163.0160  121.4190  162.5570 C.3   309  ALA309      0.0290
@<TRIPOS>BOND
     1     6     8    1
     2     6     5    1
     3     2     5    1
     4     2     1    1
     5     2     3    1
     6     5     7    1
     7    20    21    1
     8     4     3    2
     9     3     9   am
    10    21    24    1
    11    21    22    1
    12    26    27    1
    13    24    25    1
    14    22    23    2
    15     9    10    1
    16    27    28    1
    17    27    30    1
    18    28    29    2
    19    11    10    1
    20    11    12    2
    21    10    13    1
    22    30    31    1
    23    15    17   ar
    24    15    14   ar
    25    13    14    1
    26    31    32    1
    27    17    19   ar
    28    14    16   ar
    29    42    41    1
    30    19    18   ar
    31    16    18   ar
    32    32    33   ar
    33    32    34   ar
    34    81    79   ar
    35    81    80   ar
    36    79    77   ar
    37    41    40    1
    38    40    39    1
    39    80    78   ar
    40    77    76   ar
    41    39    36    1
    42    78    76   ar
    43    76    75    1
    44    86    83    1
    45    85    84    2
    46    36    37    1
    47    36    35    1
    48    59    56    1
    49    84    83    1
    50    83    82    1
    51    75    72    1
    52    38    37    2
    53    72    71    1
    54    72    73    1
    55    56    55    1
    56    56    57    1
    57    74    73    2
    58    71    62   am
    59    50    52   ar
    60    50    48   ar
    61    63    62    2
    62    55    45   am
    63    47    48    1
    64    47    44    1
    65    64    65    1
    66    64    61    1
    67    67    69   ar
    68    67    65   ar
    69    52    53   ar
    70    62    61    1
    71    48    49   ar
    72    58    57    2
    73    69    70   ar
    74    65    66   ar
    75    45    44    1
    76    45    46    2
    77    53    54    1
    78    53    51   ar
    79    61    60    1
    80    49    51   ar
    81    44    43    1
    82    70    68   ar
    83    66    68   ar
