@<TRIPOS>MOLECULE
tmp/6d6uC05.pdb
 92 90 0 0 0
SMALL
GASTEIGER

@<TRIPOS>ATOM
      1  N        128.0390  109.0570  149.2040 N.3   283  VAL283     -0.1231
      2  CA       127.1760  108.1290  149.9280 C.3   283  VAL283      0.1692
      3  C        127.5920  106.6900  149.6560 C.2   283  VAL283      0.2592
      4  O        127.5920  105.8510  150.5640 O.2   283  VAL283     -0.2718
      5  CB       125.7000  108.3720  149.5680 C.3   283  VAL283      0.0266
      6  CG1      124.8230  107.2940  150.1720 C.3   283  VAL283      0.0020
      7  CG2      125.2610  109.7320  150.0670 C.3   283  VAL283      0.0020
      8  N        127.9570  106.3800  148.4090 N.am  284  PHE284     -0.1976
      9  CA       128.3970  105.0200  148.1000 C.3   284  PHE284      0.1639
     10  C        129.6070  104.6240  148.9370 C.2   284  PHE284      0.2290
     11  O        129.6170  103.5590  149.5710 O.2   284  PHE284     -0.2864
     12  CB       128.7200  104.8620  146.6140 C.3   284  PHE284      0.0560
     13  CG       127.5140  104.7290  145.7370 C.ar  284  PHE284     -0.0200
     14  CD1      126.7550  103.5760  145.7640 C.ar  284  PHE284     -0.0042
     15  CD2      127.1770  105.7210  144.8390 C.ar  284  PHE284     -0.0042
     16  CE1      125.6510  103.4400  144.9500 C.ar  284  PHE284     -0.0003
     17  CE2      126.0770  105.5880  144.0170 C.ar  284  PHE284     -0.0003
     18  CZ       125.3150  104.4470  144.0710 C.ar  284  PHE284     -0.0000
     19  N        128.7390  104.1760  152.6210 N.3   287  MET287     -0.1245
     20  CA       128.0250  102.9290  152.8670 C.3   287  MET287      0.1570
     21  C        128.9680  101.7380  152.8160 C.2   287  MET287      0.2261
     22  O        128.8370  100.8010  153.6110 O.2   287  MET287     -0.2867
     23  CB       126.8920  102.7570  151.8550 C.3   287  MET287      0.0387
     24  CG       125.7540  103.7440  152.0230 C.3   287  MET287      0.0595
     25  SD       124.9570  103.5940  153.6300 S.3   287  MET287     -0.1393
     26  CE       124.1790  101.9900  153.4640 C.3   287  MET287      0.0692
     27  N        129.6010   99.1800  155.8680 N.3   291  GLU291     -0.1245
     28  CA       129.4260   97.7510  155.6430 C.3   291  GLU291      0.1567
     29  C        130.6270   96.9710  156.1540 C.2   291  GLU291      0.2260
     30  O        130.4770   95.9440  156.8300 O.2   291  GLU291     -0.2867
     31  CB       129.1960   97.4940  154.1540 C.3   291  GLU291      0.0388
     32  CG       128.8670   96.0640  153.7920 C.3   291  GLU291      0.1160
     33  CD       130.1080   95.2370  153.5370 C.2   291  GLU291      0.3649
     34  OE1      131.1380   95.8200  153.1380 O.co2 291  GLU291     -0.2457
     35  OE2      130.0520   94.0050  153.7220 O.co2 291  GLU291     -0.2457
     36  N        128.3640   87.5640  153.2690 N.3   309  ILE309     -0.1245
     37  CA       128.1750   88.9840  152.9840 C.3   309  ILE309      0.1561
     38  C        129.2410   89.5100  152.0370 C.2   309  ILE309      0.2260
     39  O        128.9530   90.3540  151.1830 O.2   309  ILE309     -0.2867
     40  CB       128.1290   89.7870  154.2990 C.3   309  ILE309      0.0252
     41  CG1      126.8360   89.4770  155.0570 C.3   309  ILE309      0.0019
     42  CG2      128.2600   91.2750  154.0380 C.3   309  ILE309      0.0019
     43  CD1      126.7990   90.0360  156.4560 C.3   309  ILE309      0.0001
     44  N        128.2500   88.3940  148.5350 N.3   312  TRP312     -0.1227
     45  CA       127.0380   89.0580  148.0620 C.3   312  TRP312      0.1737
     46  C        127.2920   90.5320  147.7610 C.2   312  TRP312      0.2596
     47  O        126.7680   91.0660  146.7770 O.2   312  TRP312     -0.2718
     48  CB       125.8990   88.9160  149.0730 C.3   312  TRP312      0.0564
     49  CG       125.3350   87.5280  149.1860 C.ar  312  TRP312      0.0003
     50  CD1      125.5740   86.6270  150.1790 C.ar  312  TRP312      0.0946
     51  CD2      124.4440   86.8800  148.2680 C.ar  312  TRP312      0.0152
     52  NE1      124.8870   85.4640  149.9460 N.ar  312  TRP312     -0.2442
     53  CE2      124.1860   85.5920  148.7770 C.ar  312  TRP312      0.0810
     54  CE3      123.8390   87.2630  147.0680 C.ar  312  TRP312      0.0012
     55  CZ2      123.3510   84.6870  148.1310 C.ar  312  TRP312      0.0191
     56  CZ3      123.0090   86.3610  146.4280 C.ar  312  TRP312      0.0001
     57  CH2      122.7740   85.0890  146.9610 C.ar  312  TRP312      0.0015
     58  N        128.0980   91.2040  148.5860 N.am  313  SER313     -0.1952
     59  CA       128.3740   92.6170  148.3560 C.3   313  SER313      0.1924
     60  C        129.2090   92.8200  147.1020 C.2   313  SER313      0.2314
     61  O        128.9720   93.7700  146.3410 O.2   313  SER313     -0.2863
     62  CB       129.0820   93.2160  149.5690 C.3   313  SER313      0.2116
     63  OG       128.2480   93.1940  150.7130 O.3   313  SER313     -0.2180
     64  N        126.6440   92.9250  144.5330 N.3   316  PHE316     -0.1227
     65  CA       125.5380   93.8640  144.6800 C.3   316  PHE316      0.1736
     66  C        125.9510   95.3250  144.5720 C.2   316  PHE316      0.2595
     67  O        125.1500   96.1420  144.1050 O.2   316  PHE316     -0.2718
     68  CB       124.8100   93.6360  146.0050 C.3   316  PHE316      0.0547
     69  CG       123.8710   92.4680  145.9810 C.ar  316  PHE316     -0.0202
     70  CD1      123.4970   91.8950  144.7790 C.ar  316  PHE316     -0.0042
     71  CD2      123.3420   91.9560  147.1530 C.ar  316  PHE316     -0.0042
     72  CE1      122.6270   90.8260  144.7470 C.ar  316  PHE316     -0.0003
     73  CE2      122.4680   90.8860  147.1270 C.ar  316  PHE316     -0.0003
     74  CZ       122.1120   90.3200  145.9220 C.ar  316  PHE316     -0.0000
     75  N        127.1640   95.6940  144.9940 N.am  317  PHE317     -0.1976
     76  CA       127.5840   97.0850  144.8190 C.3   317  PHE317      0.1639
     77  C        127.6340   97.5050  143.3540 C.2   317  PHE317      0.2290
     78  O        126.9890   98.5080  142.9960 O.2   317  PHE317     -0.2864
     79  CB       128.9130   97.3340  145.5380 C.3   317  PHE317      0.0560
     80  CG       128.7670   97.5890  147.0100 C.ar  317  PHE317     -0.0200
     81  CD1      128.4180   98.8450  147.4680 C.ar  317  PHE317     -0.0042
     82  CD2      128.9770   96.5860  147.9340 C.ar  317  PHE317     -0.0042
     83  CE1      128.2820   99.0960  148.8180 C.ar  317  PHE317     -0.0003
     84  CE2      128.8390   96.8340  149.2900 C.ar  317  PHE317     -0.0003
     85  CZ       128.4930   98.0910  149.7290 C.ar  317  PHE317     -0.0000
     86  N        124.0010   97.9670  141.7590 N.3   320  VAL320     -0.1245
     87  CA       123.2800   99.1620  142.1890 C.3   320  VAL320      0.1561
     88  C        123.9360  100.4110  141.6180 C.2   320  VAL320      0.2260
     89  O        123.2520  101.3610  141.2160 O.2   320  VAL320     -0.2867
     90  CB       123.1990   99.2170  143.7250 C.3   320  VAL320      0.0252
     91  CG1      122.5450  100.5090  144.1760 C.3   320  VAL320      0.0019
     92  CG2      122.4320   98.0200  144.2530 C.3   320  VAL320      0.0019
@<TRIPOS>BOND
     1    89    88    2
     2    88    87    1
     3    86    87    1
     4    87    90    1
     5    78    77    2
     6    77    76    1
     7    90    91    1
     8    90    92    1
     9    17    18   ar
    10    17    15   ar
    11    18    16   ar
    12    67    66    2
    13    64    65    1
    14    66    65    1
    15    66    75   am
    16    65    68    1
    17    72    70   ar
    18    72    74   ar
    19    70    69   ar
    20    76    75    1
    21    76    79    1
    22    15    13   ar
    23    16    14   ar
    24    79    80    1
    25    13    14   ar
    26    13    12    1
    27    74    73   ar
    28    69    68    1
    29    69    71   ar
    30    61    60    2
    31    56    57   ar
    32    56    54   ar
    33    12     9    1
    34    47    46    2
    35    57    55   ar
    36    80    81   ar
    37    80    82   ar
    38    54    51   ar
    39    60    59    1
    40    73    71   ar
    41    81    83   ar
    42    46    45    1
    43    46    58   am
    44    82    84   ar
    45    45    44    1
    46    45    48    1
    47     9     8    1
    48     9    10    1
    49    55    53   ar
    50    51    53   ar
    51    51    49   ar
    52    59    58    1
    53    59    62    1
    54     8     3   am
    55    53    52   ar
    56    83    85   ar
    57    10    11    2
    58    48    49    1
    59    49    50   ar
    60     1     2    1
    61    84    85   ar
    62     5     2    1
    63     5     7    1
    64     5     6    1
    65    62    63    1
    66     3     2    1
    67     3     4    2
    68    52    50   ar
    69    39    38    2
    70    23    24    1
    71    23    20    1
    72    24    25    1
    73    38    37    1
    74    19    20    1
    75    21    20    1
    76    21    22    2
    77    37    36    1
    78    37    40    1
    79    34    33   ar
    80    26    25    1
    81    33    35   ar
    82    33    32    1
    83    32    31    1
    84    42    40    1
    85    31    28    1
    86    40    41    1
    87    41    43    1
    88    28    27    1
    89    28    29    1
    90    29    30    2
