@<TRIPOS>MOLECULE
tmp/6d6wC00.pdb
 190 188 0 0 0
SMALL
GASTEIGER

@<TRIPOS>ATOM
      1  N        129.2220   37.5540  100.3620 N.3   165  ASP165     -0.1225
      2  CA       129.8870   37.5700   99.0540 C.3   165  ASP165      0.1805
      3  C        129.0040   37.0580   97.9250 C.2   165  ASP165      0.2597
      4  O        129.4900   36.3380   97.0430 O.2   165  ASP165     -0.2718
      5  CB       131.2020   36.7730   99.0720 C.3   165  ASP165      0.1424
      6  CG       132.0650   37.0610   97.8440 C.2   165  ASP165      0.3668
      7  OD1      132.1250   38.2470   97.4190 O.co2 165  ASP165     -0.2456
      8  OD2      132.7040   36.1320   97.3000 O.co2 165  ASP165     -0.2456
      9  N        127.7210   37.4220   97.9040 N.am  166  TRP166     -0.1976
     10  CA       126.8690   37.1200   96.7690 C.3   166  TRP166      0.1640
     11  C        125.8260   38.2230   96.6230 C.2   166  TRP166      0.2290
     12  O        125.6060   39.0310   97.5350 O.2   166  TRP166     -0.2864
     13  CB       126.1920   35.7450   96.9000 C.3   166  TRP166      0.0576
     14  CG       125.1160   35.6410   97.9380 C.ar  166  TRP166      0.0006
     15  CD1      123.7810   35.9720   97.7880 C.ar  166  TRP166      0.0946
     16  CD2      125.2510   35.1370   99.2780 C.ar  166  TRP166      0.0152
     17  NE1      123.1050   35.7160   98.9550 N.ar  166  TRP166     -0.2442
     18  CE2      123.9750   35.1980   99.8790 C.ar  166  TRP166      0.0810
     19  CE3      126.3270   34.6430  100.0270 C.ar  166  TRP166      0.0012
     20  CZ2      123.7470   34.7890  101.1980 C.ar  166  TRP166      0.0191
     21  CZ3      126.0940   34.2250  101.3370 C.ar  166  TRP166      0.0001
     22  CH2      124.8170   34.3010  101.9050 C.ar  166  TRP166      0.0015
     23  N        126.2540   27.8890   93.8560 N.3   298  HIS298     -0.1241
     24  CA       125.2530   28.8750   94.2610 C.3   298  HIS298      0.1621
     25  C        123.9590   28.6480   93.4810 C.2   298  HIS298      0.2264
     26  O        123.9480   28.0090   92.4270 O.2   298  HIS298     -0.2867
     27  CB       125.7310   30.3160   94.0150 C.3   298  HIS298      0.0745
     28  CG       126.2890   31.0000   95.2300 C.ar  298  HIS298      0.0817
     29  ND1      125.5020   31.3920   96.2920 N.ar  298  HIS298     -0.2268
     30  CD2      127.5520   31.3840   95.5380 C.ar  298  HIS298      0.1154
     31  CE1      126.2580   31.9680   97.2090 C.ar  298  HIS298      0.1986
     32  NE2      127.5070   31.9720   96.7800 N.ar  298  HIS298     -0.2212
     33  N        124.6560   29.2550   99.9160 N.3   333  HIS333     -0.1241
     34  CA       124.9610   29.2110  101.3500 C.3   333  HIS333      0.1621
     35  C        123.6320   29.2360  102.1260 C.2   333  HIS333      0.2264
     36  O        123.5180   29.8650  103.1800 O.2   333  HIS333     -0.2867
     37  CB       125.7790   30.4290  101.7850 C.3   333  HIS333      0.0745
     38  CG       127.2310   30.3860  101.4160 C.ar  333  HIS333      0.0817
     39  ND1      128.1340   29.5450  102.0320 N.ar  333  HIS333     -0.2268
     40  CD2      127.9440   31.1150  100.5240 C.ar  333  HIS333      0.1154
     41  CE1      129.3390   29.7560  101.5330 C.ar  333  HIS333      0.1986
     42  NE2      129.2530   30.7070  100.6200 N.ar  333  HIS333     -0.2212
     43  N        126.0380   33.3350  108.2970 N.3   358  TYR358     -0.1227
     44  CA       127.2020   33.6200  107.4660 C.3   358  TYR358      0.1736
     45  C        127.9120   34.8720  107.9630 C.2   358  TYR358      0.2595
     46  O        127.2920   35.9350  108.0780 O.2   358  TYR358     -0.2718
     47  CB       126.7220   33.7790  106.0230 C.3   358  TYR358      0.0548
     48  CG       127.7310   34.0190  104.9390 C.ar  358  TYR358     -0.0200
     49  CD1      128.1670   32.9780  104.1330 C.ar  358  TYR358     -0.0009
     50  CD2      128.1570   35.3100  104.6390 C.ar  358  TYR358     -0.0009
     51  CE1      129.0450   33.2020  103.0950 C.ar  358  TYR358      0.0417
     52  CE2      129.0500   35.5460  103.6100 C.ar  358  TYR358      0.0417
     53  CZ       129.4830   34.4830  102.8340 C.ar  358  TYR358      0.1957
     54  OH       130.3530   34.7080  101.7920 O.3   358  TYR358     -0.2866
     55  N        129.2130   34.7520  108.2470 N.am  359  TRP359     -0.1976
     56  CA       130.0670   35.8700  108.6830 C.3   359  TRP359      0.1640
     57  C        129.4970   36.4730  109.9690 C.2   359  TRP359      0.2290
     58  O        129.2550   35.7270  110.9320 O.2   359  TRP359     -0.2864
     59  CB       130.2590   36.8650  107.5310 C.3   359  TRP359      0.0576
     60  CG       131.1270   36.3640  106.3950 C.ar  359  TRP359      0.0006
     61  CD1      131.7270   35.1420  106.2870 C.ar  359  TRP359      0.0946
     62  CD2      131.4560   37.0810  105.1970 C.ar  359  TRP359      0.0152
     63  NE1      132.4030   35.0520  105.0940 N.ar  359  TRP359     -0.2442
     64  CE2      132.2700   36.2350  104.4130 C.ar  359  TRP359      0.0810
     65  CE3      131.1590   38.3630  104.7210 C.ar  359  TRP359      0.0012
     66  CZ2      132.7860   36.6290  103.1630 C.ar  359  TRP359      0.0191
     67  CZ3      131.6620   38.7540  103.4780 C.ar  359  TRP359      0.0001
     68  CH2      132.4710   37.8910  102.7160 C.ar  359  TRP359      0.0015
     69  N        128.8530   29.3440  108.2060 N.3   396  ASN396     -0.1225
     70  CA       129.9690   29.4980  107.2730 C.3   396  ASN396      0.1785
     71  C        130.8370   30.6760  107.7050 C.2   396  ASN396      0.2597
     72  O        130.3710   31.8200  107.7190 O.2   396  ASN396     -0.2718
     73  CB       129.4590   29.6990  105.8400 C.3   396  ASN396      0.1169
     74  CG       130.5850   29.9120  104.8400 C.2   396  ASN396      0.2627
     75  OD1      131.1010   28.9590  104.2500 O.2   396  ASN396     -0.2716
     76  ND2      130.9690   31.1680  104.6410 N.am  396  ASN396     -0.0877
     77  N        132.0940   30.3980  108.0660 N.am  397  GLU397     -0.1979
     78  CA       133.1080   31.4320  108.2880 C.3   397  GLU397      0.1602
     79  C        132.6580   32.4770  109.3070 C.2   397  GLU397      0.2287
     80  O        132.7200   33.6840  109.0670 O.2   397  GLU397     -0.2864
     81  CB       133.5050   32.1020  106.9710 C.3   397  GLU397      0.0415
     82  CG       134.2800   31.1670  106.0450 C.3   397  GLU397      0.1163
     83  CD       135.1450   31.8980  105.0400 C.2   397  GLU397      0.3649
     84  OE1      134.8970   33.1080  104.8140 O.co2 397  GLU397     -0.2457
     85  OE2      136.0750   31.2580  104.4810 O.co2 397  GLU397     -0.2457
     86  N        136.9670   25.9740  105.1950 N.3   454  ASN454     -0.1240
     87  CA       137.3850   26.6300  103.9610 C.3   454  ASN454      0.1653
     88  C        138.8740   26.9330  104.0520 C.2   454  ASN454      0.2266
     89  O        139.3740   27.2920  105.1190 O.2   454  ASN454     -0.2867
     90  CB       136.6160   27.9370  103.7560 C.3   454  ASN454      0.1155
     91  CG       135.1240   27.7220  103.5330 C.2   454  ASN454      0.2627
     92  OD1      134.6720   26.5920  103.3660 O.2   454  ASN454     -0.2716
     93  ND2      134.3550   28.8170  103.5200 N.am  454  ASN454     -0.0877
     94  N        142.1280   28.7730  101.4350 N.3   456  TYR456     -0.1241
     95  CA       142.5270   29.3620  100.1700 C.3   456  TYR456      0.1605
     96  C        144.0390   29.5010  100.0890 C.2   456  TYR456      0.2264
     97  O        144.5700   30.5360   99.6730 O.2   456  TYR456     -0.2867
     98  CB       141.8230   30.6950   99.9680 C.3   456  TYR456      0.0534
     99  CG       140.3850   30.4880   99.5440 C.ar  456  TYR456     -0.0201
    100  CD1      139.3510   30.5250  100.4730 C.ar  456  TYR456     -0.0009
    101  CD2      140.0710   30.2140   98.2170 C.ar  456  TYR456     -0.0009
    102  CE1      138.0330   30.3240  100.0810 C.ar  456  TYR456      0.0417
    103  CE2      138.7480   30.0080   97.8150 C.ar  456  TYR456      0.0417
    104  CZ       137.7460   30.0570   98.7510 C.ar  456  TYR456      0.1957
    105  OH       136.4370   29.8580   98.3560 O.3   456  TYR456     -0.2866
    106  N        144.2600   33.4270   98.3750 N.3   460  TYR460     -0.1241
    107  CA       144.3050   34.4820   99.3770 C.3   460  TYR460      0.1605
    108  C        145.5230   34.3800  100.2840 C.2   460  TYR460      0.2264
    109  O        145.9590   35.3940  100.8390 O.2   460  TYR460     -0.2867
    110  CB       143.0550   34.4370  100.2490 C.3   460  TYR460      0.0534
    111  CG       141.7580   34.8100   99.5510 C.ar  460  TYR460     -0.0201
    112  CD1      141.6690   35.9470   98.7510 C.ar  460  TYR460     -0.0009
    113  CD2      140.6160   34.0390   99.7190 C.ar  460  TYR460     -0.0009
    114  CE1      140.4600   36.3040   98.1260 C.ar  460  TYR460      0.0417
    115  CE2      139.4070   34.3750   99.0870 C.ar  460  TYR460      0.0417
    116  CZ       139.3430   35.5140   98.2950 C.ar  460  TYR460      0.1957
    117  OH       138.1590   35.8820   97.6670 O.3   460  TYR460     -0.2866
    118  N        135.5580   24.5850  100.8790 N.3   484  GLU484     -0.1245
    119  CA       135.8860   25.5480   99.8380 C.3   484  GLU484      0.1567
    120  C        137.3910   25.5330   99.6600 C.2   484  GLU484      0.2260
    121  O        138.1250   25.4050  100.6400 O.2   484  GLU484     -0.2867
    122  CB       135.4430   26.9740  100.1840 C.3   484  GLU484      0.0388
    123  CG       133.9470   27.2290  100.0560 C.3   484  GLU484      0.1160
    124  CD       133.5670   28.6860  100.3430 C.2   484  GLU484      0.3649
    125  OE1      132.5260   28.9020  101.0000 O.co2 484  GLU484     -0.2457
    126  OE2      134.3120   29.6020   99.9180 O.co2 484  GLU484     -0.2457
    127  N        135.4300   25.7560   95.5660 N.3   529  TRP529     -0.1241
    128  CA       134.6780   26.9820   95.3070 C.3   529  TRP529      0.1605
    129  C        135.2040   27.5240   93.9810 C.2   529  TRP529      0.2264
    130  O        136.2980   28.0790   93.9380 O.2   529  TRP529     -0.2867
    131  CB       134.9080   27.9520   96.4610 C.3   529  TRP529      0.0550
    132  CG       133.9600   29.0970   96.5230 C.ar  529  TRP529      0.0003
    133  CD1      134.1960   30.3980   96.1470 C.ar  529  TRP529      0.0946
    134  CD2      132.6040   29.0400   96.9740 C.ar  529  TRP529      0.0152
    135  NE1      133.0490   31.1550   96.3570 N.ar  529  TRP529     -0.2442
    136  CE2      132.0680   30.3400   96.8670 C.ar  529  TRP529      0.0810
    137  CE3      131.8010   28.0180   97.4850 C.ar  529  TRP529      0.0012
    138  CZ2      130.7620   30.6370   97.2410 C.ar  529  TRP529      0.0191
    139  CZ3      130.4960   28.3170   97.8500 C.ar  529  TRP529      0.0001
    140  CH2      129.9960   29.6170   97.7260 C.ar  529  TRP529      0.0015
    141  N        129.7070   33.4610   89.6540 N.3   534  PHE534     -0.1241
    142  CA       128.4340   33.9700   90.1580 C.3   534  PHE534      0.1605
    143  C        128.5670   35.4430   90.5400 C.2   534  PHE534      0.2264
    144  O        129.6690   35.9730   90.7010 O.2   534  PHE534     -0.2867
    145  CB       127.9320   33.1470   91.3540 C.3   534  PHE534      0.0534
    146  CG       128.8310   33.2200   92.5530 C.ar  534  PHE534     -0.0203
    147  CD1      129.9360   32.3910   92.6600 C.ar  534  PHE534     -0.0042
    148  CD2      128.5800   34.1280   93.5740 C.ar  534  PHE534     -0.0042
    149  CE1      130.7710   32.4450   93.7680 C.ar  534  PHE534     -0.0003
    150  CE2      129.4150   34.1920   94.6800 C.ar  534  PHE534     -0.0003
    151  CZ       130.5130   33.3480   94.7800 C.ar  534  PHE534     -0.0000
    152  N        131.2230   42.4390   95.6800 N.3   538  ARG538     -0.1231
    153  CA       132.5460   42.6640   96.2580 C.3   538  ARG538      0.1694
    154  C        133.6730   42.3260   95.2890 C.2   538  ARG538      0.2591
    155  O        134.8150   42.1170   95.7190 O.2   538  ARG538     -0.2718
    156  CB       132.7060   41.8580   97.5490 C.3   538  ARG538      0.0321
    157  CG       131.5920   42.0830   98.5510 C.3   538  ARG538      0.0489
    158  CD       131.6740   41.0980   99.7290 C.3   538  ARG538      0.2205
    159  NE       132.8630   41.2910  100.5710 N.pl3 538  ARG538     -0.0865
    160  CZ       133.9210   40.4790  100.6030 C.cat 538  ARG538      0.5346
    161  NH1      133.9800   39.4200   99.8140 N.pl3 538  ARG538      0.1354
    162  NH2      134.9360   40.7550  101.4190 N.pl3 538  ARG538      0.1354
    163  N        133.3930   42.3090   93.9880 N.am  539  ARG539     -0.1980
    164  CA       134.3540   41.8490   92.9830 C.3   539  ARG539      0.1597
    165  C        134.4320   42.9160   91.8940 C.2   539  ARG539      0.2287
    166  O        133.5560   43.0020   91.0300 O.2   539  ARG539     -0.2864
    167  CB       133.9420   40.4860   92.4370 C.3   539  ARG539      0.0334
    168  CG       133.7140   39.4550   93.5390 C.3   539  ARG539      0.0492
    169  CD       135.0520   39.0690   94.2590 C.3   539  ARG539      0.2205
    170  NE       134.7910   38.3730   95.5260 N.pl3 539  ARG539     -0.0865
    171  CZ       135.7260   37.8600   96.3220 C.cat 539  ARG539      0.5346
    172  NH1      137.0000   37.9660   96.0070 N.pl3 539  ARG539      0.1354
    173  NH2      135.3830   37.2490   97.4450 N.pl3 539  ARG539      0.1354
    174  N        132.2480   36.9480   91.0430 N.3   549  ASN549     -0.1240
    175  CA       133.2680   36.0790   91.6190 C.3   549  ASN549      0.1653
    176  C        133.7200   35.1180   90.5300 C.2   549  ASN549      0.2266
    177  O        132.8900   34.4500   89.9100 O.2   549  ASN549     -0.2867
    178  CB       132.6720   35.3470   92.8240 C.3   549  ASN549      0.1155
    179  CG       133.6780   34.4980   93.5790 C.2   549  ASN549      0.2627
    180  OD1      134.3600   33.6590   92.9970 O.2   549  ASN549     -0.2716
    181  ND2      133.7500   34.6940   94.8950 N.am  549  ASN549     -0.0877
    182  N        135.8090   32.4720   90.6270 N.3   551  LYS551     -0.1245
    183  CA       136.3920   31.2060   91.0570 C.3   551  LYS551      0.1561
    184  C        135.7010   29.9920   90.4450 C.2   551  LYS551      0.2260
    185  O        136.0400   28.8580   90.7970 O.2   551  LYS551     -0.2867
    186  CB       136.3750   31.1280   92.5870 C.3   551  LYS551      0.0271
    187  CG       137.3370   32.1590   93.2090 C.3   551  LYS551      0.0035
    188  CD       137.2400   32.1760   94.7180 C.3   551  LYS551      0.0206
    189  CE       138.1160   33.2760   95.2920 C.3   551  LYS551      0.1093
    190  NZ       137.4980   34.6370   95.1780 N.3   551  LYS551     -0.1314
@<TRIPOS>BOND
     1   141   142    1
     2   177   176    2
     3   142   143    1
     4   142   145    1
     5   184   185    2
     6   184   183    1
     7   176   175    1
     8   143   144    2
     9   182   183    1
    10   166   165    2
    11   174   175    1
    12   183   186    1
    13   145   146    1
    14   175   178    1
    15   165   164    1
    16    26    25    2
    17   167   164    1
    18   167   168    1
    19   146   147   ar
    20   146   148   ar
    21   186   187    1
    22   147   149   ar
    23   178   179    1
    24   164   163    1
    25   180   179    2
    26   187   188    1
    27    25    24    1
    28   168   169    1
    29   148   150   ar
    30   179   181   am
    31   149   151   ar
    32    23    24    1
    33   130   129    2
    34   129   128    1
    35   163   154   am
    36    27    24    1
    37    27    28    1
    38   169   170    1
    39   150   151   ar
    40   188   189    1
    41   190   189    1
    42    28    30   ar
    43    28    29   ar
    44   154   155    2
    45   154   153    1
    46   128   127    1
    47   128   131    1
    48   170   171    2
    49    30    32   ar
    50   152   153    1
    51   172   171    1
    52   133   135   ar
    53   133   132   ar
    54   153   156    1
    55    29    31   ar
    56   171   173    1
    57   135   136   ar
    58   131   132    1
    59   132   134   ar
    60    11    10    1
    61    11    12    2
    62    10    13    1
    63    10     9    1
    64    32    31   ar
    65   136   134   ar
    66   136   138   ar
    67    13    14    1
    68   134   137   ar
    69     4     3    2
    70   138   140   ar
    71     8     6   ar
    72     7     6   ar
    73   137   139   ar
    74   156   157    1
    75   117   116    1
    76   140   139   ar
    77    15    14   ar
    78    15    17   ar
    79   103   101   ar
    80   103   104   ar
    81     6     5    1
    82     9     3   am
    83     3     2    1
    84    14    16   ar
    85   114   116   ar
    86   114   112   ar
    87   101    99   ar
    88   116   115   ar
    89   105   104    1
    90   106   107    1
    91   157   158    1
    92   104   102   ar
    93   112   111   ar
    94    17    18   ar
    95     2     5    1
    96     2     1    1
    97   115   113   ar
    98    16    18   ar
    99    16    19   ar
   100   107   110    1
   101   107   108    1
   102    99    98    1
   103    99   100   ar
   104   111   113   ar
   105   111   110    1
   106   120   119    1
   107   120   121    2
   108    97    96    2
   109   158   159    1
   110   161   160    1
   111   119   122    1
   112   119   118    1
   113    18    20   ar
   114    33    34    1
   115   126   124   ar
   116    98    95    1
   117    19    21   ar
   118   123   122    1
   119   123   124    1
   120   102   100   ar
   121    96    95    1
   122    95    94    1
   123   108   109    2
   124   124   125   ar
   125    40    42   ar
   126    40    38   ar
   127   159   160    2
   128   160   162    1
   129    42    41   ar
   130    20    22   ar
   131    21    22   ar
   132    34    37    1
   133    34    35    1
   134    38    37    1
   135    38    39   ar
   136    41    39   ar
   137    54    53    1
   138    35    36    2
   139    68    66   ar
   140    68    67   ar
   141    53    51   ar
   142    53    52   ar
   143    51    49   ar
   144    66    64   ar
   145    92    91    2
   146    67    65   ar
   147    93    91   am
   148    91    90    1
   149    52    50   ar
   150    90    87    1
   151    87    88    1
   152    87    86    1
   153    88    89    2
   154    49    48   ar
   155    75    74    2
   156    64    63   ar
   157    64    62   ar
   158    85    83   ar
   159    50    48   ar
   160    76    74   am
   161    65    62   ar
   162    84    83   ar
   163    74    73    1
   164    48    47    1
   165    83    82    1
   166    63    61   ar
   167    62    60   ar
   168    73    70    1
   169    47    44    1
   170    82    81    1
   171    61    60   ar
   172    60    59    1
   173    81    78    1
   174    70    71    1
   175    70    69    1
   176    44    45    1
   177    44    43    1
   178    59    56    1
   179    71    72    2
   180    71    77   am
   181    45    46    2
   182    45    55   am
   183    77    78    1
   184    55    56    1
   185    78    79    1
   186    56    57    1
   187    80    79    2
   188    57    58    2
