@<TRIPOS>MOLECULE
tmp/6d6yA00.pdb
 193 186 0 0 0
SMALL
GASTEIGER

@<TRIPOS>ATOM
      1  N         44.0110   -6.9360   14.3050 N.3   288  PHE288     -0.1241
      2  CA        43.6760   -5.5650   14.6790 C.3   288  PHE288      0.1605
      3  C         42.1620   -5.3690   14.8190 C.2   288  PHE288      0.2264
      4  O         41.7120   -4.5710   15.6540 O.2   288  PHE288     -0.2867
      5  CB        44.3100   -4.6000   13.6550 C.3   288  PHE288      0.0534
      6  CG        43.7130   -3.2110   13.6360 C.ar  288  PHE288     -0.0203
      7  CD1       44.2660   -2.1900   14.4000 C.ar  288  PHE288     -0.0042
      8  CD2       42.6340   -2.9040   12.8120 C.ar  288  PHE288     -0.0042
      9  CE1       43.7280   -0.9090   14.3860 C.ar  288  PHE288     -0.0003
     10  CE2       42.0960   -1.6270   12.7940 C.ar  288  PHE288     -0.0003
     11  CZ        42.6450   -0.6280   13.5810 C.ar  288  PHE288     -0.0000
     12  N         38.2630   -4.6030   19.0660 N.3   292  PHE292     -0.1241
     13  CA        37.0490   -3.8390   19.3090 C.3   292  PHE292      0.1605
     14  C         35.7710   -4.6740   19.3630 C.2   292  PHE292      0.2264
     15  O         34.6880   -4.1000   19.5110 O.2   292  PHE292     -0.2867
     16  CB        36.9350   -2.7430   18.2410 C.3   292  PHE292      0.0534
     17  CG        38.0470   -1.7370   18.3110 C.ar  292  PHE292     -0.0203
     18  CD1       38.3910   -1.1580   19.5360 C.ar  292  PHE292     -0.0042
     19  CD2       38.7710   -1.3900   17.1760 C.ar  292  PHE292     -0.0042
     20  CE1       39.4220   -0.2330   19.6280 C.ar  292  PHE292     -0.0003
     21  CE2       39.8090   -0.4670   17.2580 C.ar  292  PHE292     -0.0003
     22  CZ        40.1350    0.1110   18.4920 C.ar  292  PHE292     -0.0000
     23  N         28.6380    5.5550    7.3300 N.3   330  GLU330     -0.1231
     24  CA        29.6100    5.3020    8.3890 C.3   330  GLU330      0.1699
     25  C         30.9650    5.8580    7.9700 C.2   330  GLU330      0.2592
     26  O         31.5430    5.4100    6.9760 O.2   330  GLU330     -0.2718
     27  CB        29.7330    3.8170    8.7240 C.3   330  GLU330      0.0402
     28  CG        30.6870    3.5930    9.8930 C.3   330  GLU330      0.1161
     29  CD        30.6200    2.2040   10.4860 C.2   330  GLU330      0.3649
     30  OE1       29.9030    1.3460    9.9240 O.co2 330  GLU330     -0.2457
     31  OE2       31.2890    1.9750   11.5210 O.co2 330  GLU330     -0.2457
     32  N         31.4620    6.8290    8.7300 N.am  331  ILE331     -0.1966
     33  CA        32.7950    7.3820    8.5140 C.3   331  ILE331      0.1727
     34  C         33.8280    6.4250    9.0910 C.2   331  ILE331      0.2617
     35  O         33.6610    5.9030   10.2020 O.2   331  ILE331     -0.2715
     36  CB        32.9170    8.7730    9.1670 C.3   331  ILE331      0.0290
     37  CG1       31.9110    9.7470    8.5750 C.3   331  ILE331      0.0022
     38  CG2       34.3470    9.3190    9.0530 C.3   331  ILE331      0.0023
     39  CD1       31.7700   11.0160    9.3960 C.3   331  ILE331      0.0001
     40  N         34.9110    6.2110    8.3500 N.am  332  GLY332     -0.1940
     41  CA        36.0130    5.3900    8.8560 C.3   332  GLY332      0.2014
     42  C         35.5870    4.0080    9.2960 C.2   332  GLY332      0.2639
     43  O         35.9830    3.5470   10.3710 O.2   332  GLY332     -0.2714
     44  N         34.7740    3.3290    8.4860 N.am  333  ALA333     -0.1963
     45  CA        34.2410    2.0450    8.9170 C.3   333  ALA333      0.1728
     46  C         35.3360    1.0030    9.1210 C.2   333  ALA333      0.2617
     47  O         35.1160    0.0230    9.8390 O.2   333  ALA333     -0.2715
     48  CB        33.2000    1.5570    7.9200 C.3   333  ALA333      0.0334
     49  N         36.5060    1.1940    8.5210 N.am  334  GLY334     -0.1940
     50  CA        37.6490    0.3630    8.8780 C.3   334  GLY334      0.2014
     51  C         37.4700   -1.0860    8.4690 C.2   334  GLY334      0.2639
     52  O         37.1740   -1.3940    7.3110 O.2   334  GLY334     -0.2714
     53  N         37.6790   -1.9970    9.4150 N.am  335  THR335     -0.1950
     54  CA        37.4430   -3.4160    9.1670 C.3   335  THR335      0.1897
     55  C         35.9880   -3.8130    9.3940 C.2   335  THR335      0.2313
     56  O         35.6770   -5.0060    9.3730 O.2   335  THR335     -0.2863
     57  CB        38.3590   -4.2740   10.0450 C.3   335  THR335      0.1794
     58  OG1       38.3480   -3.7750   11.3900 O.3   335  THR335     -0.2208
     59  CG2       39.7880   -4.2720    9.4940 C.3   335  THR335      0.0378
     60  N         33.9480   -3.9550   11.9530 N.3   337  GLY337     -0.1210
     61  CA        33.6150   -4.8050   13.0790 C.3   337  GLY337      0.1956
     62  C         32.2750   -4.4590   13.6880 C.2   337  GLY337      0.2611
     63  O         31.3850   -5.3120   13.7690 O.2   337  GLY337     -0.2717
     64  N         32.1210   -3.2080   14.1260 N.am  338  VAL338     -0.1979
     65  CA        30.8240   -2.7650   14.6260 C.3   338  VAL338      0.1595
     66  C         29.8220   -2.6670   13.4750 C.2   338  VAL338      0.2287
     67  O         28.6140   -2.8440   13.6730 O.2   338  VAL338     -0.2864
     68  CB        30.9670   -1.4230   15.3680 C.3   338  VAL338      0.0276
     69  CG1       31.4600   -0.3650   14.4310 C.3   338  VAL338      0.0022
     70  CG2       29.6530   -0.9950   15.9750 C.3   338  VAL338      0.0022
     71  N         35.4820    4.7970    4.1430 N.3   359  ASP359     -0.1225
     72  CA        36.7420    4.9520    4.8610 C.3   359  ASP359      0.1805
     73  C         37.6320    5.8760    4.0470 C.2   359  ASP359      0.2598
     74  O         37.4530    6.0140    2.8360 O.2   359  ASP359     -0.2718
     75  CB        37.4270    3.6010    5.0990 C.3   359  ASP359      0.1424
     76  CG        38.5150    3.6780    6.1430 C.2   359  ASP359      0.3668
     77  OD1       38.2620    3.2120    7.2830 O.co2 359  ASP359     -0.2456
     78  OD2       39.6310    4.1510    5.8180 O.co2 359  ASP359     -0.2456
     79  N         38.5920    6.5160    4.7190 N.am  360  ILE360     -0.1966
     80  CA        39.5290    7.3440    3.9680 C.3   360  ILE360      0.1727
     81  C         40.3660    6.4800    3.0280 C.2   360  ILE360      0.2616
     82  O         40.7030    6.9060    1.9130 O.2   360  ILE360     -0.2715
     83  CB        40.4030    8.1950    4.9190 C.3   360  ILE360      0.0290
     84  CG1       41.2650    9.1660    4.1090 C.3   360  ILE360      0.0022
     85  CG2       41.3130    7.3310    5.7530 C.3   360  ILE360      0.0023
     86  CD1       42.0740   10.1180    4.9620 C.3   360  ILE360      0.0001
     87  N         40.6600    5.2400    3.4230 N.am  361  SER361     -0.1950
     88  CA        41.5410    4.3640    2.6560 C.3   361  SER361      0.1924
     89  C         40.7440    3.3930    1.7980 C.2   361  SER361      0.2314
     90  O         39.8820    2.6610    2.2970 O.2   361  SER361     -0.2863
     91  CB        42.4860    3.5730    3.5630 C.3   361  SER361      0.2116
     92  OG        43.2820    2.6840    2.7840 O.3   361  SER361     -0.2180
     93  N         40.3480   -0.1940    3.0510 N.3   364  PHE364     -0.1241
     94  CA        39.3150   -0.6030    3.9950 C.3   364  PHE364      0.1605
     95  C         37.9240   -0.6540    3.3760 C.2   364  PHE364      0.2264
     96  O         37.0890   -1.4510    3.8210 O.2   364  PHE364     -0.2867
     97  CB        39.3290    0.3120    5.2220 C.3   364  PHE364      0.0534
     98  CG        40.5340    0.1040    6.0820 C.ar  364  PHE364     -0.0203
     99  CD1       41.5820    1.0130    6.0690 C.ar  364  PHE364     -0.0042
    100  CD2       40.6510   -1.0390    6.8570 C.ar  364  PHE364     -0.0042
    101  CE1       42.7090    0.8020    6.8390 C.ar  364  PHE364     -0.0003
    102  CE2       41.7750   -1.2530    7.6380 C.ar  364  PHE364     -0.0003
    103  CZ        42.8070   -0.3320    7.6250 C.ar  364  PHE364     -0.0000
    104  N         35.9170    8.1820    1.5890 N.3   383  PHE383     -0.1227
    105  CA        35.4700    9.4670    2.0880 C.3   383  PHE383      0.1736
    106  C         36.4390    9.9130    3.1690 C.2   383  PHE383      0.2595
    107  O         36.8010    9.1160    4.0400 O.2   383  PHE383     -0.2718
    108  CB        34.0420    9.3790    2.6360 C.3   383  PHE383      0.0547
    109  CG        33.5700   10.6510    3.2590 C.ar  383  PHE383     -0.0202
    110  CD1       33.5190   11.8100    2.5120 C.ar  383  PHE383     -0.0042
    111  CD2       33.1890   10.6980    4.5880 C.ar  383  PHE383     -0.0042
    112  CE1       33.0990   13.0000    3.0660 C.ar  383  PHE383     -0.0003
    113  CE2       32.7540   11.8950    5.1590 C.ar  383  PHE383     -0.0003
    114  CZ        32.7050   13.0440    4.3910 C.ar  383  PHE383     -0.0000
    115  N         36.8670   11.1700    3.1020 N.am  384  ASP384     -0.1960
    116  CA        37.6810   11.7790    4.1500 C.3   384  ASP384      0.1840
    117  C         36.8440   12.8940    4.7850 C.2   384  ASP384      0.2622
    118  O         36.4600   13.8570    4.1110 O.2   384  ASP384     -0.2715
    119  CB        38.9980   12.3110    3.5730 C.3   384  ASP384      0.1450
    120  CG        39.9110   12.9670    4.6080 C.2   384  ASP384      0.3671
    121  OD1       39.4900   13.2000    5.7610 O.co2 384  ASP384     -0.2456
    122  OD2       41.0870   13.2420    4.2480 O.co2 384  ASP384     -0.2456
    123  N         36.5570   12.7510    6.0780 N.am  385  ILE385     -0.1963
    124  CA        35.6830   13.6940    6.7750 C.3   385  ILE385      0.1727
    125  C         36.3100   15.0860    6.8160 C.2   385  ILE385      0.2616
    126  O         35.5970   16.0920    6.8980 O.2   385  ILE385     -0.2715
    127  CB        35.3720   13.1600    8.1950 C.3   385  ILE385      0.0290
    128  CG1       34.3620   14.0580    8.9300 C.3   385  ILE385      0.0022
    129  CG2       36.6780   13.0340    9.0060 C.3   385  ILE385      0.0023
    130  CD1       33.0390   14.2020    8.2500 C.3   385  ILE385      0.0001
    131  N         37.6460   15.1730    6.7660 N.am  386  GLU386     -0.1977
    132  CA        38.3230   16.4650    6.7680 C.3   386  GLU386      0.1602
    133  C         38.3240   17.1550    5.4090 C.2   386  GLU386      0.2287
    134  O         38.6760   18.3380    5.3340 O.2   386  GLU386     -0.2864
    135  CB        39.7660   16.3040    7.2310 C.3   386  GLU386      0.0415
    136  CG        39.9340   16.2730    8.7350 C.3   386  GLU386      0.1163
    137  CD        41.3730   16.0140    9.1440 C.2   386  GLU386      0.3649
    138  OE1       41.9310   14.9550    8.7680 O.co2 386  GLU386     -0.2457
    139  OE2       41.9480   16.8770    9.8360 O.co2 386  GLU386     -0.2457
    140  N         32.8830    5.6510   14.4860 N.3   405  ASN405     -0.1225
    141  CA        33.3740    4.8300   15.5910 C.3   405  ASN405      0.1785
    142  C         34.8760    5.0750   15.7900 C.2   405  ASN405      0.2597
    143  O         35.7130    4.5230   15.0690 O.2   405  ASN405     -0.2718
    144  CB        33.0620    3.3640   15.2940 C.3   405  ASN405      0.1169
    145  CG        33.6610    2.4110   16.2960 C.2   405  ASN405      0.2627
    146  OD1       34.2000    2.8070   17.3320 O.2   405  ASN405     -0.2716
    147  ND2       33.5640    1.1330   15.9920 N.am  405  ASN405     -0.0877
    148  N         35.2100    5.9040   16.7770 N.am  406  ASN406     -0.1960
    149  CA        36.5990    6.1570   17.1840 C.3   406  ASN406      0.1819
    150  C         37.4670    6.6110   16.0130 C.2   406  ASN406      0.2621
    151  O         38.5360    6.0560   15.7600 O.2   406  ASN406     -0.2715
    152  CB        37.2080    4.9220   17.8540 C.3   406  ASN406      0.1195
    153  CG        37.1200    4.9740   19.3660 C.2   406  ASN406      0.2630
    154  OD1       37.4130    6.0020   19.9840 O.2   406  ASN406     -0.2716
    155  ND2       36.7040    3.8620   19.9730 N.am  406  ASN406     -0.0877
    156  N         37.0110    7.6370   15.3040 N.am  407  VAL407     -0.1977
    157  CA        37.7380    8.1290   14.1330 C.3   407  VAL407      0.1596
    158  C         37.8080    9.6510   14.1660 C.2   407  VAL407      0.2287
    159  O         38.8200   10.2480   13.7860 O.2   407  VAL407     -0.2864
    160  CB        37.0890    7.6380   12.8230 C.3   407  VAL407      0.0276
    161  CG1       35.6090    7.8160   12.8770 C.3   407  VAL407      0.0022
    162  CG2       37.6290    8.4200   11.6310 C.3   407  VAL407      0.0022
    163  N         40.8810   11.6120   15.2320 N.3   410  ASN410     -0.1225
    164  CA        42.0810   11.5830   14.4020 C.3   410  ASN410      0.1785
    165  C         42.0340   12.6420   13.3090 C.2   410  ASN410      0.2597
    166  O         42.2310   12.3400   12.1270 O.2   410  ASN410     -0.2718
    167  CB        42.2760   10.2060   13.7690 C.3   410  ASN410      0.1169
    168  CG        42.4410    9.1240   14.8050 C.2   410  ASN410      0.2627
    169  OD1       43.4830    9.0320   15.4530 O.2   410  ASN410     -0.2716
    170  ND2       41.4060    8.2990   14.9780 N.am  410  ASN410     -0.0877
    171  N         41.7790   13.8850   13.6860 N.am  411  THR411     -0.1953
    172  CA        41.6830   14.9620   12.7110 C.3   411  THR411      0.1897
    173  C         42.3430   16.1940   13.3050 C.2   411  THR411      0.2313
    174  O         42.6530   16.2530   14.5000 O.2   411  THR411     -0.2863
    175  CB        40.2160   15.2690   12.2990 C.3   411  THR411      0.1794
    176  OG1       39.4200   15.5290   13.4540 O.3   411  THR411     -0.2208
    177  CG2       39.5680   14.1030   11.5440 C.3   411  THR411      0.0378
    178  N         50.3260    5.8240   15.0130 N.3   450  LEU450     -0.1245
    179  CA        49.7810    6.2330   13.7280 C.3   450  LEU450      0.1561
    180  C         49.6550    7.7500   13.6460 C.2   450  LEU450      0.2260
    181  O         49.4170    8.4230   14.6470 O.2   450  LEU450     -0.2867
    182  CB        48.4240    5.5700   13.4900 C.3   450  LEU450      0.0270
    183  CG        48.2650    4.1000   13.9370 C.3   450  LEU450      0.0019
    184  CD1       46.8300    3.6070   13.7820 C.3   450  LEU450      0.0001
    185  CD2       49.2230    3.1660   13.2190 C.3   450  LEU450      0.0001
    186  N         47.4300   14.6240   14.2460 N.3   455  LEU455     -0.1245
    187  CA        47.0470   15.7420   13.3900 C.3   455  LEU455      0.1561
    188  C         46.6090   16.9520   14.2010 C.2   455  LEU455      0.2260
    189  O         46.8120   18.0930   13.7670 O.2   455  LEU455     -0.2867
    190  CB        45.9330   15.3150   12.4340 C.3   455  LEU455      0.0270
    191  CG        46.3570   14.2350   11.4190 C.3   455  LEU455      0.0019
    192  CD1       45.1390   13.6110   10.7260 C.3   455  LEU455      0.0001
    193  CD2       47.3540   14.8030   10.3890 C.3   455  LEU455      0.0001
@<TRIPOS>BOND
     1   104   105    1
     2    89    90    2
     3    89    88    1
     4    82    81    2
     5   105   108    1
     6   105   106    1
     7   110   112   ar
     8   110   109   ar
     9   108   109    1
    10    88    87    1
    11    88    91    1
    12    92    91    1
    13    74    73    2
    14    81    87   am
    15    81    80    1
    16    93    94    1
    17   112   114   ar
    18   115   106   am
    19   115   116    1
    20   106   107    2
    21   109   111   ar
    22    95    96    2
    23    95    94    1
    24   119   116    1
    25   119   120    1
    26    80    79    1
    27    80    83    1
    28    94    97    1
    29    73    79   am
    30    73    72    1
    31    84    83    1
    32    84    86    1
    33   118   117    2
    34    71    72    1
    35   116   117    1
    36   122   120   ar
    37   114   113   ar
    38   111   113   ar
    39   120   121   ar
    40   117   123   am
    41    72    75    1
    42    83    85    1
    43    75    76    1
    44    97    98    1
    45   134   133    2
    46   133   132    1
    47    78    76   ar
    48    99    98   ar
    49    99   101   ar
    50   123   124    1
    51    98   100   ar
    52    76    77   ar
    53   131   132    1
    54   131   125   am
    55   132   135    1
    56   124   125    1
    57   124   127    1
    58   125   126    2
    59   101   103   ar
    60   100   102   ar
    61    26    25    2
    62   135   136    1
    63    52    51    2
    64    23    24    1
    65   103   102   ar
    66    48    45    1
    67    25    24    1
    68    25    32   am
    69   127   128    1
    70   127   129    1
    71   130   128    1
    72    40    41    1
    73    40    34   am
    74    24    27    1
    75    51    50    1
    76    51    53   am
    77    44    45    1
    78    44    42   am
    79    33    32    1
    80    33    34    1
    81    33    36    1
    82    49    50    1
    83    49    46   am
    84    37    36    1
    85    37    39    1
    86    27    28    1
    87   136   137    1
    88   138   137   ar
    89    41    42    1
    90    45    46    1
    91    38    36    1
    92    34    35    2
    93    46    47    2
    94   137   139   ar
    95    54    55    1
    96    54    53    1
    97    54    57    1
    98    42    43    2
    99    56    55    2
   100    59    57    1
   101    28    29    1
   102    30    29   ar
   103    57    58    1
   104   193   191    1
   105    29    31   ar
   106   192   191    1
   107   191   190    1
   108   177   175    1
   109   162   160    1
   110    60    61    1
   111   166   165    2
   112   175   172    1
   113   175   176    1
   114   190   187    1
   115   172   173    1
   116   172   171    1
   117    10     8   ar
   118    10    11   ar
   119     8     6   ar
   120   160   161    1
   121   160   157    1
   122    61    62    1
   123   185   183    1
   124   173   174    2
   125   165   171   am
   126   165   164    1
   127   187   188    1
   128   187   186    1
   129    66    67    2
   130    66    65    1
   131   182   179    1
   132   182   183    1
   133    11     9   ar
   134     6     5    1
   135     6     7   ar
   136   180   179    1
   137   180   181    2
   138     5     2    1
   139    62    63    2
   140    62    64   am
   141   179   178    1
   142   189   188    2
   143   167   164    1
   144   167   168    1
   145   184   183    1
   146   159   158    2
   147    64    65    1
   148   157   158    1
   149   157   156    1
   150     1     2    1
   151     9     7   ar
   152   164   163    1
   153    69    68    1
   154   140   141    1
   155    65    68    1
   156     2     3    1
   157   168   170   am
   158   168   169    2
   159     3     4    2
   160   143   142    2
   161   144   141    1
   162   144   145    1
   163   156   150   am
   164    68    70    1
   165   141   142    1
   166   151   150    2
   167   142   148   am
   168   147   145   am
   169   150   149    1
   170   145   146    2
   171   148   149    1
   172    19    21   ar
   173    19    17   ar
   174   149   152    1
   175    21    22   ar
   176   152   153    1
   177    16    17    1
   178    16    13    1
   179    17    18   ar
   180    22    20   ar
   181    12    13    1
   182    13    14    1
   183    14    15    2
   184   153   155   am
   185   153   154    2
   186    18    20   ar
