@<TRIPOS>MOLECULE
tmp/6d72C03.pdb
 86 79 0 0 0
SMALL
GASTEIGER

@<TRIPOS>ATOM
      1  N         14.5500  152.4270   13.0870 N.3    32  ILE32      -0.1245
      2  CA        13.4990  152.7460   12.1480 C.3    32  ILE32       0.1561
      3  C         12.7570  151.4370   11.7430 C.2    32  ILE32       0.2260
      4  O         13.3540  150.3560   11.7340 O.2    32  ILE32      -0.2867
      5  CB        14.1070  153.4700   10.9140 C.3    32  ILE32       0.0252
      6  CG1       13.0920  154.4310   10.2820 C.3    32  ILE32       0.0019
      7  CG2       14.6650  152.4800    9.8950 C.3    32  ILE32       0.0019
      8  CD1       13.7130  155.6150    9.5790 C.3    32  ILE32       0.0001
      9  N          5.9690  156.2420   -6.5080 N.3    88  GLU88      -0.1245
     10  CA         6.7870  156.9650   -5.5790 C.3    88  GLU88       0.1567
     11  C          8.1980  156.4290   -5.7560 C.2    88  GLU88       0.2260
     12  O          8.3920  155.2510   -5.9700 O.2    88  GLU88      -0.2867
     13  CB         6.3400  156.6930   -4.1500 C.3    88  GLU88       0.0388
     14  CG         7.0870  157.4670   -3.0910 C.3    88  GLU88       0.1160
     15  CD         6.7900  157.0310   -1.6630 C.2    88  GLU88       0.3649
     16  OE1        5.7350  156.4170   -1.3800 O.co2  88  GLU88      -0.2457
     17  OE2        7.6400  157.3480   -0.8120 O.co2  88  GLU88      -0.2457
     18  N         12.2500  156.4870   -3.9220 N.3    90  GLN90      -0.1245
     19  CA        13.2290  156.8930   -2.9110 C.3    90  GLN90       0.1566
     20  C         14.6700  156.5060   -3.3480 C.2    90  GLN90       0.2260
     21  O         14.8900  155.4390   -3.9090 O.2    90  GLN90      -0.2867
     22  CB        12.8700  156.1950   -1.6150 C.3    90  GLN90       0.0367
     23  CG        13.7550  156.6530   -0.4660 C.3    90  GLN90       0.0905
     24  CD        13.3720  156.0150    0.8800 C.2    90  GLN90       0.2608
     25  OE1       12.7830  154.9240    0.9380 O.2    90  GLN90      -0.2717
     26  NE2       13.7340  156.6850    1.9620 N.am   90  GLN90      -0.0878
     27  N          8.9090  161.7260   -1.2570 N.3   126  ILE126     -0.1231
     28  CA         8.6860  162.3320    0.0360 C.3   126  ILE126      0.1692
     29  C         10.0410  162.6560    0.6800 C.2   126  ILE126      0.2592
     30  O         10.9490  161.8410    0.6350 O.2   126  ILE126     -0.2718
     31  CB         7.8620  161.2820    0.8370 C.3   126  ILE126      0.0266
     32  CG1        6.3790  161.4430    0.5070 C.3   126  ILE126      0.0019
     33  CG2        8.0710  161.3560    2.3240 C.3   126  ILE126      0.0020
     34  CD1        5.5730  160.2260    0.8640 C.3   126  ILE126      0.0001
     35  N         10.1850  163.8400    1.2510 N.am  127  VAL127     -0.1966
     36  CA        11.4130  164.2070    1.9770 C.3   127  VAL127      0.1727
     37  C         11.0440  164.9800    3.2130 C.2   127  VAL127      0.2616
     38  O         10.0810  165.7170    3.2180 O.2   127  VAL127     -0.2715
     39  CB        12.3970  165.0690    1.1500 C.3   127  VAL127      0.0290
     40  CG1       13.0930  164.1890    0.1610 C.3   127  VAL127      0.0023
     41  CG2       11.6940  166.1700    0.4350 C.3   127  VAL127      0.0023
     42  N         11.8500  164.8250    4.2480 N.am  128  ASP128     -0.1971
     43  CA        11.6320  165.5440    5.4540 C.3   128  ASP128      0.1709
     44  C         11.6820  167.0310    5.1430 C.2   128  ASP128      0.2293
     45  O         12.5010  167.4840    4.3160 O.2   128  ASP128     -0.2864
     46  CB        12.6600  165.1700    6.5330 C.3   128  ASP128      0.1436
     47  CG        12.2240  165.6530    7.9160 C.2   128  ASP128      0.3671
     48  OD1       12.1920  166.8630    8.1310 O.co2 128  ASP128     -0.2456
     49  OD2       11.8650  164.8200    8.7840 O.co2 128  ASP128     -0.2456
     50  N          5.1190  160.8280   10.0500 N.3   153  PHE153     -0.1241
     51  CA         5.9980  159.7540   10.5170 C.3   153  PHE153      0.1605
     52  C          6.4450  160.0250   11.9350 C.2   153  PHE153      0.2264
     53  O          6.8450  161.1420   12.2620 O.2   153  PHE153     -0.2867
     54  CB         7.2140  159.6150    9.6160 C.3   153  PHE153      0.0534
     55  CG         6.9070  159.2080    8.1990 C.ar  153  PHE153     -0.0203
     56  CD1        6.8110  157.8710    7.8400 C.ar  153  PHE153     -0.0042
     57  CD2        6.7500  160.1780    7.2190 C.ar  153  PHE153     -0.0042
     58  CE1        6.5370  157.5020    6.5050 C.ar  153  PHE153     -0.0003
     59  CE2        6.4860  159.8170    5.8890 C.ar  153  PHE153     -0.0003
     60  CZ         6.3560  158.4800    5.5260 C.ar  153  PHE153     -0.0000
     61  N          9.3180  159.2160   14.1940 N.3   155  ILE155     -0.1245
     62  CA        10.7240  158.8670   14.0170 C.3   155  ILE155      0.1561
     63  C         11.5420  159.3740   15.1720 C.2   155  ILE155      0.2260
     64  O         11.5020  160.5520   15.5200 O.2   155  ILE155     -0.2867
     65  CB        11.2690  159.3920   12.6800 C.3   155  ILE155      0.0252
     66  CG1       10.5770  158.6310   11.5390 C.3   155  ILE155      0.0019
     67  CG2       12.7900  159.1930   12.5680 C.3   155  ILE155      0.0019
     68  CD1       10.8230  159.2510   10.1900 C.3   155  ILE155      0.0001
     69  N          7.2150  163.8030   12.4690 N.3   160  ARG160     -0.1245
     70  CA         7.9240  164.6250   11.4980 C.3   160  ARG160      0.1563
     71  C          6.9740  164.9360   10.3850 C.2   160  ARG160      0.2260
     72  O          6.1310  164.1070   10.0260 O.2   160  ARG160     -0.2867
     73  CB         9.0720  163.8670   10.8590 C.3   160  ARG160      0.0307
     74  CG        10.0310  163.1550   11.7850 C.3   160  ARG160      0.0489
     75  CD        11.0100  164.0100   12.4840 C.3   160  ARG160      0.2205
     76  NE        11.6620  164.9660   11.5630 N.pl3 160  ARG160     -0.0865
     77  CZ        12.6010  165.8210   11.9350 C.cat 160  ARG160      0.5346
     78  NH1       13.0850  166.6900   11.0570 N.pl3 160  ARG160      0.1354
     79  NH2       13.0700  165.7850   13.1710 N.pl3 160  ARG160      0.1354
     80  N          6.6090  165.9560    6.3460 N.3   162  VAL162     -0.1245
     81  CA         7.3280  165.7260    5.1010 C.3   162  VAL162      0.1561
     82  C          6.7150  166.5420    3.9750 C.2   162  VAL162      0.2260
     83  O          5.5810  166.9790    4.0670 O.2   162  VAL162     -0.2867
     84  CB         7.3830  164.2600    4.6820 C.3   162  VAL162      0.0252
     85  CG1        8.1810  163.4690    5.6860 C.3   162  VAL162      0.0019
     86  CG2        5.9920  163.6840    4.5160 C.3   162  VAL162      0.0019
@<TRIPOS>BOND
     1     9    10    1
     2    12    11    2
     3    11    10    1
     4    10    13    1
     5    13    14    1
     6    18    19    1
     7    21    20    2
     8    20    19    1
     9    14    15    1
    10    19    22    1
    11    15    16   ar
    12    15    17   ar
    13    22    23    1
    14    27    28    1
    15    23    24    1
    16    28    29    1
    17    28    31    1
    18    40    39    1
    19    41    39    1
    20    32    31    1
    21    32    34    1
    22    30    29    2
    23    29    35   am
    24    31    33    1
    25    24    25    2
    26    24    26   am
    27    39    36    1
    28    35    36    1
    29    36    37    1
    30    37    38    2
    31    37    42   am
    32    82    83    2
    33    82    81    1
    34    42    43    1
    35    45    44    2
    36    86    84    1
    37    84    81    1
    38    84    85    1
    39    81    80    1
    40    44    43    1
    41    43    46    1
    42    60    59   ar
    43    60    58   ar
    44    59    57   ar
    45    58    56   ar
    46    46    47    1
    47    57    55   ar
    48    56    55   ar
    49    47    48   ar
    50    47    49   ar
    51    55    54    1
    52     8     6    1
    53    54    51    1
    54     7     5    1
    55    72    71    2
    56    50    51    1
    57    68    66    1
    58     6     5    1
    59    71    70    1
    60    51    52    1
    61    73    70    1
    62    73    74    1
    63     5     2    1
    64    78    77    1
    65    70    69    1
    66    66    65    1
    67    76    77    2
    68    76    75    1
    69     4     3    2
    70     3     2    1
    71    74    75    1
    72    52    53    2
    73    77    79    1
    74     2     1    1
    75    67    65    1
    76    65    62    1
    77    62    61    1
    78    62    63    1
    79    63    64    2
