@<TRIPOS>MOLECULE
tmp/6d72C01.pdb
 114 109 0 0 0
SMALL
GASTEIGER

@<TRIPOS>ATOM
      1  N         21.6170  145.6050    1.1720 N.3    23  VAL23      -0.1245
      2  CA        20.3850  146.3090    1.5360 C.3    23  VAL23       0.1561
      3  C         20.1640  146.3240    3.0400 C.2    23  VAL23       0.2260
      4  O         19.8660  147.3520    3.6430 O.2    23  VAL23      -0.2867
      5  CB        19.1750  145.7260    0.8180 C.3    23  VAL23       0.0252
      6  CG1       17.8920  146.3200    1.3590 C.3    23  VAL23       0.0019
      7  CG2       19.2840  146.0140   -0.6880 C.3    23  VAL23       0.0019
      8  N         22.2440  148.7730    5.1250 N.3    26  LEU26      -0.1231
      9  CA        21.9850  150.2090    4.9720 C.3    26  LEU26       0.1693
     10  C         21.4090  150.8800    6.2380 C.2    26  LEU26       0.2592
     11  O         21.5800  152.1020    6.4080 O.2    26  LEU26      -0.2718
     12  CB        21.0280  150.4800    3.7990 C.3    26  LEU26       0.0284
     13  CG        21.6100  150.2290    2.4050 C.3    26  LEU26       0.0019
     14  CD1       20.5010  150.1660    1.3650 C.3    26  LEU26       0.0001
     15  CD2       22.5570  151.3440    2.0500 C.3    26  LEU26       0.0001
     16  N         20.7040  150.0830    7.0800 N.am   27  ASP27      -0.1974
     17  CA        20.1210  150.5740    8.3300 C.3    27  ASP27       0.1709
     18  C         19.6090  149.4360    9.2800 C.2    27  ASP27       0.2293
     19  O         18.3940  149.3080    9.5640 O.2    27  ASP27      -0.2864
     20  CB        18.9750  151.5780    8.0220 C.3    27  ASP27       0.1436
     21  CG        18.6370  152.4760    9.1980 C.2    27  ASP27       0.3671
     22  OD1       19.1880  152.3260   10.3110 O.co2  27  ASP27      -0.2456
     23  OD2       17.7920  153.3570    8.9480 O.co2  27  ASP27      -0.2456
     24  N         14.5500  152.4270   13.0870 N.3    32  ILE32      -0.1245
     25  CA        13.4990  152.7460   12.1480 C.3    32  ILE32       0.1561
     26  C         12.7570  151.4370   11.7430 C.2    32  ILE32       0.2260
     27  O         13.3540  150.3560   11.7340 O.2    32  ILE32      -0.2867
     28  CB        14.1070  153.4700   10.9140 C.3    32  ILE32       0.0252
     29  CG1       13.0920  154.4310   10.2820 C.3    32  ILE32       0.0019
     30  CG2       14.6650  152.4800    9.8950 C.3    32  ILE32       0.0019
     31  CD1       13.7130  155.6150    9.5790 C.3    32  ILE32       0.0001
     32  N         11.3280  149.2160    8.8780 N.3    34  ARG34      -0.1231
     33  CA        11.6570  148.9650    7.4770 C.3    34  ARG34       0.1694
     34  C         10.6000  148.0430    6.8520 C.2    34  ARG34       0.2592
     35  O         10.0370  147.1610    7.5220 O.2    34  ARG34      -0.2718
     36  CB        13.0550  148.3330    7.4000 C.3    34  ARG34       0.0321
     37  CG        13.9610  148.7790    8.5670 C.3    34  ARG34       0.0489
     38  CD        15.3130  148.0870    8.5700 C.3    34  ARG34       0.2205
     39  NE        16.0530  148.4130    7.3530 N.pl3  34  ARG34      -0.0865
     40  CZ        17.2100  147.8370    6.9990 C.cat  34  ARG34       0.5346
     41  NH1       17.7690  146.8810    7.7820 N.pl3  34  ARG34       0.1354
     42  NH2       17.8070  148.2090    5.8610 N.pl3  34  ARG34       0.1354
     43  N         10.3120  148.2810    5.5750 N.am   35  TYR35      -0.1962
     44  CA         9.2430  147.5800    4.8630 C.3    35  TYR35       0.1771
     45  C          9.7710  147.0210    3.5260 C.2    35  TYR35       0.2619
     46  O         10.6320  147.6410    2.8720 O.2    35  TYR35      -0.2715
     47  CB         8.0320  148.5320    4.6330 C.3    35  TYR35       0.0574
     48  CG         7.3640  148.9590    5.9280 C.ar   35  TYR35      -0.0198
     49  CD1        6.4240  148.1300    6.5220 C.ar   35  TYR35      -0.0009
     50  CD2        7.7100  150.1460    6.6040 C.ar   35  TYR35      -0.0009
     51  CE1        5.7720  148.4770    7.7270 C.ar   35  TYR35       0.0417
     52  CE2        7.1300  150.4650    7.8530 C.ar   35  TYR35       0.0417
     53  CZ         6.1380  149.6240    8.4040 C.ar   35  TYR35       0.1957
     54  OH         5.5180  149.8900    9.6090 O.3    35  TYR35      -0.2866
     55  N          9.2280  145.8780    3.1400 N.am   36  TRP36      -0.1974
     56  CA         9.4520  145.2660    1.8360 C.3    36  TRP36       0.1640
     57  C          8.0840  144.8720    1.3090 C.2    36  TRP36       0.2290
     58  O          7.3640  144.0800    1.9360 O.2    36  TRP36      -0.2864
     59  CB        10.3100  144.0130    1.9840 C.3    36  TRP36       0.0576
     60  CG        11.0020  143.5890    0.7600 C.ar   36  TRP36       0.0006
     61  CD1       10.6530  142.6000   -0.0840 C.ar   36  TRP36       0.0946
     62  CD2       12.2040  144.1600    0.2400 C.ar   36  TRP36       0.0152
     63  NE1       11.5640  142.5040   -1.1050 N.ar   36  TRP36      -0.2442
     64  CE2       12.5180  143.4600   -0.9420 C.ar   36  TRP36       0.0810
     65  CE3       13.0530  145.1690    0.6790 C.ar   36  TRP36       0.0012
     66  CZ2       13.6570  143.7230   -1.6890 C.ar   36  TRP36       0.0191
     67  CZ3       14.1650  145.4670   -0.0710 C.ar   36  TRP36       0.0001
     68  CH2       14.4800  144.7290   -1.2300 C.ar   36  TRP36       0.0015
     69  N          9.8680  144.2680    8.4050 N.3    41  TYR41      -0.1241
     70  CA        10.9330  143.3410    8.7530 C.3    41  TYR41       0.1605
     71  C         11.9690  144.0690    9.5970 C.2    41  TYR41       0.2264
     72  O         12.0970  145.2930    9.5270 O.2    41  TYR41      -0.2867
     73  CB        11.6030  142.7200    7.5110 C.3    41  TYR41       0.0534
     74  CG        12.4800  143.6940    6.7270 C.ar   41  TYR41      -0.0201
     75  CD1       11.9320  144.5130    5.7390 C.ar   41  TYR41      -0.0009
     76  CD2       13.8380  143.8450    7.0190 C.ar   41  TYR41      -0.0009
     77  CE1       12.7040  145.4170    5.0480 C.ar   41  TYR41       0.0417
     78  CE2       14.6350  144.7460    6.3070 C.ar   41  TYR41       0.0417
     79  CZ        14.0620  145.5180    5.3150 C.ar   41  TYR41       0.1957
     80  OH        14.8180  146.4300    4.6260 O.3    41  TYR41      -0.2866
     81  N         20.6490  152.3030   -3.0330 N.3    74  LEU74      -0.1245
     82  CA        19.4470  151.6410   -3.5080 C.3    74  LEU74       0.1561
     83  C         18.4560  152.6670   -4.0380 C.2    74  LEU74       0.2260
     84  O         18.2370  153.6990   -3.3980 O.2    74  LEU74      -0.2867
     85  CB        18.8260  150.8890   -2.3310 C.3    74  LEU74       0.0270
     86  CG        17.5200  150.1540   -2.5620 C.3    74  LEU74       0.0019
     87  CD1       17.7570  148.9700   -3.4450 C.3    74  LEU74       0.0001
     88  CD2       16.9880  149.7300   -1.2070 C.3    74  LEU74       0.0001
     89  N         14.4260  152.7030   -4.8690 N.3    76  GLU76      -0.1245
     90  CA        13.1550  151.9760   -4.7990 C.3    76  GLU76       0.1567
     91  C         12.0800  152.7520   -5.5270 C.2    76  GLU76       0.2260
     92  O         11.9220  153.9190   -5.2670 O.2    76  GLU76      -0.2867
     93  CB        12.6910  151.8080   -3.3690 C.3    76  GLU76       0.0388
     94  CG        13.6880  151.1760   -2.4230 C.3    76  GLU76       0.1160
     95  CD        13.1090  151.0240   -1.0330 C.2    76  GLU76       0.3649
     96  OE1       13.1420  149.8960   -0.4730 O.co2  76  GLU76      -0.2457
     97  OE2       12.5810  152.0390   -0.5270 O.co2  76  GLU76      -0.2457
     98  N         12.2500  156.4870   -3.9220 N.3    90  GLN90      -0.1245
     99  CA        13.2290  156.8930   -2.9110 C.3    90  GLN90       0.1566
    100  C         14.6700  156.5060   -3.3480 C.2    90  GLN90       0.2260
    101  O         14.8900  155.4390   -3.9090 O.2    90  GLN90      -0.2867
    102  CB        12.8700  156.1950   -1.6150 C.3    90  GLN90       0.0367
    103  CG        13.7550  156.6530   -0.4660 C.3    90  GLN90       0.0905
    104  CD        13.3720  156.0150    0.8800 C.2    90  GLN90       0.2608
    105  OE1       12.7830  154.9240    0.9380 O.2    90  GLN90      -0.2717
    106  NE2       13.7340  156.6850    1.9620 N.am   90  GLN90      -0.0878
    107  N         18.3740  155.9190   -1.5750 N.3    92  ILE92      -0.1245
    108  CA        19.0770  155.7100   -0.3000 C.3    92  ILE92       0.1561
    109  C         20.5580  155.4930   -0.6230 C.2    92  ILE92       0.2260
    110  O         20.9290  154.5860   -1.3720 O.2    92  ILE92      -0.2867
    111  CB        18.5340  154.4810    0.4170 C.3    92  ILE92       0.0252
    112  CG1       17.0470  154.6700    0.7010 C.3    92  ILE92       0.0019
    113  CG2       19.2980  154.1750    1.7050 C.3    92  ILE92       0.0019
    114  CD1       16.2400  153.4610    0.2780 C.3    92  ILE92       0.0001
@<TRIPOS>BOND
     1    91    92    2
     2    91    90    1
     3    89    90    1
     4    90    93    1
     5    83    82    1
     6    83    84    2
     7    98    99    1
     8   101   100    2
     9    82    81    1
    10    82    85    1
    11    87    86    1
    12    93    94    1
    13   100    99    1
    14    99   102    1
    15    86    85    1
    16    86    88    1
    17    94    95    1
    18    66    68   ar
    19    66    64   ar
    20   102   103    1
    21   107   108    1
    22   110   109    2
    23    68    67   ar
    24    63    64   ar
    25    63    61   ar
    26    95    97   ar
    27    95    96   ar
    28    64    62   ar
    29     7     5    1
    30   109   108    1
    31   103   104    1
    32   108   111    1
    33    61    60   ar
    34    67    65   ar
    35    62    65   ar
    36    62    60   ar
    37   114   112    1
    38   111   112    1
    39   111   113    1
    40    60    59    1
    41     5     6    1
    42     5     2    1
    43   104   105    2
    44   104   106   am
    45     1     2    1
    46    57    56    1
    47    57    58    2
    48    14    13    1
    49     2     3    1
    50    56    59    1
    51    56    55    1
    52    15    13    1
    53    13    12    1
    54    46    45    2
    55     3     4    2
    56    55    45   am
    57    45    44    1
    58    12     9    1
    59    80    79    1
    60    47    44    1
    61    47    48    1
    62    44    43    1
    63     9     8    1
    64     9    10    1
    65    77    79   ar
    66    77    75   ar
    67    79    78   ar
    68    43    34   am
    69    75    74   ar
    70    42    40    1
    71    48    49   ar
    72    48    50   ar
    73    10    11    2
    74    10    16   am
    75    78    76   ar
    76    49    51   ar
    77    50    52   ar
    78    74    76   ar
    79    74    73    1
    80    34    33    1
    81    34    35    2
    82    40    39    2
    83    40    41    1
    84    16    17    1
    85    39    38    1
    86    36    33    1
    87    36    37    1
    88    33    32    1
    89    73    70    1
    90    51    53   ar
    91    52    53   ar
    92    20    17    1
    93    20    21    1
    94    17    18    1
    95    53    54    1
    96    69    70    1
    97    37    38    1
    98    70    71    1
    99    23    21   ar
   100    21    22   ar
   101    18    19    2
   102    72    71    2
   103    31    29    1
   104    30    28    1
   105    29    28    1
   106    28    25    1
   107    27    26    2
   108    26    25    1
   109    25    24    1
