@<TRIPOS>MOLECULE
tmp/6d7fC00.pdb
 198 196 0 0 0
SMALL
GASTEIGER

@<TRIPOS>ATOM
      1  N        127.9180  -17.2340  -24.9260 N.3   165  ASP165     -0.1225
      2  CA       128.9630  -16.9720  -23.9420 C.3   165  ASP165      0.1805
      3  C        128.8960  -17.9220  -22.7420 C.2   165  ASP165      0.2597
      4  O        129.0770  -17.5020  -21.6010 O.2   165  ASP165     -0.2718
      5  CB       128.9130  -15.5190  -23.4740 C.3   165  ASP165      0.1424
      6  CG       130.1060  -15.1570  -22.6060 C.2   165  ASP165      0.3668
      7  OD1      131.2290  -15.5920  -22.9640 O.co2 165  ASP165     -0.2456
      8  OD2      129.9240  -14.4520  -21.5820 O.co2 165  ASP165     -0.2456
      9  N        128.6370  -19.2090  -22.9820 N.am  166  TRP166     -0.1976
     10  CA       128.6490  -20.2010  -21.9120 C.3   166  TRP166      0.1640
     11  C        129.0490  -21.5520  -22.4970 C.2   166  TRP166      0.2290
     12  O        128.9940  -21.7690  -23.7090 O.2   166  TRP166     -0.2864
     13  CB       127.2970  -20.2700  -21.1800 C.3   166  TRP166      0.0576
     14  CG       126.1500  -20.8860  -21.9380 C.ar  166  TRP166      0.0006
     15  CD1      125.8790  -22.2270  -22.0660 C.ar  166  TRP166      0.0946
     16  CD2      125.0850  -20.1990  -22.6290 C.ar  166  TRP166      0.0152
     17  NE1      124.7280  -22.4130  -22.7990 N.ar  166  TRP166     -0.2442
     18  CE2      124.2190  -21.1910  -23.1570 C.ar  166  TRP166      0.0810
     19  CE3      124.7940  -18.8500  -22.8710 C.ar  166  TRP166      0.0012
     20  CZ2      123.0750  -20.8740  -23.9160 C.ar  166  TRP166      0.0191
     21  CZ3      123.6540  -18.5320  -23.6210 C.ar  166  TRP166      0.0001
     22  CH2      122.8040  -19.5460  -24.1300 C.ar  166  TRP166      0.0015
     23  N        120.5670  -18.9400  -19.1210 N.3   333  HIS333     -0.1241
     24  CA       119.8740  -18.1320  -20.1330 C.3   333  HIS333      0.1621
     25  C        118.8200  -19.0370  -20.7620 C.2   333  HIS333      0.2264
     26  O        118.6240  -18.9980  -21.9870 O.2   333  HIS333     -0.2867
     27  CB       120.8110  -17.6660  -21.2620 C.3   333  HIS333      0.0745
     28  CG       121.6450  -16.4550  -20.9560 C.ar  333  HIS333      0.0817
     29  ND1      121.1000  -15.2190  -20.6860 N.ar  333  HIS333     -0.2268
     30  CD2      122.9880  -16.2760  -20.9720 C.ar  333  HIS333      0.1154
     31  CE1      122.0730  -14.3380  -20.5150 C.ar  333  HIS333      0.1986
     32  NE2      123.2280  -14.9550  -20.6830 N.ar  333  HIS333     -0.2212
     33  N        119.0000  -15.9230  -28.3300 N.3   358  TYR358     -0.1227
     34  CA       120.2410  -15.3100  -27.8550 C.3   358  TYR358      0.1736
     35  C        121.1680  -14.9980  -29.0320 C.2   358  TYR358      0.2595
     36  O        121.6250  -15.9190  -29.7180 O.2   358  TYR358     -0.2718
     37  CB       120.8950  -16.2720  -26.8720 C.3   358  TYR358      0.0548
     38  CG       122.1520  -15.8450  -26.1590 C.ar  358  TYR358     -0.0200
     39  CD1      122.1150  -15.5230  -24.8040 C.ar  358  TYR358     -0.0009
     40  CD2      123.3810  -15.8430  -26.7980 C.ar  358  TYR358     -0.0009
     41  CE1      123.2510  -15.1770  -24.1170 C.ar  358  TYR358      0.0417
     42  CE2      124.5290  -15.4850  -26.1100 C.ar  358  TYR358      0.0417
     43  CZ       124.4420  -15.1510  -24.7730 C.ar  358  TYR358      0.1957
     44  OH       125.5500  -14.8180  -24.0680 O.3   358  TYR358     -0.2866
     45  N        121.4650  -13.7080  -29.2480 N.am  359  TRP359     -0.1976
     46  CA       122.3140  -13.2420  -30.3480 C.3   359  TRP359      0.1640
     47  C        121.7340  -13.6110  -31.7130 C.2   359  TRP359      0.2290
     48  O        120.5590  -13.3460  -31.9710 O.2   359  TRP359     -0.2864
     49  CB       123.7460  -13.7670  -30.1880 C.3   359  TRP359      0.0576
     50  CG       124.4250  -13.2610  -28.9210 C.ar  359  TRP359      0.0006
     51  CD1      123.8840  -12.4130  -27.9980 C.ar  359  TRP359      0.0946
     52  CD2      125.7590  -13.5690  -28.4500 C.ar  359  TRP359      0.0152
     53  NE1      124.7860  -12.1850  -26.9690 N.ar  359  TRP359     -0.2442
     54  CE2      125.9420  -12.8750  -27.2270 C.ar  359  TRP359      0.0810
     55  CE3      126.8020  -14.3630  -28.9320 C.ar  359  TRP359      0.0012
     56  CZ2      127.1280  -12.9480  -26.4940 C.ar  359  TRP359      0.0191
     57  CZ3      127.9780  -14.4400  -28.1900 C.ar  359  TRP359      0.0001
     58  CH2      128.1270  -13.7370  -26.9820 C.ar  359  TRP359      0.0015
     59  N        116.9220  -12.7610  -25.0780 N.3   396  ASN396     -0.1225
     60  CA       118.1270  -12.1030  -24.5970 C.3   396  ASN396      0.1785
     61  C        118.5890  -11.0700  -25.6290 C.2   396  ASN396      0.2597
     62  O        117.8500  -10.7300  -26.5570 O.2   396  ASN396     -0.2718
     63  CB       119.2050  -13.1510  -24.3380 C.3   396  ASN396      0.1169
     64  CG       118.8430  -14.0960  -23.2150 C.2   396  ASN396      0.2627
     65  OD1      118.9500  -13.7390  -22.0390 O.2   396  ASN396     -0.2716
     66  ND2      118.4170  -15.3110  -23.5660 N.am  396  ASN396     -0.0877
     67  N        119.8300  -10.5970  -25.5130 N.am  397  GLU397     -0.1979
     68  CA       120.3460   -9.6100  -26.4570 C.3   397  GLU397      0.1602
     69  C        120.2550  -10.1400  -27.8830 C.2   397  GLU397      0.2287
     70  O        120.7050  -11.2510  -28.1690 O.2   397  GLU397     -0.2864
     71  CB       121.7970   -9.2670  -26.1230 C.3   397  GLU397      0.0415
     72  CG       122.2580   -7.9450  -26.6930 C.3   397  GLU397      0.1163
     73  CD       121.7980   -6.7590  -25.8500 C.2   397  GLU397      0.3649
     74  OE1      120.9140   -6.9580  -25.0010 O.co2 397  GLU397     -0.2457
     75  OE2      122.3220   -5.6370  -26.0280 O.co2 397  GLU397     -0.2457
     76  N        119.1100   -0.4960  -27.0840 N.3   430  LYS430     -0.1245
     77  CA       119.4750    0.7470  -26.4190 C.3   430  LYS430      0.1561
     78  C        119.9000    1.8050  -27.4380 C.2   430  LYS430      0.2260
     79  O        120.4030    1.4890  -28.5220 O.2   430  LYS430     -0.2867
     80  CB       120.5970    0.5030  -25.4080 C.3   430  LYS430      0.0271
     81  CG       120.3010   -0.6250  -24.4220 C.3   430  LYS430      0.0035
     82  CD       121.5430   -0.9750  -23.6090 C.3   430  LYS430      0.0206
     83  CE       122.5880   -1.6950  -24.4520 C.3   430  LYS430      0.1093
     84  NZ       122.0470   -2.9870  -24.9680 N.3   430  LYS430     -0.1314
     85  N        120.1500   -4.9440  -20.9310 N.3   454  ASN454     -0.1225
     86  CA       121.4660   -5.1950  -20.3580 C.3   454  ASN454      0.1785
     87  C        122.3850   -4.0290  -20.6590 C.2   454  ASN454      0.2597
     88  O        122.3480   -3.4690  -21.7520 O.2   454  ASN454     -0.2718
     89  CB       122.0850   -6.4720  -20.9230 C.3   454  ASN454      0.1169
     90  CG       121.1260   -7.6320  -20.8920 C.2   454  ASN454      0.2627
     91  OD1      120.6250   -7.9990  -19.8290 O.2   454  ASN454     -0.2716
     92  ND2      120.8280   -8.1920  -22.0640 N.am  454  ASN454     -0.0877
     93  N        123.2230   -3.6770  -19.7000 N.am  455  GLU455     -0.1965
     94  CA       124.2110   -2.6480  -19.9560 C.3   455  GLU455      0.1733
     95  C        125.4210   -2.9300  -19.0880 C.2   455  GLU455      0.2616
     96  O        125.2980   -3.4450  -17.9710 O.2   455  GLU455     -0.2715
     97  CB       123.6520   -1.2420  -19.6940 C.3   455  GLU455      0.0429
     98  CG       123.0770   -1.0330  -18.3000 C.3   455  GLU455      0.1163
     99  CD       124.1370   -0.6990  -17.2590 C.2   455  GLU455      0.3649
    100  OE1      123.8410   -0.8140  -16.0470 O.co2 455  GLU455     -0.2457
    101  OE2      125.2670   -0.3180  -17.6400 O.co2 455  GLU455     -0.2457
    102  N        126.5910   -2.5940  -19.6210 N.am  456  TYR456     -0.1974
    103  CA       127.8600   -2.8750  -18.9780 C.3   456  TYR456      0.1639
    104  C        128.7170   -1.6310  -18.9500 C.2   456  TYR456      0.2290
    105  O        129.9440   -1.6860  -19.0970 O.2   456  TYR456     -0.2864
    106  CB       128.5880   -4.0260  -19.6670 C.3   456  TYR456      0.0560
    107  CG       127.9560   -5.3830  -19.4250 C.ar  456  TYR456     -0.0198
    108  CD1      126.8730   -5.8020  -20.1840 C.ar  456  TYR456     -0.0009
    109  CD2      128.4370   -6.2410  -18.4250 C.ar  456  TYR456     -0.0009
    110  CE1      126.2940   -7.0360  -19.9780 C.ar  456  TYR456      0.0417
    111  CE2      127.8600   -7.4850  -18.2040 C.ar  456  TYR456      0.0417
    112  CZ       126.7910   -7.8800  -18.9880 C.ar  456  TYR456      0.1957
    113  OH       126.1930   -9.1120  -18.8010 O.3   456  TYR456     -0.2866
    114  N        132.5110   -3.0580  -20.3060 N.3   460  TYR460     -0.1241
    115  CA       132.7000   -3.0840  -21.7570 C.3   460  TYR460      0.1605
    116  C        132.5750   -1.6990  -22.3790 C.2   460  TYR460      0.2264
    117  O        133.2260   -1.4210  -23.3910 O.2   460  TYR460     -0.2867
    118  CB       131.6780   -4.0020  -22.4360 C.3   460  TYR460      0.0534
    119  CG       131.8380   -5.4740  -22.1610 C.ar  460  TYR460     -0.0201
    120  CD1      133.0230   -6.1420  -22.4650 C.ar  460  TYR460     -0.0009
    121  CD2      130.7820   -6.2120  -21.6200 C.ar  460  TYR460     -0.0009
    122  CE1      133.1590   -7.5150  -22.2140 C.ar  460  TYR460      0.0417
    123  CE2      130.9050   -7.5740  -21.3690 C.ar  460  TYR460      0.0417
    124  CZ       132.0940   -8.2180  -21.6710 C.ar  460  TYR460      0.1957
    125  OH       132.2040   -9.5530  -21.4200 O.3   460  TYR460     -0.2866
    126  N        121.2670   -7.2430  -16.6400 N.3   484  GLU484     -0.1245
    127  CA       122.6750   -7.5790  -16.5330 C.3   484  GLU484      0.1567
    128  C        123.4700   -6.2990  -16.3630 C.2   484  GLU484      0.2260
    129  O        123.1470   -5.2640  -16.9550 O.2   484  GLU484     -0.2867
    130  CB       123.2170   -8.3170  -17.7620 C.3   484  GLU484      0.0388
    131  CG       122.5730   -9.6380  -18.0480 C.3   484  GLU484      0.1160
    132  CD       123.0200  -10.2180  -19.3910 C.2   484  GLU484      0.3649
    133  OE1      122.3140  -11.1320  -19.8900 O.co2 484  GLU484     -0.2457
    134  OE2      124.0560   -9.7510  -19.9390 O.co2 484  GLU484     -0.2457
    135  N        125.1750   -9.3490  -13.4110 N.3   529  TRP529     -0.1241
    136  CA       125.8440  -10.4790  -14.0410 C.3   529  TRP529      0.1605
    137  C        127.2230  -10.5730  -13.4140 C.2   529  TRP529      0.2264
    138  O        128.1110   -9.8020  -13.7730 O.2   529  TRP529     -0.2867
    139  CB       125.9320  -10.2360  -15.5410 C.3   529  TRP529      0.0550
    140  CG       126.2700  -11.4070  -16.3830 C.ar  529  TRP529      0.0003
    141  CD1      127.4570  -11.6530  -17.0110 C.ar  529  TRP529      0.0946
    142  CD2      125.3900  -12.4720  -16.7470 C.ar  529  TRP529      0.0152
    143  NE1      127.3700  -12.8160  -17.7480 N.ar  529  TRP529     -0.2442
    144  CE2      126.1120  -13.3400  -17.6010 C.ar  529  TRP529      0.0810
    145  CE3      124.0620  -12.7770  -16.4390 C.ar  529  TRP529      0.0012
    146  CZ2      125.5520  -14.5050  -18.1310 C.ar  529  TRP529      0.0191
    147  CZ3      123.5070  -13.9280  -16.9670 C.ar  529  TRP529      0.0001
    148  CH2      124.2550  -14.7820  -17.8080 C.ar  529  TRP529      0.0015
    149  N        131.5530  -18.6120  -14.1300 N.3   534  PHE534     -0.1241
    150  CA       131.0270  -19.7450  -14.8740 C.3   534  PHE534      0.1605
    151  C        131.9030  -20.0400  -16.0870 C.2   534  PHE534      0.2264
    152  O        132.7650  -19.2470  -16.4780 O.2   534  PHE534     -0.2867
    153  CB       129.5570  -19.5150  -15.2650 C.3   534  PHE534      0.0534
    154  CG       129.3160  -18.3350  -16.1900 C.ar  534  PHE534     -0.0203
    155  CD1      129.1320  -17.0420  -15.6840 C.ar  534  PHE534     -0.0042
    156  CD2      129.2030  -18.5330  -17.5700 C.ar  534  PHE534     -0.0042
    157  CE1      128.8760  -15.9680  -16.5420 C.ar  534  PHE534     -0.0003
    158  CE2      128.9530  -17.4770  -18.4210 C.ar  534  PHE534     -0.0003
    159  CZ       128.7830  -16.1900  -17.9080 C.ar  534  PHE534     -0.0000
    160  N        134.8030  -18.3740  -24.4320 N.3   538  ARG538     -0.1231
    161  CA       135.1700  -17.0780  -24.9910 C.3   538  ARG538      0.1694
    162  C        135.9810  -16.2400  -24.0110 C.2   538  ARG538      0.2591
    163  O        135.9860  -15.0100  -24.1140 O.2   538  ARG538     -0.2718
    164  CB       133.9250  -16.3040  -25.4360 C.3   538  ARG538      0.0321
    165  CG       132.9750  -17.1040  -26.3050 C.3   538  ARG538      0.0489
    166  CD       131.7150  -16.3130  -26.5910 C.3   538  ARG538      0.2205
    167  NE       132.0240  -15.0800  -27.3070 N.pl3 538  ARG538     -0.0865
    168  CZ       131.7840  -13.8580  -26.8520 C.cat 538  ARG538      0.5346
    169  NH1      131.2070  -13.6870  -25.6710 N.pl3 538  ARG538      0.1354
    170  NH2      132.1170  -12.8090  -27.5980 N.pl3 538  ARG538      0.1354
    171  N        136.6690  -16.8790  -23.0650 N.am  539  ARG539     -0.1980
    172  CA       137.4050  -16.1830  -22.0090 C.3   539  ARG539      0.1597
    173  C        138.7910  -16.8170  -21.9020 C.2   539  ARG539      0.2287
    174  O        138.9510  -17.8530  -21.2510 O.2   539  ARG539     -0.2864
    175  CB       136.6390  -16.2680  -20.6930 C.3   539  ARG539      0.0334
    176  CG       135.1610  -15.9260  -20.8220 C.3   539  ARG539      0.0492
    177  CD       134.9640  -14.4170  -21.0030 C.3   539  ARG539      0.2205
    178  NE       133.6360  -14.0560  -21.5060 N.pl3 539  ARG539     -0.0865
    179  CZ       133.2880  -12.8250  -21.8730 C.cat 539  ARG539      0.5346
    180  NH1      134.1640  -11.8300  -21.7850 N.pl3 539  ARG539      0.1354
    181  NH2      132.0690  -12.5880  -22.3310 N.pl3 539  ARG539      0.1354
    182  N        134.2070  -17.1270  -17.3890 N.3   549  ASN549     -0.1240
    183  CA       133.7420  -15.7520  -17.2910 C.3   549  ASN549      0.1653
    184  C        133.8160  -15.3310  -15.8240 C.2   549  ASN549      0.2266
    185  O        133.2370  -16.0000  -14.9620 O.2   549  ASN549     -0.2867
    186  CB       132.3250  -15.6470  -17.8410 C.3   549  ASN549      0.1155
    187  CG       131.7670  -14.2580  -17.7460 C.2   549  ASN549      0.2627
    188  OD1      131.8540  -13.6060  -16.6940 O.2   549  ASN549     -0.2716
    189  ND2      131.1700  -13.7860  -18.8480 N.am  549  ASN549     -0.0877
    190  N        132.7820  -12.6080  -14.1060 N.3   551  LYS551     -0.1245
    191  CA       131.9050  -11.5510  -13.6070 C.3   551  LYS551      0.1561
    192  C        131.1100  -11.9670  -12.3690 C.2   551  LYS551      0.2260
    193  O        130.2000  -11.2380  -11.9350 O.2   551  LYS551     -0.2867
    194  CB       130.9620  -11.0850  -14.7220 C.3   551  LYS551      0.0271
    195  CG       131.7130  -10.4340  -15.9220 C.3   551  LYS551      0.0035
    196  CD       130.7480   -9.9950  -17.0100 C.3   551  LYS551      0.0206
    197  CE       131.4950   -9.4880  -18.2260 C.3   551  LYS551      0.1093
    198  NZ       132.2990  -10.5700  -18.9030 N.3   551  LYS551     -0.1314
@<TRIPOS>BOND
     1    48    47    2
     2    47    46    1
     3    46    49    1
     4    46    45    1
     5    49    50    1
     6    36    35    2
     7    45    35   am
     8    35    34    1
     9    55    52   ar
    10    55    57   ar
    11    50    52   ar
    12    50    51   ar
    13    79    78    2
    14    52    54   ar
    15    33    34    1
    16    57    58   ar
    17    70    69    2
    18    51    53   ar
    19    69    68    1
    20    34    37    1
    21   170   168    1
    22    78    77    1
    23   167   168    2
    24   167   166    1
    25    54    53   ar
    26    54    56   ar
    27    76    77    1
    28    58    56   ar
    29    37    38    1
    30   168   169    1
    31    40    38   ar
    32    40    42   ar
    33    72    71    1
    34    72    73    1
    35   166   165    1
    36    62    61    2
    37    68    71    1
    38    68    67    1
    39    77    80    1
    40   165   164    1
    41    38    39   ar
    42    42    43   ar
    43    75    73   ar
    44    73    74   ar
    45    61    67   am
    46    61    60    1
    47   164   161    1
    48    80    81    1
    49    59    60    1
    50   161   160    1
    51   161   162    1
    52    84    83    1
    53     1     2    1
    54    39    41   ar
    55    43    41   ar
    56    43    44    1
    57    60    63    1
    58    83    82    1
    59    81    82    1
    60    63    64    1
    61    22    20   ar
    62    22    21   ar
    63   163   162    2
    64   162   171   am
    65     2     5    1
    66     2     3    1
    67    20    18   ar
    68    12    11    2
    69    21    19   ar
    70    66    64   am
    71     5     6    1
    72   117   116    2
    73    64    65    2
    74    18    17   ar
    75    18    16   ar
    76   171   172    1
    77     9     3   am
    78     9    10    1
    79     7     6   ar
    80    19    16   ar
    81    17    15   ar
    82     3     4    2
    83    16    14   ar
    84     6     8   ar
    85    11    10    1
    86   120   122   ar
    87   120   119   ar
    88   118   119    1
    89   118   115    1
    90   116   115    1
    91   181   179    1
    92   122   124   ar
    93   119   121   ar
    94    15    14   ar
    95    92    90   am
    96   172   173    1
    97   172   175    1
    98    26    25    2
    99    14    13    1
   100    10    13    1
   101   173   174    2
   102   179   180    1
   103   179   178    2
   104   115   114    1
   105    88    87    2
   106   124   125    1
   107   124   123   ar
   108   121   123   ar
   109   178   177    1
   110    27    28    1
   111    27    24    1
   112   177   176    1
   113    30    28   ar
   114    30    32   ar
   115    28    29   ar
   116    85    86    1
   117    89    90    1
   118    89    86    1
   119    90    91    2
   120   176   175    1
   121    25    24    1
   122    29    31   ar
   123    32    31   ar
   124    87    86    1
   125    87    93   am
   126   108   110   ar
   127   108   107   ar
   128    24    23    1
   129   110   112   ar
   130    94    93    1
   131    94    97    1
   132    94    95    1
   133   134   132   ar
   134   133   132   ar
   135    97    98    1
   136   106   107    1
   137   106   103    1
   138   102    95   am
   139   102   103    1
   140   107   109   ar
   141   132   131    1
   142   105   104    2
   143    95    96    2
   144   112   113    1
   145   112   111   ar
   146   103   104    1
   147   198   197    1
   148   189   187   am
   149   109   111   ar
   150   158   159   ar
   151   158   156   ar
   152    98    99    1
   153   197   196    1
   154   146   148   ar
   155   146   144   ar
   156   131   130    1
   157   159   157   ar
   158   186   187    1
   159   186   183    1
   160   148   147   ar
   161   130   127    1
   162   143   144   ar
   163   143   141   ar
   164   187   188    2
   165   101    99   ar
   166   144   142   ar
   167   156   154   ar
   168   182   183    1
   169   183   184    1
   170    99   100   ar
   171   141   140   ar
   172   196   195    1
   173   147   145   ar
   174   129   128    2
   175   142   145   ar
   176   142   140   ar
   177   126   127    1
   178   157   155   ar
   179   127   128    1
   180   152   151    2
   181   140   139    1
   182   154   155   ar
   183   154   153    1
   184   151   150    1
   185   195   194    1
   186   184   185    2
   187   139   136    1
   188   153   150    1
   189   150   149    1
   190   194   191    1
   191   190   191    1
   192   136   137    1
   193   136   135    1
   194   138   137    2
   195   191   192    1
   196   192   193    2
