@<TRIPOS>MOLECULE
tmp/6d7pA00.pdb
 150 140 0 0 0
SMALL
GASTEIGER

@<TRIPOS>ATOM
      1  N         42.2940   91.0720  138.6050 N.3     6  ARG6       -0.1245
      2  CA        41.7730   91.0440  139.9670 C.3     6  ARG6        0.1563
      3  C         41.8750   89.6490  140.5710 C.2     6  ARG6        0.2260
      4  O         42.0990   89.5020  141.7780 O.2     6  ARG6       -0.2867
      5  CB        40.3290   91.5400  139.9830 C.3     6  ARG6        0.0307
      6  CG        39.4050   90.7780  139.0480 C.3     6  ARG6        0.0489
      7  CD        38.0270   91.4110  139.0020 C.3     6  ARG6        0.2205
      8  NE        37.5820   91.8310  140.3270 N.pl3   6  ARG6       -0.0865
      9  CZ        36.3220   92.1220  140.6340 C.cat   6  ARG6        0.5346
     10  NH1       35.3730   92.0290  139.7120 N.pl3   6  ARG6        0.1354
     11  NH2       36.0110   92.4980  141.8660 N.pl3   6  ARG6        0.1354
     12  N         44.0810   89.0380  144.1080 N.3    10  ASN10      -0.1240
     13  CA        43.5810   88.3780  145.3090 C.3    10  ASN10       0.1653
     14  C         44.4860   87.2190  145.6990 C.2    10  ASN10       0.2266
     15  O         44.7970   87.0310  146.8810 O.2    10  ASN10      -0.2867
     16  CB        42.1460   87.9020  145.0960 C.3    10  ASN10       0.1155
     17  CG        41.1920   89.0450  144.8120 C.2    10  ASN10       0.2627
     18  OD1       41.4900   90.2050  145.0980 O.2    10  ASN10      -0.2716
     19  ND2       40.0330   88.7230  144.2510 N.am   10  ASN10      -0.0877
     20  N         47.5920   88.8960  147.0160 N.3    13  GLN13      -0.1245
     21  CA        47.4340   89.4250  148.3660 C.3    13  GLN13       0.1566
     22  C         47.7300   88.3520  149.4070 C.2    13  GLN13       0.2260
     23  O         48.4590   88.5950  150.3750 O.2    13  GLN13      -0.2867
     24  CB        46.0220   89.9830  148.5500 C.3    13  GLN13       0.0367
     25  CG        45.8050   90.7210  149.8630 C.3    13  GLN13       0.0905
     26  CD        44.3810   91.2280  150.0170 C.2    13  GLN13       0.2608
     27  OE1       43.4500   90.6910  149.4150 O.2    13  GLN13      -0.2717
     28  NE2       44.2060   92.2710  150.8230 N.am   13  GLN13      -0.0878
     29  N         47.6680   95.1590  148.3070 N.3    51  MET51      -0.1245
     30  CA        46.6200   96.0980  147.9330 C.3    51  MET51       0.1570
     31  C         46.7760   97.4450  148.6160 C.2    51  MET51       0.2261
     32  O         45.7870   98.1770  148.7630 O.2    51  MET51      -0.2867
     33  CB        45.2450   95.5190  148.2670 C.3    51  MET51       0.0387
     34  CG        45.0730   94.0400  147.9330 C.3    51  MET51       0.0595
     35  SD        44.1690   93.7200  146.4000 S.3    51  MET51      -0.1393
     36  CE        45.3460   94.2530  145.1560 C.3    51  MET51       0.0692
     37  N         47.0210   97.7800  151.6490 N.3    53  GLU53      -0.1245
     38  CA        46.3110   97.7000  152.9170 C.3    53  GLU53       0.1567
     39  C         47.2710   97.8080  154.0970 C.2    53  GLU53       0.2260
     40  O         48.4440   97.4350  154.0100 O.2    53  GLU53      -0.2867
     41  CB        45.5300   96.3820  153.0160 C.3    53  GLU53       0.0388
     42  CG        46.3780   95.1290  153.1990 C.3    53  GLU53       0.1160
     43  CD        46.9600   94.6090  151.9000 C.2    53  GLU53       0.3649
     44  OE1       47.0810   93.3750  151.7500 O.co2  53  GLU53      -0.2457
     45  OE2       47.2880   95.4280  151.0200 O.co2  53  GLU53      -0.2457
     46  N         43.7560   97.0420  158.2330 N.3    57  HIS57      -0.1226
     47  CA        42.8050   96.7170  157.1750 C.3    57  HIS57       0.1752
     48  C         42.5500   95.2150  157.1100 C.2    57  HIS57       0.2595
     49  O         41.4050   94.7770  156.9380 O.2    57  HIS57      -0.2718
     50  CB        43.3180   97.2360  155.8310 C.3    57  HIS57       0.0759
     51  CG        43.1340   98.7090  155.6350 C.ar   57  HIS57       0.0818
     52  ND1       44.1370   99.5280  155.1630 N.ar   57  HIS57      -0.2268
     53  CD2       42.0560   99.5070  155.8230 C.ar   57  HIS57       0.1154
     54  CE1       43.6900  100.7690  155.0830 C.ar   57  HIS57       0.1986
     55  NE2       42.4290  100.7830  155.4760 N.ar   57  HIS57      -0.2212
     56  N         43.6050   94.4110  157.2650 N.am   58  ILE58      -0.1980
     57  CA        43.4410   92.9600  157.2870 C.3    58  ILE58       0.1595
     58  C         42.6960   92.5260  158.5420 C.2    58  ILE58       0.2287
     59  O         41.8150   91.6620  158.4900 O.2    58  ILE58      -0.2864
     60  CB        44.8110   92.2680  157.1660 C.3    58  ILE58       0.0276
     61  CG1       45.4290   92.5790  155.8040 C.3    58  ILE58       0.0022
     62  CG2       44.6770   90.7640  157.3770 C.3    58  ILE58       0.0022
     63  CD1       44.4980   92.3260  154.6430 C.3    58  ILE58       0.0001
     64  N         38.9920   93.1040  157.8230 N.3    61  LEU61      -0.1245
     65  CA        38.4120   92.1940  156.8450 C.3    61  LEU61       0.1561
     66  C         37.8910   90.9410  157.5340 C.2    61  LEU61       0.2260
     67  O         36.6800   90.7050  157.5730 O.2    61  LEU61      -0.2867
     68  CB        39.4550   91.8220  155.7930 C.3    61  LEU61       0.0270
     69  CG        39.0400   91.4200  154.3770 C.3    61  LEU61       0.0019
     70  CD1       40.1080   90.5090  153.7930 C.3    61  LEU61       0.0001
     71  CD2       37.6660   90.7650  154.2790 C.3    61  LEU61       0.0001
     72  N         43.4850  102.6810  151.9030 N.3    83  MET83      -0.1245
     73  CA        44.1890  101.7740  151.0060 C.3    83  MET83       0.1570
     74  C         44.5870  102.5040  149.7270 C.2    83  MET83       0.2261
     75  O         43.8220  103.3100  149.1890 O.2    83  MET83      -0.2867
     76  CB        43.3140  100.5610  150.6840 C.3    83  MET83       0.0387
     77  CG        42.6380   99.9710  151.9120 C.3    83  MET83       0.0595
     78  SD        42.6310   98.1680  151.9420 S.3    83  MET83      -0.1393
     79  CE        41.2600   97.8040  150.8600 C.3    83  MET83       0.0692
     80  N         41.0760   99.6410  145.2560 N.3    88  TYR88      -0.1241
     81  CA        40.5410   99.9540  146.5750 C.3    88  TYR88       0.1605
     82  C         41.0170  101.3130  147.0660 C.2    88  TYR88       0.2264
     83  O         41.1300  101.5390  148.2750 O.2    88  TYR88      -0.2867
     84  CB        40.9160   98.8670  147.5770 C.3    88  TYR88       0.0534
     85  CG        40.4640   97.4990  147.1520 C.ar   88  TYR88      -0.0201
     86  CD1       39.1970   97.0380  147.4700 C.ar   88  TYR88      -0.0009
     87  CD2       41.3020   96.6680  146.4210 C.ar   88  TYR88      -0.0009
     88  CE1       38.7760   95.7820  147.0800 C.ar   88  TYR88       0.0417
     89  CE2       40.8910   95.4120  146.0230 C.ar   88  TYR88       0.0417
     90  CZ        39.6250   94.9750  146.3500 C.ar   88  TYR88       0.1957
     91  OH        39.2200   93.7190  145.9550 O.3    88  TYR88      -0.2866
     92  N         39.3650  103.4640  150.3650 N.3    91  GLN91      -0.1245
     93  CA        38.7140  102.6980  151.4190 C.3    91  GLN91       0.1566
     94  C         39.5270  102.7600  152.7040 C.2    91  GLN91       0.2260
     95  O         40.7550  102.6360  152.6910 O.2    91  GLN91      -0.2867
     96  CB        38.5210  101.2430  150.9960 C.3    91  GLN91       0.0367
     97  CG        37.3870  100.5570  151.7400 C.3    91  GLN91       0.0905
     98  CD        37.4900   99.0480  151.7200 C.2    91  GLN91       0.2608
     99  OE1       38.4940   98.4790  152.1440 O.2    91  GLN91      -0.2717
    100  NE2       36.4440   98.3900  151.2370 N.am   91  GLN91      -0.0878
    101  N         35.4430   98.9180  156.1360 N.3    96  ILE96      -0.1245
    102  CA        35.4480   97.4700  156.3090 C.3    96  ILE96       0.1561
    103  C         34.6690   97.0760  157.5590 C.2    96  ILE96       0.2260
    104  O         33.9450   96.0720  157.5650 O.2    96  ILE96      -0.2867
    105  CB        36.8930   96.9440  156.3580 C.3    96  ILE96       0.0252
    106  CG1       37.7100   97.4990  155.1910 C.3    96  ILE96       0.0019
    107  CG2       36.9060   95.4270  156.3340 C.3    96  ILE96       0.0019
    108  CD1       39.1670   97.0760  155.2170 C.3    96  ILE96       0.0001
    109  N         36.5840   98.8970  142.2740 N.3   124  VAL124     -0.1231
    110  CA        35.7060   97.8140  142.6980 C.3   124  VAL124      0.1692
    111  C         34.4440   98.3190  143.3790 C.2   124  VAL124      0.2592
    112  O         33.5110   97.5360  143.5940 O.2   124  VAL124     -0.2718
    113  CB        36.4650   96.8480  143.6310 C.3   124  VAL124      0.0266
    114  CG1       36.4270   97.3550  145.0590 C.3   124  VAL124      0.0020
    115  CG2       35.8980   95.4410  143.5270 C.3   124  VAL124      0.0020
    116  N         34.3870   99.6050  143.7210 N.am  125  PHE125     -0.1976
    117  CA        33.1950  100.2140  144.2930 C.3   125  PHE125      0.1639
    118  C         32.3760  100.9710  143.2550 C.2   125  PHE125      0.2290
    119  O         31.4480  101.6970  143.6230 O.2   125  PHE125     -0.2864
    120  CB        33.5760  101.1490  145.4430 C.3   125  PHE125      0.0560
    121  CG        34.5150  100.5320  146.4370 C.ar  125  PHE125     -0.0200
    122  CD1       34.0560   99.6140  147.3670 C.ar  125  PHE125     -0.0042
    123  CD2       35.8580  100.8670  146.4400 C.ar  125  PHE125     -0.0042
    124  CE1       34.9220   99.0420  148.2820 C.ar  125  PHE125     -0.0003
    125  CE2       36.7280  100.2990  147.3520 C.ar  125  PHE125     -0.0003
    126  CZ        36.2600   99.3860  148.2720 C.ar  125  PHE125     -0.0000
    127  N         30.9340   94.4310  138.7810 N.3   131  ASN131     -0.1225
    128  CA        30.8680   94.4930  140.2360 C.3   131  ASN131      0.1785
    129  C         29.5780   93.8460  140.7220 C.2   131  ASN131      0.2597
    130  O         28.5020   94.0930  140.1700 O.2   131  ASN131     -0.2718
    131  CB        30.9460   95.9400  140.7190 C.3   131  ASN131      0.1169
    132  CG        32.3060   96.5660  140.4790 C.2   131  ASN131      0.2627
    133  OD1       33.2990   95.8680  140.2680 O.2   131  ASN131     -0.2716
    134  ND2       32.3610   97.8920  140.5230 N.am  131  ASN131     -0.0877
    135  N         29.6840   93.0160  141.7620 N.am  132  LEU132     -0.1966
    136  CA        28.5100   92.3020  142.2510 C.3   132  LEU132      0.1728
    137  C         27.5870   93.2100  143.0530 C.2   132  LEU132      0.2616
    138  O         26.3620   93.0700  142.9810 O.2   132  LEU132     -0.2715
    139  CB        28.9330   91.0990  143.0910 C.3   132  LEU132      0.0311
    140  CG        29.5230   89.9200  142.3180 C.3   132  LEU132      0.0022
    141  CD1       29.7250   88.7270  143.2360 C.3   132  LEU132      0.0001
    142  CD2       28.6300   89.5540  141.1430 C.3   132  LEU132      0.0001
    143  N         28.1490   94.1410  143.8200 N.am  133  ILE133     -0.1977
    144  CA        27.3610   95.0250  144.6670 C.3   133  ILE133      0.1596
    145  C         27.7860   96.4650  144.4370 C.2   133  ILE133      0.2287
    146  O         28.9280   96.7490  144.0610 O.2   133  ILE133     -0.2864
    147  CB        27.4970   94.6630  146.1610 C.3   133  ILE133      0.0276
    148  CG1       28.9730   94.5720  146.5500 C.3   133  ILE133      0.0022
    149  CG2       26.7680   93.3680  146.4620 C.3   133  ILE133      0.0022
    150  CD1       29.2060   94.2990  148.0180 C.3   133  ILE133      0.0001
@<TRIPOS>BOND
     1     1     2    1
     2   127   128    1
     3     7     6    1
     4     7     8    1
     5     6     5    1
     6    10     9    1
     7     2     5    1
     8     2     3    1
     9   130   129    2
    10   128   131    1
    11   128   129    1
    12   133   132    2
    13     8     9    2
    14   132   134   am
    15   132   131    1
    16     3     4    2
    17     9    11    1
    18   129   135   am
    19   142   140    1
    20   135   136    1
    21   136   137    1
    22   136   139    1
    23   109   110    1
    24   140   139    1
    25   140   141    1
    26   110   111    1
    27   110   113    1
    28   138   137    2
    29   137   143   am
    30   118   119    2
    31   118   117    1
    32   111   112    2
    33   111   116   am
    34   115   113    1
    35   113   114    1
    36   116   117    1
    37   143   144    1
    38   146   145    2
    39    12    13    1
    40    19    17   am
    41   117   120    1
    42   145   144    1
    43   144   147    1
    44    17    16    1
    45    17    18    2
    46    16    13    1
    47    36    35    1
    48    80    81    1
    49    13    14    1
    50   120   121    1
    51    14    15    2
    52    91    90    1
    53    89    90   ar
    54    89    87   ar
    55   147   149    1
    56   147   148    1
    57    90    88   ar
    58    35    34    1
    59    87    85   ar
    60   121   123   ar
    61   121   122   ar
    62   123   125   ar
    63   148   150    1
    64    81    82    1
    65    81    84    1
    66    20    21    1
    67    82    83    2
    68    88    86   ar
    69    85    86   ar
    70    85    84    1
    71   125   126   ar
    72   122   124   ar
    73    34    33    1
    74    30    33    1
    75    30    29    1
    76    30    31    1
    77   126   124   ar
    78    21    24    1
    79    21    22    1
    80    24    25    1
    81    31    32    2
    82    75    74    2
    83    22    23    2
    84    27    26    2
    85    74    73    1
    86    25    26    1
    87    26    28   am
    88    92    93    1
    89    76    73    1
    90    76    77    1
    91    79    78    1
    92    96    93    1
    93    96    97    1
    94    73    72    1
    95    45    43   ar
    96   100    98   am
    97    93    94    1
    98    37    38    1
    99    98    97    1
   100    98    99    2
   101    44    43   ar
   102    43    42    1
   103    77    78    1
   104    95    94    2
   105    38    41    1
   106    38    39    1
   107    41    42    1
   108    70    69    1
   109    40    39    2
   110    71    69    1
   111    69    68    1
   112    63    61    1
   113    54    52   ar
   114    54    55   ar
   115    52    51   ar
   116   106   108    1
   117   106   105    1
   118    55    53   ar
   119    51    53   ar
   120    51    50    1
   121    68    65    1
   122    61    60    1
   123    50    47    1
   124   101   102    1
   125   102   105    1
   126   102   103    1
   127   107   105    1
   128    65    66    1
   129    65    64    1
   130    49    48    2
   131    48    47    1
   132    48    56   am
   133    60    57    1
   134    60    62    1
   135    47    46    1
   136    56    57    1
   137    57    58    1
   138    66    67    2
   139   103   104    2
   140    59    58    2
