@<TRIPOS>MOLECULE
tmp/6d83F00.pdb
 158 153 0 0 0
SMALL
GASTEIGER

@<TRIPOS>ATOM
      1  N         83.1600  131.3030  148.3050 N.3     9  LEU9       -0.1231
      2  CA        83.3180  130.5030  149.5060 C.3     9  LEU9        0.1693
      3  C         83.3020  129.0160  149.1580 C.2     9  LEU9        0.2592
      4  O         83.0130  128.6150  148.0280 O.2     9  LEU9       -0.2718
      5  CB        82.2080  130.8290  150.5040 C.3     9  LEU9        0.0284
      6  CG        82.0260  132.2960  150.9140 C.3     9  LEU9        0.0019
      7  CD1       80.8440  132.4270  151.8690 C.3     9  LEU9        0.0001
      8  CD2       83.2710  132.9150  151.5220 C.3     9  LEU9        0.0001
      9  N         83.6260  128.1870  150.1450 N.am   10  ASP10      -0.1960
     10  CA        83.4890  126.7540  149.9510 C.3    10  ASP10       0.1840
     11  C         82.0240  126.3430  150.0620 C.2    10  ASP10       0.2622
     12  O         81.1830  127.0950  150.5690 O.2    10  ASP10      -0.2715
     13  CB        84.3510  125.9790  150.9520 C.3    10  ASP10       0.1450
     14  CG        84.0590  126.3400  152.4030 C.2    10  ASP10       0.3671
     15  OD1       83.2800  127.2810  152.6670 O.co2  10  ASP10      -0.2456
     16  OD2       84.6170  125.6670  153.2930 O.co2  10  ASP10      -0.2456
     17  N         81.7400  125.1270  149.5740 N.am   11  ALA11      -0.1963
     18  CA        80.3950  124.5330  149.5170 C.3    11  ALA11       0.1728
     19  C         79.4060  125.4370  148.7850 C.2    11  ALA11       0.2616
     20  O         78.2400  125.5490  149.1650 O.2    11  ALA11      -0.2715
     21  CB        79.8760  124.1670  150.9110 C.3    11  ALA11       0.0334
     22  N         79.8810  126.0970  147.7330 N.am   12  ALA12      -0.1963
     23  CA        79.0570  126.9980  146.9460 C.3    12  ALA12       0.1728
     24  C         78.7410  126.4460  145.5660 C.2    12  ALA12       0.2617
     25  O         77.9190  127.0270  144.8540 O.2    12  ALA12      -0.2715
     26  CB        79.7390  128.3620  146.8200 C.3    12  ALA12       0.0334
     27  N         79.3580  125.3340  145.1790 N.am   13  GLY13      -0.1940
     28  CA        79.0740  124.7440  143.8890 C.3    13  GLY13       0.2014
     29  C         79.6930  125.4530  142.7110 C.2    13  GLY13       0.2639
     30  O         79.1620  125.3570  141.6020 O.2    13  GLY13      -0.2714
     31  N         80.7960  126.1760  142.9200 N.am   14  LYS14      -0.1963
     32  CA        81.5160  126.7760  141.8020 C.3    14  LYS14       0.1728
     33  C         82.1310  125.7150  140.8920 C.2    14  LYS14       0.2617
     34  O         82.1230  125.8660  139.6660 O.2    14  LYS14      -0.2715
     35  CB        82.5780  127.7420  142.3380 C.3    14  LYS14       0.0311
     36  CG        83.5570  127.1010  143.3050 C.3    14  LYS14       0.0038
     37  CD        84.6730  127.9910  143.7290 C.3    14  LYS14       0.0206
     38  CE        84.2760  128.9720  144.7910 C.3    14  LYS14       0.1093
     39  NZ        85.5280  129.5900  145.2810 N.3    14  LYS14      -0.1314
     40  N         82.6260  124.6210  141.4660 N.am   15  THR15      -0.1937
     41  CA        83.1540  123.5310  140.6640 C.3    15  THR15       0.2028
     42  C         82.0390  122.7630  139.9800 C.2    15  THR15       0.2642
     43  O         82.2320  122.2320  138.8780 O.2    15  THR15      -0.2714
     44  CB        83.9800  122.6290  141.5610 C.3    15  THR15       0.1808
     45  OG1       83.1930  122.2730  142.7000 O.3    15  THR15      -0.2208
     46  CG2       85.1660  123.3760  142.0500 C.3    15  THR15       0.0379
     47  N         80.8690  122.7110  140.6210 N.am   16  THR16      -0.1950
     48  CA        79.6740  122.1790  139.9800 C.3    16  THR16       0.1897
     49  C         79.2960  123.0100  138.7590 C.2    16  THR16       0.2313
     50  O         78.9900  122.4520  137.6990 O.2    16  THR16      -0.2863
     51  CB        78.5250  122.1330  140.9910 C.3    16  THR16       0.1794
     52  OG1       78.9060  121.3240  142.1100 O.3    16  THR16      -0.2208
     53  CG2       77.2770  121.5440  140.3710 C.3    16  THR16       0.0378
     54  N         76.7020  116.6040  136.0220 N.3    26  ILE26      -0.1245
     55  CA        77.0560  116.8300  137.4240 C.3    26  ILE26       0.1561
     56  C         77.8880  115.6280  137.8590 C.2    26  ILE26       0.2260
     57  O         77.3650  114.5780  138.2290 O.2    26  ILE26      -0.2867
     58  CB        75.8240  117.0310  138.3010 C.3    26  ILE26       0.0252
     59  CG1       74.9770  118.1810  137.7640 C.3    26  ILE26       0.0019
     60  CG2       76.2380  117.3150  139.7380 C.3    26  ILE26       0.0019
     61  CD1       75.7260  119.4760  137.7090 C.3    26  ILE26       0.0001
     62  N         82.2540  115.5470  142.9350 N.3    29  THR29      -0.1203
     63  CA        83.2040  116.6280  143.1490 C.3    29  THR29       0.1994
     64  C         83.7390  116.5880  144.5720 C.2    29  THR29       0.2618
     65  O         82.9670  116.6570  145.5330 O.2    29  THR29      -0.2717
     66  CB        82.5570  117.9830  142.8760 C.3    29  THR29       0.1784
     67  OG1       82.0320  117.9980  141.5450 O.3    29  THR29      -0.2211
     68  CG2       83.5860  119.0690  143.0030 C.3    29  THR29       0.0376
     69  N         85.0590  116.4900  144.6940 N.am   30  ILE30      -0.1966
     70  CA        85.7720  116.5160  145.9690 C.3    30  ILE30       0.1712
     71  C         85.9950  117.9850  146.3270 C.2    30  ILE30       0.2458
     72  O         85.7900  118.8480  145.4610 O.2    30  ILE30      -0.2730
     73  CB        87.0690  115.6860  145.8630 C.3    30  ILE30       0.0289
     74  CG1       87.9870  116.1800  144.7370 C.3    30  ILE30       0.0022
     75  CG2       86.7330  114.2230  145.6330 C.3    30  ILE30       0.0023
     76  CD1       89.1140  117.1190  145.1730 C.3    30  ILE30       0.0001
     77  N         86.3740  118.3450  147.5760 N.am   31  PRO31      -0.2716
     78  CA        86.7110  119.7520  147.8390 C.3    31  PRO31       0.1536
     79  C         87.9860  120.1840  147.1340 C.2    31  PRO31       0.2599
     80  O         89.0700  119.6560  147.3970 O.2    31  PRO31      -0.2715
     81  CB        86.8630  119.8030  149.3650 C.3    31  PRO31       0.0310
     82  CG        87.1450  118.4070  149.7720 C.3    31  PRO31       0.0237
     83  CD        86.3500  117.5620  148.8270 C.3    31  PRO31       0.0939
     84  N         87.8540  121.1450  146.2250 N.am   32  THR32      -0.1951
     85  CA        88.9700  121.5720  145.3900 C.3    32  THR32       0.1897
     86  C         89.8860  122.5120  146.1630 C.2    32  THR32       0.2313
     87  O         89.5690  123.6900  146.3550 O.2    32  THR32      -0.2863
     88  CB        88.4380  122.2210  144.1200 C.3    32  THR32       0.1794
     89  OG1       87.4450  123.2000  144.4590 O.3    32  THR32      -0.2208
     90  CG2       87.8420  121.1580  143.2170 C.3    32  THR32       0.0378
     91  N         89.8970  127.5850  143.9850 N.3    53  GLY53      -0.1210
     92  CA        89.4290  126.9040  145.1770 C.3    53  GLY53       0.1956
     93  C         88.9450  127.8600  146.2510 C.2    53  GLY53       0.2612
     94  O         89.4280  128.9830  146.3980 O.2    53  GLY53      -0.2717
     95  N         87.9630  127.3940  147.0180 N.am   54  GLY54      -0.1942
     96  CA        87.2500  128.2670  147.9280 C.3    54  GLY54       0.2014
     97  C         87.3780  127.9290  149.3970 C.2    54  GLY54       0.2638
     98  O         86.5610  128.3730  150.2100 O.2    54  GLY54      -0.2714
     99  N         88.4000  127.1570  149.7580 N.am   55  LEU55      -0.1977
    100  CA        88.6690  126.8850  151.1610 C.3    55  LEU55       0.1596
    101  C         89.2300  128.1290  151.8470 C.2    55  LEU55       0.2287
    102  O         89.4940  129.1550  151.2180 O.2    55  LEU55      -0.2864
    103  CB        89.6410  125.7160  151.3130 C.3    55  LEU55       0.0297
    104  CG        89.1080  124.2830  151.3990 C.3    55  LEU55       0.0022
    105  CD1       88.2300  124.1370  152.6280 C.3    55  LEU55       0.0001
    106  CD2       88.3690  123.8310  150.1450 C.3    55  LEU55       0.0001
    107  N         73.9670  130.2700  143.4330 N.3   110  ASN110     -0.1225
    108  CA        73.7340  128.8720  143.1210 C.3   110  ASN110      0.1785
    109  C         72.7750  128.2600  144.1460 C.2   110  ASN110      0.2597
    110  O         72.3900  128.9030  145.1280 O.2   110  ASN110     -0.2718
    111  CB        75.0790  128.1340  143.0960 C.3   110  ASN110      0.1169
    112  CG        75.0180  126.8000  142.3790 C.2   110  ASN110      0.2627
    113  OD1       73.9560  126.3820  141.9170 O.2   110  ASN110     -0.2716
    114  ND2       76.1530  126.1190  142.2950 N.am  110  ASN110     -0.0877
    115  N         72.3680  127.0140  143.8750 N.am  111  LYS111     -0.1966
    116  CA        71.6700  126.1270  144.8090 C.3   111  LYS111      0.1728
    117  C         70.3040  126.6900  145.2040 C.2   111  LYS111      0.2616
    118  O         70.0250  126.9710  146.3710 O.2   111  LYS111     -0.2715
    119  CB        72.5350  125.8520  146.0460 C.3   111  LYS111      0.0311
    120  CG        73.8620  125.2160  145.7170 C.3   111  LYS111      0.0038
    121  CD        74.7360  125.0360  146.9360 C.3   111  LYS111      0.0206
    122  CE        74.2100  123.9340  147.8320 C.3   111  LYS111      0.1093
    123  NZ        75.1370  123.6740  148.9640 N.3   111  LYS111     -0.1314
    124  N         69.4520  126.8620  144.1980 N.am  112  GLN112     -0.1963
    125  CA        68.0860  127.3280  144.4200 C.3   112  GLN112      0.1733
    126  C         67.1610  126.1180  144.4240 C.2   112  GLN112      0.2616
    127  O         66.5250  125.7890  143.4220 O.2   112  GLN112     -0.2715
    128  CB        67.6830  128.3440  143.3620 C.3   112  GLN112      0.0408
    129  CG        68.4820  129.6240  143.4080 C.3   112  GLN112      0.0908
    130  CD        68.2140  130.4160  144.6660 C.2   112  GLN112      0.2608
    131  OE1       67.0790  130.4890  145.1370 O.2   112  GLN112     -0.2717
    132  NE2       69.2590  131.0140  145.2220 N.am  112  GLN112     -0.0878
    133  N         67.0930  125.4400  145.5680 N.am  113  ASP113     -0.1971
    134  CA        66.1750  124.3230  145.7340 C.3   113  ASP113      0.1709
    135  C         65.4040  124.3480  147.0450 C.2   113  ASP113      0.2293
    136  O         64.3210  123.7590  147.1150 O.2   113  ASP113     -0.2864
    137  CB        66.9340  122.9910  145.6260 C.3   113  ASP113      0.1436
    138  CG        68.0590  122.8720  146.6400 C.2   113  ASP113      0.3671
    139  OD1       68.4090  123.8810  147.2900 O.co2 113  ASP113     -0.2456
    140  OD2       68.5760  121.7500  146.8110 O.co2 113  ASP113     -0.2456
    141  N         70.8130  127.5050  139.0160 N.3   143  CYS143     -0.1221
    142  CA        70.6080  126.1440  139.5070 C.3   143  CYS143      0.1808
    143  C         71.5770  125.2380  138.7610 C.2   143  CYS143      0.2601
    144  O         71.2930  124.8190  137.6340 O.2   143  CYS143     -0.2717
    145  CB        69.1680  125.6850  139.2960 C.3   143  CYS143      0.0970
    146  SG        67.9280  126.6140  140.2060 S.3   143  CYS143     -0.0800
    147  N         72.7130  124.9310  139.3910 N.am  144  ALA144     -0.1965
    148  CA        73.8130  124.2890  138.6760 C.3   144  ALA144      0.1728
    149  C         73.5500  122.8120  138.4080 C.2   144  ALA144      0.2616
    150  O         73.9680  122.2910  137.3690 O.2   144  ALA144     -0.2715
    151  CB        75.1140  124.4570  139.4570 C.3   144  ALA144      0.0334
    152  N         72.8660  122.1210  139.3190 N.am  145  THR145     -0.1951
    153  CA        72.5240  120.7220  139.0890 C.3   145  THR145      0.1897
    154  C         71.4820  120.5360  137.9950 C.2   145  THR145      0.2313
    155  O         71.3670  119.4310  137.4550 O.2   145  THR145     -0.2863
    156  CB        72.0480  120.0620  140.3840 C.3   145  THR145      0.1794
    157  OG1       71.0430  120.8750  141.0040 O.3   145  THR145     -0.2208
    158  CG2       73.2140  119.8300  141.3320 C.3   145  THR145      0.0378
@<TRIPOS>BOND
     1    54    55    1
     2   150   149    2
     3    55    56    1
     4    55    58    1
     5   155   154    2
     6   144   143    2
     7    50    49    2
     8    61    59    1
     9    59    58    1
    10    56    57    2
    11   154   153    1
    12    58    60    1
    13   149   148    1
    14   149   152   am
    15   148   147    1
    16   148   151    1
    17    49    48    1
    18   143   147   am
    19   143   142    1
    20    43    42    2
    21   141   142    1
    22   153   152    1
    23   153   156    1
    24   145   142    1
    25   145   146    1
    26    34    33    2
    27    48    47    1
    28    48    51    1
    29    42    47   am
    30    42    41    1
    31    53    51    1
    32   156   157    1
    33   156   158    1
    34    41    40    1
    35    41    44    1
    36    33    40   am
    37    33    32    1
    38    51    52    1
    39    67    66    1
    40    44    46    1
    41    44    45    1
    42    30    29    2
    43    32    35    1
    44    32    31    1
    45   113   112    2
    46   114   112   am
    47    35    36    1
    48   112   111    1
    49    29    31   am
    50    29    28    1
    51    66    68    1
    52    66    63    1
    53    62    63    1
    54   111   108    1
    55   108   107    1
    56   108   109    1
    57    63    64    1
    58    90    88    1
    59    36    37    1
    60   128   129    1
    61   128   125    1
    62   129   130    1
    63   127   126    2
    64    37    38    1
    65   115   109   am
    66   115   116    1
    67    28    27    1
    68    91    92    1
    69    88    89    1
    70    88    85    1
    71   109   110    2
    72   124   125    1
    73   124   117   am
    74   125   126    1
    75   126   133   am
    76    64    69   am
    77    64    65    2
    78   130   131    2
    79   130   132   am
    80    69    70    1
    81    74    76    1
    82    74    73    1
    83    38    39    1
    84   116   117    1
    85   116   119    1
    86    25    24    2
    87    92    93    1
    88    27    24   am
    89   117   118    2
    90    85    86    1
    91    85    84    1
    92    72    71    2
    93    24    23    1
    94   133   134    1
    95   137   134    1
    96   137   138    1
    97    75    73    1
    98   120   119    1
    99   120   121    1
   100   134   135    1
   101    73    70    1
   102    70    71    1
   103    86    87    2
   104    84    79   am
   105    93    94    2
   106    93    95   am
   107    71    77   am
   108   138   140   ar
   109   138   139   ar
   110    26    23    1
   111   121   122    1
   112    23    22    1
   113    95    96    1
   114   135   136    2
   115    79    80    2
   116    79    78    1
   117    77    78    1
   118    77    83    1
   119    22    19   am
   120   122   123    1
   121    78    81    1
   122    96    97    1
   123     4     3    2
   124     1     2    1
   125    19    20    2
   126    19    18    1
   127    83    82    1
   128     3     2    1
   129     3     9   am
   130    81    82    1
   131    97    99   am
   132    97    98    2
   133     2     5    1
   134    18    17    1
   135    18    21    1
   136    17    11   am
   137    99   100    1
   138    10    11    1
   139    10     9    1
   140    10    13    1
   141    11    12    2
   142   106   104    1
   143     5     6    1
   144     6     8    1
   145     6     7    1
   146    13    14    1
   147   100   103    1
   148   100   101    1
   149   102   101    2
   150   103   104    1
   151   104   105    1
   152    14    15   ar
   153    14    16   ar
