@<TRIPOS>MOLECULE
tmp/6d88B03.pdb
 176 166 0 0 0
SMALL
GASTEIGER

@<TRIPOS>ATOM
      1  N         17.4390  -56.1890  -32.4930 N.3   199  TYR199     -0.1241
      2  CA        16.0090  -55.9960  -32.6730 C.3   199  TYR199      0.1605
      3  C         15.6120  -54.7180  -31.9510 C.2   199  TYR199      0.2264
      4  O         15.8570  -54.5870  -30.7500 O.2   199  TYR199     -0.2867
      5  CB        15.2310  -57.1740  -32.1020 C.3   199  TYR199      0.0534
      6  CG        15.5620  -58.4660  -32.7790 C.ar  199  TYR199     -0.0201
      7  CD1       16.3350  -59.4350  -32.1360 C.ar  199  TYR199     -0.0009
      8  CD2       15.1130  -58.7340  -34.0670 C.ar  199  TYR199     -0.0009
      9  CE1       16.6410  -60.6180  -32.7560 C.ar  199  TYR199      0.0417
     10  CE2       15.4220  -59.9230  -34.6870 C.ar  199  TYR199      0.0417
     11  CZ        16.1840  -60.8540  -34.0330 C.ar  199  TYR199      0.1957
     12  OH        16.4890  -62.0430  -34.6530 O.3   199  TYR199     -0.2866
     13  N          9.0030  -65.5420  -31.1390 N.3   234  GLY234     -0.1210
     14  CA         8.8570  -65.6920  -32.5800 C.3   234  GLY234      0.1956
     15  C         10.1670  -65.5620  -33.3310 C.2   234  GLY234      0.2611
     16  O         10.4720  -66.3760  -34.2060 O.2   234  GLY234     -0.2717
     17  N         10.9590  -64.5320  -33.0070 N.am  235  VAL235     -0.1979
     18  CA        12.2290  -64.3130  -33.7020 C.3   235  VAL235      0.1595
     19  C         13.2960  -65.2980  -33.2510 C.2   235  VAL235      0.2287
     20  O         14.4540  -65.1860  -33.6760 O.2   235  VAL235     -0.2864
     21  CB        12.7530  -62.8670  -33.5280 C.3   235  VAL235      0.0276
     22  CG1       11.7550  -61.8430  -34.0770 C.3   235  VAL235      0.0022
     23  CG2       13.0900  -62.5720  -32.0750 C.3   235  VAL235      0.0022
     24  N         13.2870  -70.2100  -35.3760 N.3   238  CYS238     -0.1221
     25  CA        14.1940  -70.8800  -36.3000 C.3   238  CYS238      0.1808
     26  C         15.4350  -71.4030  -35.6000 C.2   238  CYS238      0.2601
     27  O         16.0150  -72.3980  -36.0420 O.2   238  CYS238     -0.2717
     28  CB        14.5800  -69.9410  -37.4340 C.3   238  CYS238      0.0970
     29  SG        13.1510  -69.3970  -38.3990 S.3   238  CYS238     -0.0800
     30  N         15.8710  -70.7440  -34.5270 N.am  239  LEU239     -0.1979
     31  CA        17.0250  -71.2090  -33.7620 C.3   239  LEU239      0.1596
     32  C         16.6800  -72.3900  -32.8670 C.2   239  LEU239      0.2287
     33  O         17.5060  -73.2810  -32.6720 O.2   239  LEU239     -0.2864
     34  CB        17.5920  -70.0690  -32.9190 C.3   239  LEU239      0.0297
     35  CG        17.7820  -68.7350  -33.6350 C.3   239  LEU239      0.0022
     36  CD1       18.2380  -67.6850  -32.6470 C.3   239  LEU239      0.0001
     37  CD2       18.7650  -68.8700  -34.7930 C.3   239  LEU239      0.0001
     38  N         15.8380  -74.6280  -43.1990 N.3   245  LEU245     -0.1245
     39  CA        16.9410  -73.6810  -43.3020 C.3   245  LEU245      0.1561
     40  C         18.1200  -74.0500  -42.4260 C.2   245  LEU245      0.2260
     41  O         19.2490  -73.6430  -42.7240 O.2   245  LEU245     -0.2867
     42  CB        16.4690  -72.2850  -42.9130 C.3   245  LEU245      0.0270
     43  CG        16.1850  -71.2710  -44.0000 C.3   245  LEU245      0.0019
     44  CD1       15.8920  -69.9350  -43.3510 C.3   245  LEU245      0.0001
     45  CD2       17.3630  -71.1850  -44.9420 C.3   245  LEU245      0.0001
     46  N         18.7490  -72.9190  -39.3310 N.3   247  ALA247     -0.1231
     47  CA        19.0560  -71.5150  -39.0860 C.3   247  ALA247      0.1694
     48  C         20.0010  -71.3240  -37.8980 C.2   247  ALA247      0.2592
     49  O         19.9270  -72.0380  -36.8940 O.2   247  ALA247     -0.2718
     50  CB        17.7630  -70.7280  -38.8610 C.3   247  ALA247      0.0304
     51  N         20.8760  -70.3180  -38.0080 N.am  248  ASP248     -0.1960
     52  CA        21.7120  -69.9060  -36.8880 C.3   248  ASP248      0.1840
     53  C         21.9570  -68.4010  -36.9810 C.2   248  ASP248      0.2621
     54  O         21.6400  -67.7500  -37.9820 O.2   248  ASP248     -0.2715
     55  CB        23.0530  -70.6680  -36.8210 C.3   248  ASP248      0.1450
     56  CG        23.9840  -70.3700  -37.9950 C.2   248  ASP248      0.3671
     57  OD1       24.1670  -69.1740  -38.3460 O.co2 248  ASP248     -0.2456
     58  OD2       24.5810  -71.3360  -38.5330 O.co2 248  ASP248     -0.2456
     59  N         22.5430  -67.8480  -35.9160 N.am  249  LEU249     -0.1977
     60  CA        22.6920  -66.4010  -35.8390 C.3   249  LEU249      0.1596
     61  C         23.5990  -65.8390  -36.9340 C.2   249  LEU249      0.2287
     62  O         23.3350  -64.7470  -37.4510 O.2   249  LEU249     -0.2864
     63  CB        23.2190  -66.0190  -34.4590 C.3   249  LEU249      0.0297
     64  CG        22.2030  -66.1970  -33.3300 C.3   249  LEU249      0.0022
     65  CD1       22.8820  -65.9560  -31.9870 C.3   249  LEU249      0.0001
     66  CD2       20.9910  -65.2890  -33.5170 C.3   249  LEU249      0.0001
     67  N         24.1510  -67.0670  -40.0680 N.3   251  LYS251     -0.1231
     68  CA        23.4540  -67.0250  -41.3460 C.3   251  LYS251      0.1693
     69  C         22.3930  -65.9270  -41.3610 C.2   251  LYS251      0.2591
     70  O         22.1950  -65.2720  -42.3920 O.2   251  LYS251     -0.2718
     71  CB        22.8520  -68.3960  -41.6710 C.3   251  LYS251      0.0285
     72  CG        23.8880  -69.3470  -42.2760 C.3   251  LYS251      0.0035
     73  CD        23.3510  -70.7470  -42.5540 C.3   251  LYS251      0.0206
     74  CE        23.2690  -71.6200  -41.3120 C.3   251  LYS251      0.1093
     75  NZ        22.9930  -73.0450  -41.6820 N.3   251  LYS251     -0.1314
     76  N         21.7500  -65.6590  -40.2210 N.am  252  LEU252     -0.1980
     77  CA        20.7870  -64.5660  -40.1900 C.3   252  LEU252      0.1596
     78  C         21.4600  -63.2460  -40.5180 C.2   252  LEU252      0.2287
     79  O         20.9050  -62.4300  -41.2580 O.2   252  LEU252     -0.2864
     80  CB        20.0910  -64.4940  -38.8370 C.3   252  LEU252      0.0297
     81  CG        19.1820  -63.2650  -38.7050 C.3   252  LEU252      0.0022
     82  CD1       17.9520  -63.3850  -39.5720 C.3   252  LEU252      0.0001
     83  CD2       18.7660  -63.0280  -37.2590 C.3   252  LEU252      0.0001
     84  N         22.3390  -62.9400  -44.3790 N.3   255  ASN255     -0.1225
     85  CA        21.2170  -62.7030  -45.2760 C.3   255  ASN255      0.1785
     86  C         20.4890  -61.4020  -44.9800 C.2   255  ASN255      0.2597
     87  O         19.9510  -60.7810  -45.8990 O.2   255  ASN255     -0.2718
     88  CB        20.2860  -63.9130  -45.2390 C.3   255  ASN255      0.1169
     89  CG        20.9300  -65.1290  -45.8810 C.2   255  ASN255      0.2627
     90  OD1       21.1860  -65.1190  -47.0770 O.2   255  ASN255     -0.2716
     91  ND2       21.2790  -66.1350  -45.0810 N.am  255  ASN255     -0.0877
     92  N         20.4540  -60.9730  -43.7230 N.am  256  MET256     -0.1979
     93  CA        19.7260  -59.7590  -43.3700 C.3   256  MET256      0.1605
     94  C         20.5580  -58.4890  -43.5640 C.2   256  MET256      0.2287
     95  O         19.9940  -57.4390  -43.8780 O.2   256  MET256     -0.2864
     96  CB        19.2450  -59.8550  -41.9280 C.3   256  MET256      0.0413
     97  CG        18.1670  -60.9110  -41.7000 C.3   256  MET256      0.0598
     98  SD        16.6170  -60.5270  -42.5050 S.3   256  MET256     -0.1393
     99  CE        16.1330  -59.0480  -41.6180 C.3   256  MET256      0.0692
    100  N         15.9120  -56.4730  -46.5960 N.3   311  THR311     -0.1203
    101  CA        15.7060  -57.9070  -46.4750 C.3   311  THR311      0.1994
    102  C         14.5850  -58.1300  -45.4660 C.2   311  THR311      0.2618
    103  O         14.3580  -57.2950  -44.5860 O.2   311  THR311     -0.2717
    104  CB        16.9930  -58.6400  -46.0270 C.3   311  THR311      0.1784
    105  OG1       17.4890  -58.0820  -44.8000 O.3   311  THR311     -0.2211
    106  CG2       18.0820  -58.5050  -47.0780 C.3   311  THR311      0.0376
    107  N         13.8580  -59.2380  -45.6130 N.am  312  VAL312     -0.1965
    108  CA        12.7620  -59.5830  -44.7070 C.3   312  VAL312      0.1727
    109  C         12.8450  -61.0620  -44.3560 C.2   312  VAL312      0.2616
    110  O         13.2260  -61.8890  -45.1880 O.2   312  VAL312     -0.2715
    111  CB        11.3790  -59.2680  -45.3090 C.3   312  VAL312      0.0290
    112  CG1       10.2870  -59.7350  -44.3570 C.3   312  VAL312      0.0023
    113  CG2       11.2480  -57.7840  -45.6020 C.3   312  VAL312      0.0023
    114  N         12.5060  -61.3960  -43.1210 N.am  313  ALA313     -0.1963
    115  CA        12.4310  -62.7850  -42.6970 C.3   313  ALA313      0.1728
    116  C         11.1050  -63.0210  -41.9950 C.2   313  ALA313      0.2616
    117  O         10.7660  -62.3060  -41.0490 O.2   313  ALA313     -0.2715
    118  CB        13.5940  -63.1490  -41.7660 C.3   313  ALA313      0.0334
    119  N         10.3580  -64.0170  -42.4470 N.am  314  ALA314     -0.1963
    120  CA         9.0670  -64.3440  -41.8630 C.3   314  ALA314      0.1728
    121  C          9.0620  -65.8040  -41.4210 C.2   314  ALA314      0.2616
    122  O          9.6180  -66.6830  -42.0910 O.2   314  ALA314     -0.2715
    123  CB         7.9260  -64.0650  -42.8450 C.3   314  ALA314      0.0334
    124  N          8.4860  -66.0410  -40.2520 N.am  315  ILE315     -0.1977
    125  CA         8.4110  -67.3630  -39.6610 C.3   315  ILE315      0.1596
    126  C          6.9560  -67.6210  -39.3010 C.2   315  ILE315      0.2287
    127  O          6.3590  -66.8680  -38.5220 O.2   315  ILE315     -0.2864
    128  CB         9.3050  -67.4900  -38.4240 C.3   315  ILE315      0.0276
    129  CG1        8.9040  -68.7190  -37.6240 C.3   315  ILE315      0.0022
    130  CG2        9.1530  -66.2700  -37.5570 C.3   315  ILE315      0.0022
    131  CD1        9.1230  -70.0040  -38.3790 C.3   315  ILE315      0.0001
    132  N         15.3050  -61.6420  -54.4120 N.3   346  ASN346     -0.1225
    133  CA        14.8160  -62.6750  -53.5100 C.3   346  ASN346      0.1785
    134  C         15.1870  -62.3570  -52.0730 C.2   346  ASN346      0.2597
    135  O         15.7510  -63.1840  -51.3490 O.2   346  ASN346     -0.2718
    136  CB        15.3520  -64.0410  -53.9310 C.3   346  ASN346      0.1169
    137  CG        15.1890  -64.2890  -55.4250 C.2   346  ASN346      0.2627
    138  OD1       16.1720  -64.4520  -56.1600 O.2   346  ASN346     -0.2716
    139  ND2       13.9380  -64.3270  -55.8810 N.am  346  ASN346     -0.0877
    140  N         14.8320  -61.1430  -51.6490 N.am  347  ASN347     -0.1960
    141  CA        15.2240  -60.6430  -50.3360 C.3   347  ASN347      0.1819
    142  C         14.2110  -60.9430  -49.2410 C.2   347  ASN347      0.2621
    143  O         14.3530  -60.4050  -48.1360 O.2   347  ASN347     -0.2715
    144  CB        15.4950  -59.1310  -50.3910 C.3   347  ASN347      0.1195
    145  CG        14.3440  -58.3370  -50.9990 C.2   347  ASN347      0.2630
    146  OD1       13.5470  -58.8640  -51.7750 O.2   347  ASN347     -0.2716
    147  ND2       14.2460  -57.0620  -50.6300 N.am  347  ASN347     -0.0877
    148  N         13.2320  -61.8130  -49.5010 N.am  348  VAL348     -0.1963
    149  CA        12.2370  -62.2120  -48.5080 C.3   348  VAL348      0.1727
    150  C         12.2980  -63.7180  -48.3340 C.2   348  VAL348      0.2616
    151  O         12.0900  -64.4630  -49.2980 O.2   348  VAL348     -0.2715
    152  CB        10.8180  -61.7820  -48.9000 C.3   348  VAL348      0.0290
    153  CG1        9.8360  -62.1560  -47.7860 C.3   348  VAL348      0.0023
    154  CG2       10.7750  -60.2900  -49.1820 C.3   348  VAL348      0.0023
    155  N         12.5500  -64.1650  -47.1050 N.am  349  LYS349     -0.1977
    156  CA        12.6690  -65.5820  -46.8030 C.3   349  LYS349      0.1596
    157  C         11.6020  -65.9860  -45.8010 C.2   349  LYS349      0.2287
    158  O         11.3220  -65.2520  -44.8560 O.2   349  LYS349     -0.2864
    159  CB        14.0540  -65.9120  -46.2540 C.3   349  LYS349      0.0298
    160  CG        14.2840  -67.3960  -45.9600 C.3   349  LYS349      0.0038
    161  CD        14.1660  -68.2470  -47.2240 C.3   349  LYS349      0.0206
    162  CE        14.6550  -69.6610  -46.9780 C.3   349  LYS349      0.1093
    163  NZ        14.3120  -70.5670  -48.1130 N.3   349  LYS349     -0.1314
    164  N         10.1580  -69.1670  -43.2980 N.3   351  ALA351     -0.1245
    165  CA        10.3770  -70.4310  -42.6210 C.3   351  ALA351      0.1562
    166  C          9.0980  -70.8140  -41.9050 C.2   351  ALA351      0.2260
    167  O          8.2280  -69.9750  -41.6680 O.2   351  ALA351     -0.2867
    168  CB        11.5290  -70.3560  -41.6190 C.3   351  ALA351      0.0290
    169  N         10.5240  -60.1890  -39.3000 N.3   367  ILE367     -0.1245
    170  CA        11.7880  -59.5210  -39.0140 C.3   367  ILE367      0.1561
    171  C         12.1740  -58.7030  -40.2300 C.2   367  ILE367      0.2260
    172  O         12.4820  -59.2670  -41.2860 O.2   367  ILE367     -0.2867
    173  CB        12.9050  -60.5110  -38.6450 C.3   367  ILE367      0.0252
    174  CG1       12.4580  -61.4290  -37.5090 C.3   367  ILE367      0.0019
    175  CG2       14.1740  -59.7630  -38.2560 C.3   367  ILE367      0.0019
    176  CD1       13.4000  -62.6230  -37.2820 C.3   367  ILE367      0.0001
@<TRIPOS>BOND
     1   138   137    2
     2   139   137   am
     3   137   136    1
     4   132   133    1
     5   136   133    1
     6   133   134    1
     7   134   140   am
     8   134   135    2
     9   146   145    2
    10   140   141    1
    11   145   147   am
    12   145   144    1
    13   144   141    1
    14   141   142    1
    15   148   142   am
    16   148   149    1
    17   151   150    2
    18   142   143    2
    19   154   152    1
    20   152   149    1
    21   152   153    1
    22   149   150    1
    23   150   155   am
    24   163   162    1
    25   161   162    1
    26   161   160    1
    27   155   156    1
    28   106   104    1
    29    90    89    2
    30   156   159    1
    31   156   157    1
    32   100   101    1
    33   101   104    1
    34   101   102    1
    35   159   160    1
    36   104   105    1
    37    87    86    2
    38    89    88    1
    39    89    91   am
    40   157   158    2
    41   107   102   am
    42   107   108    1
    43   113   111    1
    44   102   103    2
    45   111   108    1
    46   111   112    1
    47    85    88    1
    48    85    86    1
    49    85    84    1
    50   110   109    2
    51    86    92   am
    52    45    43    1
    53   108   109    1
    54   109   114   am
    55    43    44    1
    56    43    42    1
    57    95    94    2
    58    92    93    1
    59    94    93    1
    60    93    96    1
    61    39    38    1
    62    39    42    1
    63    39    40    1
    64   164   165    1
    65   114   115    1
    66   123   120    1
    67    41    40    2
    68   115   116    1
    69   115   118    1
    70   165   166    1
    71   165   168    1
    72    73    72    1
    73    73    74    1
    74    98    97    1
    75    98    99    1
    76   119   116   am
    77   119   120    1
    78    70    69    2
    79    72    71    1
    80   122   121    2
    81   116   117    2
    82    96    97    1
    83   166   167    2
    84   120   121    1
    85    75    74    1
    86    71    68    1
    87   121   124   am
    88    69    68    1
    89    69    76   am
    90    68    67    1
    91   172   171    2
    92    79    78    2
    93    78    77    1
    94   124   125    1
    95   171   170    1
    96    76    77    1
    97    77    80    1
    98   125   126    1
    99   125   128    1
   100    82    81    1
   101    46    47    1
   102   126   127    2
   103   169   170    1
   104    47    50    1
   105    47    48    1
   106   170   173    1
   107    80    81    1
   108    81    83    1
   109   173   175    1
   110   173   174    1
   111    58    56   ar
   112   128   129    1
   113   128   130    1
   114    29    28    1
   115   131   129    1
   116    57    56   ar
   117    51    48   am
   118    51    52    1
   119    56    55    1
   120    54    53    2
   121    48    49    2
   122   174   176    1
   123    62    61    2
   124    28    25    1
   125    53    52    1
   126    53    59   am
   127    61    60    1
   128    52    55    1
   129    25    26    1
   130    25    24    1
   131    27    26    2
   132    59    60    1
   133    60    63    1
   134    26    30   am
   135    37    35    1
   136    10     8   ar
   137    10    11   ar
   138    12    11    1
   139    30    31    1
   140    63    64    1
   141    16    15    2
   142    22    21    1
   143     8     6   ar
   144    11     9   ar
   145    31    34    1
   146    31    32    1
   147    18    21    1
   148    18    19    1
   149    18    17    1
   150    20    19    2
   151    35    34    1
   152    35    36    1
   153    21    23    1
   154    66    64    1
   155    15    17   am
   156    15    14    1
   157    64    65    1
   158    32    33    2
   159     6     7   ar
   160     6     5    1
   161     9     7   ar
   162     2     1    1
   163     2     5    1
   164     2     3    1
   165    14    13    1
   166     3     4    2
