@<TRIPOS>MOLECULE
tmp/6d89D00.pdb
 171 170 0 0 0
SMALL
GASTEIGER

@<TRIPOS>ATOM
      1  N        -15.1210  -25.3620  165.0360 N.3   157  ASP157     -0.1225
      2  CA       -14.1400  -25.1870  163.9680 C.3   157  ASP157      0.1805
      3  C        -14.7940  -25.1500  162.5950 C.2   157  ASP157      0.2597
      4  O        -14.3710  -25.8560  161.6830 O.2   157  ASP157     -0.2718
      5  CB       -13.0860  -26.2770  164.0260 C.3   157  ASP157      0.1424
      6  CG       -11.9400  -25.9930  163.0940 C.2   157  ASP157      0.3668
      7  OD1      -11.2750  -24.9640  163.3010 O.co2 157  ASP157     -0.2456
      8  OD2      -11.7120  -26.7770  162.1500 O.co2 157  ASP157     -0.2456
      9  N        -15.8430  -24.3500  162.4310 N.am  158  TRP158     -0.1976
     10  CA       -16.3680  -24.0650  161.1060 C.3   158  TRP158      0.1640
     11  C        -16.9200  -22.6450  161.1010 C.2   158  TRP158      0.2290
     12  O        -17.1810  -22.0520  162.1530 O.2   158  TRP158     -0.2864
     13  CB       -17.4230  -25.0800  160.6700 C.3   158  TRP158      0.0576
     14  CG       -18.6770  -25.1230  161.5110 C.ar  158  TRP158      0.0006
     15  CD1      -19.7750  -24.3180  161.3910 C.ar  158  TRP158      0.0946
     16  CD2      -18.9720  -26.0460  162.5730 C.ar  158  TRP158      0.0152
     17  NE1      -20.7230  -24.6610  162.3280 N.ar  158  TRP158     -0.2442
     18  CE2      -20.2590  -25.7230  163.0640 C.ar  158  TRP158      0.0810
     19  CE3      -18.2670  -27.1000  163.1680 C.ar  158  TRP158      0.0012
     20  CZ2      -20.8590  -26.4220  164.1220 C.ar  158  TRP158      0.0191
     21  CZ3      -18.8710  -27.8000  164.2250 C.ar  158  TRP158      0.0001
     22  CH2      -20.1510  -27.4510  164.6880 C.ar  158  TRP158      0.0015
     23  N        -18.3080  -31.5970  155.3120 N.3   290  HIS290     -0.1241
     24  CA       -19.0830  -30.4690  155.8260 C.3   290  HIS290      0.1621
     25  C        -20.1370  -30.0490  154.8020 C.2   290  HIS290      0.2264
     26  O        -20.0840  -30.4280  153.6280 O.2   290  HIS290     -0.2867
     27  CB       -18.1790  -29.2880  156.1500 C.3   290  HIS290      0.0745
     28  CG       -17.9080  -29.0970  157.6100 C.ar  290  HIS290      0.0817
     29  ND1      -18.8800  -28.7040  158.5030 N.ar  290  HIS290     -0.2268
     30  CD2      -16.7610  -29.2000  158.3230 C.ar  290  HIS290      0.1154
     31  CE1      -18.3500  -28.5980  159.7070 C.ar  290  HIS290      0.1986
     32  NE2      -17.0630  -28.8820  159.6250 N.ar  290  HIS290     -0.2212
     33  N        -20.9670  -31.2000  160.9190 N.3   325  HIS325     -0.1241
     34  CA       -21.0530  -31.7410  162.2820 C.3   325  HIS325      0.1621
     35  C        -22.4690  -31.4770  162.8120 C.2   325  HIS325      0.2264
     36  O        -22.6350  -31.1100  163.9630 O.2   325  HIS325     -0.2867
     37  CB       -20.0180  -31.0790  163.2360 C.3   325  HIS325      0.0745
     38  CG       -18.6430  -31.7000  163.2180 C.ar  325  HIS325      0.0817
     39  ND1      -18.4260  -33.0510  163.4000 N.ar  325  HIS325     -0.2268
     40  CD2      -17.4090  -31.1430  163.0800 C.ar  325  HIS325      0.1154
     41  CE1      -17.1260  -33.3030  163.3540 C.ar  325  HIS325      0.1986
     42  NE2      -16.4830  -32.1610  163.1670 N.ar  325  HIS325     -0.2212
     43  N        -20.5770  -30.7160  170.6160 N.3   350  TYR350     -0.1227
     44  CA       -19.2270  -30.5760  170.0790 C.3   350  TYR350      0.1736
     45  C        -18.4370  -29.6970  171.0390 C.2   350  TYR350      0.2595
     46  O        -18.7460  -28.5070  171.1760 O.2   350  TYR350     -0.2718
     47  CB       -19.3150  -29.9640  168.6830 C.3   350  TYR350      0.0548
     48  CG       -18.0210  -29.5970  167.9850 C.ar  350  TYR350     -0.0200
     49  CD1      -17.3650  -30.5060  167.1540 C.ar  350  TYR350     -0.0009
     50  CD2      -17.4910  -28.3180  168.1020 C.ar  350  TYR350     -0.0009
     51  CE1      -16.2020  -30.1580  166.4940 C.ar  350  TYR350      0.0417
     52  CE2      -16.3280  -27.9600  167.4440 C.ar  350  TYR350      0.0417
     53  CZ       -15.6870  -28.8820  166.6430 C.ar  350  TYR350      0.1957
     54  OH       -14.5300  -28.5100  165.9950 O.3   350  TYR350     -0.2866
     55  N        -17.4500  -30.2810  171.7220 N.am  351  TRP351     -0.1976
     56  CA       -16.6200  -29.5190  172.6520 C.3   351  TRP351      0.1640
     57  C        -17.4220  -29.1110  173.8910 C.2   351  TRP351      0.2290
     58  O        -18.1230  -29.9420  174.4730 O.2   351  TRP351     -0.2864
     59  CB       -16.0140  -28.2860  171.9530 C.3   351  TRP351      0.0576
     60  CG       -15.0160  -28.6020  170.8340 C.ar  351  TRP351      0.0006
     61  CD1      -14.6240  -29.8460  170.4000 C.ar  351  TRP351      0.0946
     62  CD2      -14.2910  -27.6530  170.0200 C.ar  351  TRP351      0.0152
     63  NE1      -13.7090  -29.7270  169.3740 N.ar  351  TRP351     -0.2442
     64  CE2      -13.4860  -28.3970  169.1220 C.ar  351  TRP351      0.0810
     65  CE3      -14.2460  -26.2480  169.9640 C.ar  351  TRP351      0.0012
     66  CZ2      -12.6460  -27.7830  168.1780 C.ar  351  TRP351      0.0191
     67  CZ3      -13.4070  -25.6390  169.0210 C.ar  351  TRP351      0.0001
     68  CH2      -12.6200  -26.4100  168.1440 C.ar  351  TRP351      0.0015
     69  N        -19.5380  -35.1610  169.2460 N.3   388  ASN388     -0.1225
     70  CA       -18.1570  -35.1990  168.8040 C.3   388  ASN388      0.1785
     71  C        -17.2620  -35.0810  170.0410 C.2   388  ASN388      0.2597
     72  O        -17.6950  -35.3700  171.1640 O.2   388  ASN388     -0.2718
     73  CB       -17.9090  -34.0950  167.7710 C.3   388  ASN388      0.1169
     74  CG       -16.6460  -34.3350  166.9490 C.2   388  ASN388      0.2627
     75  OD1      -16.3730  -35.4560  166.5160 O.2   388  ASN388     -0.2716
     76  ND2      -15.8720  -33.2810  166.7340 N.am  388  ASN388     -0.0877
     77  N        -16.0140  -34.6590  169.8530 N.am  389  GLU389     -0.1979
     78  CA       -15.0610  -34.6320  170.9560 C.3   389  GLU389      0.1602
     79  C        -15.5940  -33.7740  172.1030 C.2   389  GLU389      0.2287
     80  O        -15.8250  -32.5720  171.9360 O.2   389  GLU389     -0.2864
     81  CB       -13.7140  -34.1000  170.4580 C.3   389  GLU389      0.0415
     82  CG       -12.5770  -34.2000  171.4760 C.3   389  GLU389      0.1163
     83  CD       -11.9360  -35.5890  171.5430 C.2   389  GLU389      0.3649
     84  OE1      -12.0920  -36.3830  170.5850 O.co2 389  GLU389     -0.2457
     85  OE2      -11.2680  -35.8840  172.5600 O.co2 389  GLU389     -0.2457
     86  N         -5.4830  -38.0950  165.3030 N.3   445  TYR445     -0.1241
     87  CA        -4.6850  -37.2940  164.3860 C.3   445  TYR445      0.1605
     88  C         -3.2020  -37.6050  164.5580 C.2   445  TYR445      0.2264
     89  O         -2.3510  -36.7050  164.5970 O.2   445  TYR445     -0.2867
     90  CB        -4.9780  -35.8050  164.5890 C.3   445  TYR445      0.0534
     91  CG        -6.3140  -35.4000  164.0060 C.ar  445  TYR445     -0.0201
     92  CD1       -7.4520  -35.3050  164.8070 C.ar  445  TYR445     -0.0009
     93  CD2       -6.4510  -35.1410  162.6440 C.ar  445  TYR445     -0.0009
     94  CE1       -8.6800  -34.9360  164.2680 C.ar  445  TYR445      0.0417
     95  CE2       -7.6910  -34.7800  162.0940 C.ar  445  TYR445      0.0417
     96  CZ        -8.7920  -34.6700  162.9160 C.ar  445  TYR445      0.1957
     97  OH       -10.0120  -34.3000  162.3820 O.3   445  TYR445     -0.2866
     98  N         -1.5410  -33.8040  164.4790 N.3   449  TYR449     -0.1241
     99  CA        -1.4880  -33.1500  165.7840 C.3   449  TYR449      0.1605
    100  C         -0.6140  -33.9160  166.7720 C.2   449  TYR449      0.2264
    101  O          0.0010  -33.3090  167.6550 O.2   449  TYR449     -0.2867
    102  CB        -2.9030  -33.0030  166.3560 C.3   449  TYR449      0.0534
    103  CG        -3.7980  -32.0630  165.5660 C.ar  449  TYR449     -0.0201
    104  CD1       -3.3710  -30.7840  165.2330 C.ar  449  TYR449     -0.0009
    105  CD2       -5.0610  -32.4620  165.1500 C.ar  449  TYR449     -0.0009
    106  CE1       -4.1830  -29.9200  164.5100 C.ar  449  TYR449      0.0417
    107  CE2       -5.8800  -31.6130  164.4380 C.ar  449  TYR449      0.0417
    108  CZ        -5.4360  -30.3440  164.1170 C.ar  449  TYR449      0.1957
    109  OH        -6.2470  -29.5000  163.3960 O.3   449  TYR449     -0.2866
    110  N        -12.5120  -39.5040  162.5370 N.3   473  GLU473     -0.1245
    111  CA       -11.6860  -38.4500  161.9650 C.3   473  GLU473      0.1567
    112  C        -10.2120  -38.8340  162.0430 C.2   473  GLU473      0.2260
    113  O         -9.7690  -39.4560  163.0120 O.2   473  GLU473     -0.2867
    114  CB       -11.8890  -37.1110  162.6830 C.3   473  GLU473      0.0388
    115  CG       -13.2650  -36.5170  162.5190 C.3   473  GLU473      0.1160
    116  CD       -13.4360  -35.2780  163.3530 C.2   473  GLU473      0.3649
    117  OE1      -14.5740  -34.7860  163.4670 O.co2 473  GLU473     -0.2457
    118  OE2      -12.4270  -34.8100  163.9160 O.co2 473  GLU473     -0.2457
    119  N        -10.9520  -36.9660  157.9310 N.3   518  TRP518     -0.1241
    120  CA       -11.1960  -35.5280  157.9050 C.3   518  TRP518      0.1605
    121  C        -10.1710  -34.9220  156.9490 C.2   518  TRP518      0.2264
    122  O         -9.0000  -34.7940  157.3060 O.2   518  TRP518     -0.2867
    123  CB       -11.0490  -34.9700  159.3130 C.3   518  TRP518      0.0550
    124  CG       -11.6590  -33.6440  159.5260 C.ar  518  TRP518      0.0003
    125  CD1      -11.0200  -32.4450  159.5860 C.ar  518  TRP518      0.0946
    126  CD2      -13.0460  -33.3760  159.7150 C.ar  518  TRP518      0.0152
    127  NE1      -11.9250  -31.4380  159.8080 N.ar  518  TRP518     -0.2442
    128  CE2      -13.1800  -31.9830  159.8870 C.ar  518  TRP518      0.0810
    129  CE3      -14.1910  -34.1830  159.7600 C.ar  518  TRP518      0.0012
    130  CZ2      -14.4190  -31.3720  160.1040 C.ar  518  TRP518      0.0191
    131  CZ3      -15.4260  -33.5780  159.9770 C.ar  518  TRP518      0.0001
    132  CH2      -15.5320  -32.1850  160.1450 C.ar  518  TRP518      0.0015
    133  N        -10.4010  -20.3570  162.5960 N.3   527  ARG527     -0.1231
    134  CA        -9.3180  -20.7270  163.4920 C.3   527  ARG527      0.1694
    135  C         -7.9920  -20.9670  162.7670 C.2   527  ARG527      0.2591
    136  O         -6.9640  -21.1550  163.4310 O.2   527  ARG527     -0.2718
    137  CB        -9.7150  -21.9760  164.2840 C.3   527  ARG527      0.0321
    138  CG       -11.0580  -21.8300  164.9990 C.3   527  ARG527      0.0489
    139  CD       -11.4740  -23.1320  165.7160 C.3   527  ARG527      0.2205
    140  NE       -10.6760  -23.3700  166.9200 N.pl3 527  ARG527     -0.0865
    141  CZ        -9.7340  -24.3070  167.0270 C.cat 527  ARG527      0.5346
    142  NH1       -9.4710  -25.1220  166.0070 N.pl3 527  ARG527      0.1354
    143  NH2       -9.0560  -24.4370  168.1630 N.pl3 527  ARG527      0.1354
    144  N         -7.9800  -20.9280  161.4340 N.am  528  ARG528     -0.1980
    145  CA        -6.8480  -21.3780  160.6190 C.3   528  ARG528      0.1597
    146  C         -6.1890  -20.1590  159.9770 C.2   528  ARG528      0.2287
    147  O         -6.6420  -19.6830  158.9330 O.2   528  ARG528     -0.2864
    148  CB        -7.3240  -22.3740  159.5660 C.3   528  ARG528      0.0334
    149  CG        -8.2010  -23.4910  160.1260 C.3   528  ARG528      0.0492
    150  CD        -7.4710  -24.3690  161.1240 C.3   528  ARG528      0.2205
    151  NE        -8.3530  -25.4160  161.6280 N.pl3 528  ARG528     -0.0865
    152  CZ        -7.9700  -26.4350  162.3980 C.cat 528  ARG528      0.5346
    153  NH1       -6.7030  -26.5620  162.7700 N.pl3 528  ARG528      0.1354
    154  NH2       -8.8650  -27.3310  162.8020 N.pl3 528  ARG528      0.1354
    155  N         -9.6690  -24.5840  156.7690 N.3   538  ASN538     -0.1240
    156  CA        -9.1440  -25.8750  157.1950 C.3   538  ASN538      0.1653
    157  C         -8.7170  -26.6320  155.9480 C.2   538  ASN538      0.2266
    158  O         -9.5320  -26.8540  155.0440 O.2   538  ASN538     -0.2867
    159  CB       -10.2200  -26.6270  157.9890 C.3   538  ASN538      0.1155
    160  CG        -9.7440  -27.9890  158.5300 C.2   538  ASN538      0.2627
    161  OD1       -9.1920  -28.8060  157.7960 O.2   538  ASN538     -0.2716
    162  ND2       -9.9680  -28.2240  159.8200 N.am  538  ASN538     -0.0877
    163  N         -7.4760  -29.7580  155.5620 N.3   540  LYS540     -0.1245
    164  CA        -7.3600  -31.2100  155.6490 C.3   540  LYS540      0.1561
    165  C         -8.1560  -31.9340  154.5700 C.2   540  LYS540      0.2260
    166  O         -8.2530  -33.1650  154.6040 O.2   540  LYS540     -0.2867
    167  CB        -7.7550  -31.6730  157.0470 C.3   540  LYS540      0.0271
    168  CG        -6.7770  -31.1560  158.1020 C.3   540  LYS540      0.0035
    169  CD        -7.0320  -31.7530  159.4660 C.3   540  LYS540      0.0206
    170  CE        -6.2160  -31.0690  160.5180 C.3   540  LYS540      0.1093
    171  NZ        -6.5580  -29.5880  160.6410 N.3   540  LYS540     -0.1314
@<TRIPOS>BOND
     1    26    25    2
     2   165   166    2
     3   165   164    1
     4    25    24    1
     5   158   157    2
     6    23    24    1
     7   163   164    1
     8   164   167    1
     9    24    27    1
    10   157   156    1
    11    27    28    1
    12   155   156    1
    13   121   122    2
    14   121   120    1
    15   167   168    1
    16   156   159    1
    17    28    30   ar
    18    28    29   ar
    19   161   160    2
    20   120   119    1
    21   120   123    1
    22   159   160    1
    23   168   169    1
    24    30    32   ar
    25    29    31   ar
    26   160   162   am
    27   147   146    2
    28   123   124    1
    29   169   170    1
    30   124   125   ar
    31   124   126   ar
    32   148   149    1
    33   148   145    1
    34   125   127   ar
    35    32    31   ar
    36   126   129   ar
    37   126   128   ar
    38   129   131   ar
    39   127   128   ar
    40   128   130   ar
    41   131   132   ar
    42   146   145    1
    43   130   132   ar
    44   149   150    1
    45   170   171    1
    46   145   144    1
    47    13    10    1
    48    13    14    1
    49    33    34    1
    50    11    10    1
    51    11    12    2
    52    10     9    1
    53   150   151    1
    54    15    14   ar
    55    15    17   ar
    56   144   135   am
    57    14    16   ar
    58   151   152    2
    59     4     3    2
    60   111   112    1
    61   111   110    1
    62   111   114    1
    63   112   113    2
    64    95    93   ar
    65    95    96   ar
    66     8     6   ar
    67    34    35    1
    68    34    37    1
    69    17    18   ar
    70    97    96    1
    71   152   153    1
    72   152   154    1
    73     9     3   am
    74   115   114    1
    75   115   116    1
    76    16    18   ar
    77    16    19   ar
    78     3     2    1
    79   133   134    1
    80    93    91   ar
    81   135   136    2
    82   135   134    1
    83    35    36    2
    84    96    94   ar
    85    18    20   ar
    86    40    42   ar
    87    40    38   ar
    88     6     7   ar
    89     6     5    1
    90    42    41   ar
    91    19    21   ar
    92    38    37    1
    93    38    39   ar
    94   116   117   ar
    95   116   118   ar
    96    41    39   ar
    97   109   108    1
    98   134   137    1
    99     2     5    1
   100     2     1    1
   101    91    90    1
   102    91    92   ar
   103   108   107   ar
   104   108   106   ar
   105    20    22   ar
   106    21    22   ar
   107    94    92   ar
   108   137   138    1
   109    87    88    1
   110    87    90    1
   111    87    86    1
   112   107   105   ar
   113    98    99    1
   114   106   104   ar
   115    88    89    2
   116   138   139    1
   117   105   103   ar
   118   104   103   ar
   119   103   102    1
   120   139   140    1
   121    99   102    1
   122    99   100    1
   123    54    53    1
   124   142   141    1
   125    51    53   ar
   126    51    49   ar
   127    75    74    2
   128    53    52   ar
   129    76    74   am
   130   100   101    2
   131   140   141    2
   132    74    73    1
   133   141   143    1
   134    49    48   ar
   135    52    50   ar
   136    73    70    1
   137    48    50   ar
   138    48    47    1
   139    68    66   ar
   140    68    67   ar
   141    66    64   ar
   142    47    44    1
   143    70    69    1
   144    70    71    1
   145    67    65   ar
   146    64    63   ar
   147    64    62   ar
   148    63    61   ar
   149    77    71   am
   150    77    78    1
   151    65    62   ar
   152    62    60   ar
   153    71    72    2
   154    44    43    1
   155    44    45    1
   156    61    60   ar
   157    81    78    1
   158    81    82    1
   159    84    83   ar
   160    60    59    1
   161    78    79    1
   162    45    46    2
   163    45    55   am
   164    82    83    1
   165    83    85   ar
   166    55    56    1
   167    80    79    2
   168    59    56    1
   169    56    57    1
   170    57    58    2
