@<TRIPOS>MOLECULE
tmp/6d8aA00.pdb
 90 90 0 0 0
SMALL
GASTEIGER

@<TRIPOS>ATOM
      1  N         21.8940   30.8080   39.3300 N.3   583  PHE583     -0.1241
      2  CA        20.7420   30.0940   38.7990 C.3   583  PHE583      0.1605
      3  C         19.8770   29.5350   39.9190 C.2   583  PHE583      0.2264
      4  O         20.3810   28.9790   40.9030 O.2   583  PHE583     -0.2867
      5  CB        21.1710   28.9520   37.8690 C.3   583  PHE583      0.0534
      6  CG        20.0260   28.1090   37.3500 C.ar  583  PHE583     -0.0203
      7  CD1       19.2940   28.5280   36.2560 C.ar  583  PHE583     -0.0042
      8  CD2       19.7180   26.8780   37.9220 C.ar  583  PHE583     -0.0042
      9  CE1       18.2810   27.7630   35.7560 C.ar  583  PHE583     -0.0003
     10  CE2       18.6790   26.1110   37.4240 C.ar  583  PHE583     -0.0003
     11  CZ        17.9670   26.5550   36.3410 C.ar  583  PHE583     -0.0000
     12  N         17.8710   20.3610   41.3880 N.3   588  PRO588     -0.2102
     13  CA        19.2650   20.5960   40.9920 C.3   588  PRO588      0.1504
     14  C         19.5220   20.2840   39.5250 C.2   588  PRO588      0.2575
     15  O         18.9360   19.3720   38.9400 O.2   588  PRO588     -0.2718
     16  CB        20.0480   19.6330   41.8940 C.3   588  PRO588      0.0282
     17  CG        19.1150   18.4880   42.1070 C.3   588  PRO588      0.0208
     18  CD        17.7290   19.1170   42.1790 C.3   588  PRO588      0.0893
     19  N         20.4470   21.0410   38.9400 N.am  589  LEU589     -0.1980
     20  CA        20.8530   20.7830   37.5670 C.3   589  LEU589      0.1596
     21  C         21.8020   19.5930   37.5110 C.2   589  LEU589      0.2287
     22  O         22.5210   19.2970   38.4700 O.2   589  LEU589     -0.2864
     23  CB        21.5330   22.0080   36.9530 C.3   589  LEU589      0.0297
     24  CG        20.6160   23.1910   36.6180 C.3   589  LEU589      0.0022
     25  CD1       21.3980   24.2920   35.8620 C.3   589  LEU589      0.0001
     26  CD2       19.4080   22.7690   35.8450 C.3   589  LEU589      0.0001
     27  N         24.8460   27.6700   41.4330 N.3   615  PHE615     -0.1227
     28  CA        23.6540   26.9370   41.0140 C.3   615  PHE615      0.1736
     29  C         22.9030   26.4590   42.2480 C.2   615  PHE615      0.2595
     30  O         23.4230   25.6660   43.0400 O.2   615  PHE615     -0.2718
     31  CB        24.0320   25.7710   40.0970 C.3   615  PHE615      0.0547
     32  CG        24.6860   26.2040   38.8260 C.ar  615  PHE615     -0.0202
     33  CD1       26.0100   26.5740   38.8220 C.ar  615  PHE615     -0.0042
     34  CD2       23.9730   26.2670   37.6430 C.ar  615  PHE615     -0.0042
     35  CE1       26.6160   27.0000   37.6550 C.ar  615  PHE615     -0.0003
     36  CE2       24.5730   26.6880   36.4720 C.ar  615  PHE615     -0.0003
     37  CZ        25.9060   27.0270   36.4740 C.ar  615  PHE615     -0.0000
     38  N         21.6770   26.9350   42.4020 N.am  616  VAL616     -0.1966
     39  CA        20.9670   26.8810   43.6720 C.3   616  VAL616      0.1727
     40  C         19.6450   26.1610   43.4610 C.2   616  VAL616      0.2616
     41  O         18.9450   26.4290   42.4830 O.2   616  VAL616     -0.2715
     42  CB        20.7100   28.3020   44.2200 C.3   616  VAL616      0.0290
     43  CG1       19.8960   28.2380   45.5200 C.3   616  VAL616      0.0023
     44  CG2       22.0120   29.0490   44.4160 C.3   616  VAL616      0.0023
     45  N         19.2740   25.2830   44.3860 N.am  617  THR617     -0.1951
     46  CA        17.8850   24.8410   44.4270 C.3   617  THR617      0.1897
     47  C         17.2760   25.2130   45.7700 C.2   617  THR617      0.2313
     48  O         17.9420   25.1880   46.8190 O.2   617  THR617     -0.2863
     49  CB        17.6880   23.3250   44.1440 C.3   617  THR617      0.1794
     50  OG1       17.1030   22.6670   45.2770 O.3   617  THR617     -0.2208
     51  CG2       18.9890   22.6870   43.8310 C.3   617  THR617      0.0378
     52  N         27.1190   22.9860   51.9690 N.3   660  LEU660     -0.1245
     53  CA        26.3830   23.4300   50.7970 C.3   660  LEU660      0.1561
     54  C         24.9460   23.8290   51.0890 C.2   660  LEU660      0.2260
     55  O         24.2250   24.1940   50.1530 O.2   660  LEU660     -0.2867
     56  CB        26.3670   22.3280   49.7410 C.3   660  LEU660      0.0270
     57  CG        27.6760   21.7670   49.2010 C.3   660  LEU660      0.0019
     58  CD1       27.3500   20.5370   48.3500 C.3   660  LEU660      0.0001
     59  CD2       28.4300   22.7930   48.4130 C.3   660  LEU660      0.0001
     60  N         20.1850   25.0280   48.6770 N.3   686  SER686     -0.1202
     61  CA        21.3010   24.1200   48.4420 C.3   686  SER686      0.2020
     62  C         22.1270   24.5380   47.2350 C.2   686  SER686      0.2619
     63  O         21.5830   24.7700   46.1490 O.2   686  SER686     -0.2717
     64  CB        20.8160   22.6830   48.2320 C.3   686  SER686      0.2103
     65  OG        20.1480   22.1960   49.3760 O.3   686  SER686     -0.2182
     66  N         23.4460   24.5730   47.4240 N.am  687  LEU687     -0.1965
     67  CA        24.3910   24.9660   46.3870 C.3   687  LEU687      0.1728
     68  C         24.9540   23.7420   45.6770 C.2   687  LEU687      0.2616
     69  O         25.4010   22.7880   46.3260 O.2   687  LEU687     -0.2715
     70  CB        25.5300   25.7770   46.9980 C.3   687  LEU687      0.0311
     71  CG        26.6320   26.1810   46.0260 C.3   687  LEU687      0.0022
     72  CD1       26.0560   27.2810   45.0890 C.3   687  LEU687      0.0001
     73  CD2       27.8630   26.6750   46.7420 C.3   687  LEU687      0.0001
     74  N         24.9440   23.7890   44.3490 N.am  688  HIS688     -0.1960
     75  CA        25.4880   22.7130   43.5350 C.3   688  HIS688      0.1772
     76  C         26.9870   22.5800   43.7530 C.2   688  HIS688      0.2462
     77  O         27.7110   23.5870   43.6860 O.2   688  HIS688     -0.2730
     78  CB        25.1760   22.9630   42.0540 C.3   688  HIS688      0.0785
     79  CG        25.3450   21.7580   41.1770 C.ar  688  HIS688      0.0821
     80  ND1       26.5690   21.1570   40.9770 N.ar  688  HIS688     -0.2267
     81  CD2       24.4640   21.0660   40.4130 C.ar  688  HIS688      0.1154
     82  CE1       26.4270   20.1280   40.1610 C.ar  688  HIS688      0.1986
     83  NE2       25.1540   20.0430   39.8120 N.ar  688  HIS688     -0.2212
     84  N         27.4910   21.3670   43.9970 N.am  689  PRO689     -0.2727
     85  CA        28.9200   21.2270   44.3030 C.3   689  PRO689      0.1402
     86  C         29.8580   21.7520   43.2260 C.2   689  PRO689      0.2269
     87  O         31.0060   22.0830   43.5430 O.2   689  PRO689     -0.2865
     88  CB        29.0920   19.7090   44.5010 C.3   689  PRO689      0.0296
     89  CG        27.8560   19.0580   43.9590 C.3   689  PRO689      0.0237
     90  CD        26.7740   20.0830   44.1750 C.3   689  PRO689      0.0939
@<TRIPOS>BOND
     1     9     7   ar
     2     9    11   ar
     3    26    24    1
     4    25    24    1
     5     7     6   ar
     6    11    10   ar
     7    36    37   ar
     8    36    34   ar
     9    37    35   ar
    10    24    23    1
    11    23    20    1
    12     6     5    1
    13     6     8   ar
    14    10     8   ar
    15    21    20    1
    16    21    22    2
    17    20    19    1
    18    34    32   ar
    19    35    33   ar
    20     5     2    1
    21     2     1    1
    22     2     3    1
    23    33    32   ar
    24    32    31    1
    25    15    14    2
    26    19    14   am
    27    14    13    1
    28    83    82   ar
    29    83    81   ar
    30     3     4    2
    31    31    28    1
    32    82    80   ar
    33    81    79   ar
    34    80    79   ar
    35    13    12    1
    36    13    16    1
    37    28    27    1
    38    28    29    1
    39    79    78    1
    40    12    18    1
    41    16    17    1
    42    78    75    1
    43    17    18    1
    44    29    38   am
    45    29    30    2
    46    38    39    1
    47    41    40    2
    48    86    87    2
    49    86    85    1
    50    40    39    1
    51    40    45   am
    52    75    76    1
    53    75    74    1
    54    39    42    1
    55    77    76    2
    56    76    84   am
    57    51    49    1
    58    89    90    1
    59    89    88    1
    60    84    90    1
    61    84    85    1
    62    49    46    1
    63    49    50    1
    64    42    44    1
    65    42    43    1
    66    85    88    1
    67    74    68   am
    68    45    46    1
    69    46    47    1
    70    72    71    1
    71    68    69    2
    72    68    67    1
    73    47    48    2
    74    71    73    1
    75    71    70    1
    76    63    62    2
    77    67    70    1
    78    67    66    1
    79    62    66   am
    80    62    61    1
    81    64    61    1
    82    64    65    1
    83    58    57    1
    84    59    57    1
    85    61    60    1
    86    57    56    1
    87    56    53    1
    88    55    54    2
    89    53    54    1
    90    53    52    1
