@<TRIPOS>MOLECULE
tmp/6d8aD00.pdb
 110 106 0 0 0
SMALL
GASTEIGER

@<TRIPOS>ATOM
      1  N         24.3380  -33.0690   38.2430 N.3     9  GLU9       -0.1245
      2  CA        25.6140  -33.7630   38.1280 C.3     9  GLU9        0.1567
      3  C         25.4610  -35.2090   38.5770 C.2     9  GLU9        0.2260
      4  O         24.7100  -35.5170   39.5080 O.2     9  GLU9       -0.2867
      5  CB        26.6800  -33.0370   38.9550 C.3     9  GLU9        0.0388
      6  CG        27.1290  -31.7500   38.2770 C.3     9  GLU9        0.1160
      7  CD        28.0800  -30.9210   39.1050 C.2     9  GLU9        0.3649
      8  OE1       28.2590  -31.1940   40.3030 O.co2   9  GLU9       -0.2457
      9  OE2       28.6580  -29.9720   38.5540 O.co2   9  GLU9       -0.2457
     10  N         28.0060  -33.7380   28.8930 N.3   140  TYR140     -0.1241
     11  CA        28.0680  -32.2850   28.8060 C.3   140  TYR140      0.1605
     12  C         29.4780  -31.8650   29.1870 C.2   140  TYR140      0.2264
     13  O         30.2400  -32.6480   29.7630 O.2   140  TYR140     -0.2867
     14  CB        27.0240  -31.5910   29.7000 C.3   140  TYR140      0.0534
     15  CG        27.2500  -31.7310   31.1850 C.ar  140  TYR140     -0.0201
     16  CD1       27.0180  -32.9360   31.8520 C.ar  140  TYR140     -0.0009
     17  CD2       27.6960  -30.6530   31.9210 C.ar  140  TYR140     -0.0009
     18  CE1       27.2340  -33.0450   33.2200 C.ar  140  TYR140      0.0417
     19  CE2       27.9280  -30.7560   33.2720 C.ar  140  TYR140      0.0417
     20  CZ        27.6840  -31.9450   33.9190 C.ar  140  TYR140      0.1957
     21  OH        27.8950  -32.0360   35.2680 O.3   140  TYR140     -0.2866
     22  N         31.3910  -29.1760   31.2730 N.3   142  PRO142     -0.2102
     23  CA        31.5280  -28.0440   32.2090 C.3   142  PRO142      0.1504
     24  C         32.5510  -27.0110   31.7670 C.2   142  PRO142      0.2575
     25  O         32.3870  -25.8160   32.0510 O.2   142  PRO142     -0.2718
     26  CB        31.9550  -28.7330   33.5190 C.3   142  PRO142      0.0282
     27  CG        32.5200  -30.0770   33.0850 C.3   142  PRO142      0.0208
     28  CD        31.6470  -30.4660   31.9410 C.3   142  PRO142      0.0893
     29  N         33.6210  -27.4420   31.1040 N.am  143  VAL143     -0.1980
     30  CA        34.6400  -26.5420   30.5820 C.3   143  VAL143      0.1595
     31  C         35.2620  -27.2240   29.3750 C.2   143  VAL143      0.2287
     32  O         35.2600  -28.4540   29.2760 O.2   143  VAL143     -0.2864
     33  CB        35.7310  -26.1990   31.6260 C.3   143  VAL143      0.0276
     34  CG1       35.1150  -25.8530   32.9680 C.3   143  VAL143      0.0022
     35  CG2       36.7250  -27.3520   31.7520 C.3   143  VAL143      0.0022
     36  N         31.4860  -34.5930   31.5270 N.3   148  ARG148     -0.1245
     37  CA        30.7980  -35.1730   32.6700 C.3   148  ARG148      0.1563
     38  C         29.4410  -35.6800   32.2080 C.2   148  ARG148      0.2260
     39  O         28.9910  -35.3890   31.0950 O.2   148  ARG148     -0.2867
     40  CB        30.6330  -34.1780   33.8270 C.3   148  ARG148      0.0307
     41  CG        31.8460  -34.0600   34.7190 C.3   148  ARG148      0.0489
     42  CD        31.5390  -33.2950   35.9980 C.3   148  ARG148      0.2205
     43  NE        32.0650  -31.9350   35.9610 N.pl3 148  ARG148     -0.0865
     44  CZ        31.9060  -31.0400   36.9310 C.cat 148  ARG148      0.5346
     45  NH1       31.2230  -31.3530   38.0320 N.pl3 148  ARG148      0.1354
     46  NH2       32.4350  -29.8290   36.7940 N.pl3 148  ARG148      0.1354
     47  N         24.8420  -32.0550   42.5340 N.3   289  ASP289     -0.1225
     48  CA        24.3330  -30.6950   42.4270 C.3   289  ASP289      0.1805
     49  C         23.7020  -30.4250   41.0650 C.2   289  ASP289      0.2598
     50  O         24.1340  -30.9490   40.0310 O.2   289  ASP289     -0.2718
     51  CB        25.4480  -29.6690   42.6530 C.3   289  ASP289      0.1424
     52  CG        25.5100  -29.1640   44.0780 C.2   289  ASP289      0.3668
     53  OD1       24.6430  -29.5130   44.8990 O.co2 289  ASP289     -0.2456
     54  OD2       26.4430  -28.3990   44.3780 O.co2 289  ASP289     -0.2456
     55  N         22.6830  -29.5660   41.0800 N.am  290  ARG290     -0.1966
     56  CA        22.1130  -29.0230   39.8600 C.3   290  ARG290      0.1729
     57  C         23.2050  -28.4790   38.9500 C.2   290  ARG290      0.2616
     58  O         24.1120  -27.7720   39.3980 O.2   290  ARG290     -0.2715
     59  CB        21.1290  -27.9030   40.2000 C.3   290  ARG290      0.0348
     60  CG        20.2090  -27.5640   39.0580 C.3   290  ARG290      0.0492
     61  CD        19.0750  -28.5730   38.9900 C.3   290  ARG290      0.2205
     62  NE        18.0340  -28.2120   39.9480 N.pl3 290  ARG290     -0.0865
     63  CZ        16.9980  -27.4280   39.6550 C.cat 290  ARG290      0.5346
     64  NH1       16.8580  -26.9430   38.4280 N.pl3 290  ARG290      0.1354
     65  NH2       16.0970  -27.1200   40.5810 N.pl3 290  ARG290      0.1354
     66  N         23.0890  -28.7870   37.6670 N.am  291  ILE291     -0.1963
     67  CA        23.9850  -28.2480   36.6530 C.3   291  ILE291      0.1727
     68  C         23.5630  -26.8290   36.3140 C.2   291  ILE291      0.2616
     69  O         22.3710  -26.5100   36.2430 O.2   291  ILE291     -0.2715
     70  CB        23.9820  -29.1630   35.4180 C.3   291  ILE291      0.0290
     71  CG1       24.4950  -30.5360   35.8520 C.3   291  ILE291      0.0022
     72  CG2       24.8130  -28.5570   34.3090 C.3   291  ILE291      0.0023
     73  CD1       24.3160  -31.6260   34.8280 C.3   291  ILE291      0.0001
     74  N         24.5520  -25.9610   36.1260 N.am  292  VAL292     -0.1963
     75  CA        24.3270  -24.5320   35.9600 C.3   292  VAL292      0.1727
     76  C         25.2320  -24.0800   34.8220 C.2   292  VAL292      0.2616
     77  O         26.2350  -24.7220   34.5070 O.2   292  VAL292     -0.2715
     78  CB        24.5770  -23.7720   37.2930 C.3   292  VAL292      0.0290
     79  CG1       25.9750  -23.2180   37.3770 C.3   292  VAL292      0.0023
     80  CG2       23.5000  -22.6930   37.4950 C.3   292  VAL292      0.0023
     81  N         24.8590  -22.9660   34.1950 N.am  293  PHE293     -0.1960
     82  CA        25.6760  -22.3300   33.1680 C.3   293  PHE293      0.1771
     83  C         26.0350  -20.9370   33.6550 C.2   293  PHE293      0.2620
     84  O         25.1470  -20.1000   33.8520 O.2   293  PHE293     -0.2715
     85  CB        24.9460  -22.2410   31.8280 C.3   293  PHE293      0.0574
     86  CG        24.3420  -23.5310   31.3820 C.ar  293  PHE293     -0.0200
     87  CD1       25.1300  -24.5430   30.8510 C.ar  293  PHE293     -0.0042
     88  CD2       22.9730  -23.7350   31.4830 C.ar  293  PHE293     -0.0042
     89  CE1       24.5490  -25.7410   30.4360 C.ar  293  PHE293     -0.0003
     90  CE2       22.4000  -24.9180   31.0640 C.ar  293  PHE293     -0.0003
     91  CZ        23.1900  -25.9210   30.5460 C.ar  293  PHE293     -0.0000
     92  N         27.3210  -20.6930   33.8700 N.am  294  SER294     -0.1950
     93  CA        27.7620  -19.3600   34.2540 C.3   294  SER294      0.1924
     94  C         29.2430  -19.2090   33.9290 C.2   294  SER294      0.2314
     95  O         29.9170  -20.1590   33.5200 O.2   294  SER294     -0.2863
     96  CB        27.5040  -19.0960   35.7400 C.3   294  SER294      0.2116
     97  OG        28.7240  -19.1710   36.4590 O.3   294  SER294     -0.2180
     98  N         34.9670  -21.3640   34.0940 N.3   299  ALA299     -0.1245
     99  CA        33.8810  -21.5930   33.1510 C.3   299  ALA299      0.1562
    100  C         33.5160  -20.3070   32.4190 C.2   299  ALA299      0.2260
    101  O         33.4420  -19.2340   33.0180 O.2   299  ALA299     -0.2867
    102  CB        32.6580  -22.1440   33.8850 C.3   299  ALA299      0.0290
    103  N         30.4970  -20.0800   30.2350 N.3   301  ASN301     -0.1240
    104  CA        29.4210  -20.9110   29.7080 C.3   301  ASN301      0.1653
    105  C         28.1310  -20.1690   29.3680 C.2   301  ASN301      0.2266
    106  O         27.1890  -20.8010   28.8750 O.2   301  ASN301     -0.2867
    107  CB        29.0940  -22.0350   30.7060 C.3   301  ASN301      0.1155
    108  CG        30.0600  -23.2020   30.6270 C.2   301  ASN301      0.2627
    109  OD1       30.7220  -23.4040   29.6130 O.2   301  ASN301     -0.2716
    110  ND2       30.1260  -23.9940   31.6980 N.am  301  ASN301     -0.0877
@<TRIPOS>BOND
     1    11    10    1
     2    11    12    1
     3    11    14    1
     4   106   105    2
     5    12    13    2
     6    32    31    2
     7   105   104    1
     8    31    30    1
     9   109   108    2
    10    14    15    1
    11   104   103    1
    12   104   107    1
    13    89    91   ar
    14    89    87   ar
    15    91    90   ar
    16    30    29    1
    17    30    33    1
    18   108   107    1
    19   108   110   am
    20    87    86   ar
    21    90    88   ar
    22    39    38    2
    23    29    24   am
    24    15    16   ar
    25    15    17   ar
    26    22    28    1
    27    22    23    1
    28    86    88   ar
    29    86    85    1
    30    36    37    1
    31    33    35    1
    32    33    34    1
    33    24    25    2
    34    24    23    1
    35    85    82    1
    36    16    18   ar
    37    17    19   ar
    38    28    27    1
    39    38    37    1
    40    23    26    1
    41   100   101    2
    42   100    99    1
    43    37    40    1
    44    27    26    1
    45    99   102    1
    46    99    98    1
    47    82    83    1
    48    82    81    1
    49    18    20   ar
    50    19    20   ar
    51    95    94    2
    52    83    84    2
    53    83    92   am
    54    40    41    1
    55    92    93    1
    56    20    21    1
    57    94    93    1
    58    81    76   am
    59    93    96    1
    60    72    70    1
    61    77    76    2
    62    41    42    1
    63    76    75    1
    64    73    71    1
    65    70    71    1
    66    70    67    1
    67    96    97    1
    68    75    74    1
    69    75    78    1
    70    43    42    1
    71    43    44    2
    72    74    68   am
    73    69    68    2
    74    68    67    1
    75    67    66    1
    76    46    44    1
    77    44    45    1
    78    78    79    1
    79    78    80    1
    80    66    57   am
    81     2     1    1
    82     2     3    1
    83     2     5    1
    84     6     5    1
    85     6     7    1
    86    64    63    1
    87     9     7   ar
    88     3     4    2
    89    57    58    2
    90    57    56    1
    91    61    60    1
    92    61    62    1
    93    60    59    1
    94     7     8   ar
    95    63    62    2
    96    63    65    1
    97    56    59    1
    98    56    55    1
    99    50    49    2
   100    49    55   am
   101    49    48    1
   102    48    47    1
   103    48    51    1
   104    51    52    1
   105    52    54   ar
   106    52    53   ar
