@<TRIPOS>MOLECULE
tmp/6d8eA00.pdb
 198 187 0 0 0
SMALL
GASTEIGER

@<TRIPOS>ATOM
      1  N          3.9080  -46.2710   19.5860 N.3    23  LEU23      -0.1231
      2  CA         2.7080  -46.9780   19.1730 C.3    23  LEU23       0.1696
      3  C          1.4570  -46.1750   19.4960 C.2    23  LEU23       0.2631
      4  O          0.4430  -46.3300   18.8140 O.2    23  LEU23      -0.2714
      5  CB         2.6390  -48.3590   19.8370 C.3    23  LEU23       0.0284
      6  CG         3.6630  -49.3920   19.3630 C.3    23  LEU23       0.0019
      7  CD1        3.4410  -50.7000   20.0730 C.3    23  LEU23       0.0001
      8  CD2        3.5270  -49.5990   17.8940 C.3    23  LEU23       0.0001
      9  N          1.4980  -45.3160   20.5180 N.am   24  GLY24      -0.1732
     10  CA         0.2960  -44.6120   20.9300 C.2    24  GLY24       0.1340
     11  C          0.4660  -43.6950   22.1180 C.2    24  GLY24       0.2521
     12  O          1.3120  -43.9400   22.9810 O.2    24  GLY24      -0.2816
     13  N          2.7630  -45.3960   24.8660 N.3    31  VAL31      -0.1245
     14  CA         3.1810  -46.7730   24.6560 C.3    31  VAL31       0.1561
     15  C          4.1600  -46.7830   23.4920 C.2    31  VAL31       0.2260
     16  O          3.8290  -46.3370   22.3870 O.2    31  VAL31      -0.2867
     17  CB         1.9830  -47.6950   24.3880 C.3    31  VAL31       0.0252
     18  CG1        2.4500  -49.1100   24.1710 C.3    31  VAL31       0.0019
     19  CG2        1.0250  -47.6470   25.5390 C.3    31  VAL31       0.0019
     20  N          6.6050  -54.0200   24.0120 N.3    48  ALA48      -0.1245
     21  CA         5.8890  -52.7560   24.1680 C.3    48  ALA48       0.1562
     22  C          6.1700  -52.1590   25.5510 C.2    48  ALA48       0.2260
     23  O          6.1940  -52.8780   26.5610 O.2    48  ALA48      -0.2867
     24  CB         4.3790  -52.9430   23.9920 C.3    48  ALA48       0.0290
     25  N          5.0240  -49.0890   28.1950 N.3    50  LYS50      -0.1245
     26  CA         4.0330  -48.0890   28.5650 C.3    50  LYS50       0.1561
     27  C          4.5320  -47.3210   29.7870 C.2    50  LYS50       0.2260
     28  O          4.6190  -47.8890   30.8820 O.2    50  LYS50      -0.2867
     29  CB         2.6940  -48.7620   28.8460 C.3    50  LYS50       0.0271
     30  CG         1.6060  -47.8470   29.3570 C.3    50  LYS50       0.0035
     31  CD         0.7100  -48.6210   30.2990 C.3    50  LYS50       0.0206
     32  CE        -0.7060  -48.1270   30.2450 C.3    50  LYS50       0.1093
     33  NZ        -1.5480  -48.9790   31.0990 N.3    50  LYS50      -0.1314
     34  N         -2.2650  -52.5540   37.4280 N.3    63  GLU63      -0.1245
     35  CA        -2.2200  -53.3380   36.2050 C.3    63  GLU63       0.1567
     36  C         -1.0240  -54.2740   36.1990 C.2    63  GLU63       0.2260
     37  O         -1.1350  -55.4300   35.7760 O.2    63  GLU63      -0.2867
     38  CB        -2.1760  -52.4190   34.9910 C.3    63  GLU63       0.0388
     39  CG        -2.1190  -53.1950   33.7130 C.3    63  GLU63       0.1160
     40  CD        -2.2670  -52.3210   32.5030 C.2    63  GLU63       0.3649
     41  OE1       -1.9250  -51.1210   32.6040 O.co2  63  GLU63      -0.2457
     42  OE2       -2.7280  -52.8440   31.4560 O.co2  63  GLU63      -0.2457
     43  N         -1.0660  -58.2870   35.5660 N.3    67  MET67      -0.1245
     44  CA        -0.2710  -58.8280   34.4630 C.3    67  MET67       0.1570
     45  C          0.9080  -59.6880   34.9220 C.2    67  MET67       0.2261
     46  O          1.4150  -60.4980   34.1350 O.2    67  MET67      -0.2867
     47  CB         0.2580  -57.6950   33.5920 C.3    67  MET67       0.0387
     48  CG        -0.7650  -57.0410   32.6820 C.3    67  MET67       0.0595
     49  SD         0.0340  -55.9500   31.4740 S.3    67  MET67      -0.1393
     50  CE         0.8980  -57.1940   30.5030 C.3    67  MET67       0.0692
     51  N         -1.9610  -61.7400   27.8370 N.3    76  CYS76      -0.1235
     52  CA        -0.7220  -60.9650   27.8880 C.3    76  CYS76       0.1677
     53  C         -0.1580  -60.9600   29.3050 C.2    76  CYS76       0.2270
     54  O         -0.8740  -60.6690   30.2690 O.2    76  CYS76      -0.2867
     55  CB        -0.9640  -59.5250   27.4320 C.3    76  CYS76       0.0956
     56  SG        -1.4930  -59.3130   25.6980 S.3    76  CYS76      -0.0801
     57  N          3.0100  -59.5670   31.9750 N.3    78  LEU78      -0.1245
     58  CA         4.0190  -58.5410   32.2020 C.3    78  LEU78       0.1561
     59  C          5.4150  -59.1470   32.1090 C.2    78  LEU78       0.2260
     60  O          5.6830  -60.1960   32.6890 O.2    78  LEU78      -0.2867
     61  CB         3.8100  -57.8880   33.5680 C.3    78  LEU78       0.0270
     62  CG         4.6470  -56.6280   33.8480 C.3    78  LEU78       0.0019
     63  CD1        3.9470  -55.3420   33.3700 C.3    78  LEU78       0.0001
     64  CD2        4.9640  -56.5430   35.3300 C.3    78  LEU78       0.0001
     65  N          5.8810  -49.9050   32.3540 N.3    89  LEU89      -0.1231
     66  CA         5.5160  -51.2990   32.1780 C.3    89  LEU89       0.1693
     67  C          6.1000  -51.8340   30.8730 C.2    89  LEU89       0.2592
     68  O          6.0290  -51.1710   29.8350 O.2    89  LEU89      -0.2718
     69  CB         4.0000  -51.4520   32.1810 C.3    89  LEU89       0.0284
     70  CG         3.3290  -50.9490   33.4490 C.3    89  LEU89       0.0019
     71  CD1        1.8590  -51.3880   33.5230 C.3    89  LEU89       0.0001
     72  CD2        4.1120  -51.4430   34.6430 C.3    89  LEU89       0.0001
     73  N          6.6900  -53.0320   30.9350 N.am   90  ILE90      -0.1966
     74  CA         7.2050  -53.7130   29.7550 C.3    90  ILE90       0.1727
     75  C          6.4570  -55.0290   29.5470 C.2    90  ILE90       0.2617
     76  O          6.3320  -55.8470   30.4730 O.2    90  ILE90      -0.2715
     77  CB         8.7200  -53.9500   29.8430 C.3    90  ILE90       0.0290
     78  CG1        9.4320  -52.6200   30.1070 C.3    90  ILE90       0.0022
     79  CG2        9.2270  -54.6100   28.5390 C.3    90  ILE90       0.0023
     80  CD1        9.8990  -52.4810   31.5320 C.3    90  ILE90       0.0001
     81  N          5.9810  -55.2360   28.3140 N.am   91  THR91      -0.1937
     82  CA         5.2880  -56.4540   27.9220 C.3    91  THR91       0.2028
     83  C          5.7430  -56.8760   26.5300 C.2    91  THR91       0.2642
     84  O          6.3450  -56.0990   25.7880 O.2    91  THR91      -0.2714
     85  CB         3.7570  -56.2680   27.9280 C.3    91  THR91       0.1808
     86  OG1        3.1140  -57.5500   27.8560 O.3    91  THR91      -0.2208
     87  CG2        3.3170  -55.3990   26.7420 C.3    91  THR91       0.0379
     88  N          5.4270  -58.1270   26.1900 N.am   92  GLN92      -0.1963
     89  CA         5.6590  -58.6610   24.8530 C.3    92  GLN92       0.1733
     90  C          4.9770  -57.8020   23.7980 C.2    92  GLN92       0.2616
     91  O          3.8000  -57.4480   23.9240 O.2    92  GLN92      -0.2715
     92  CB         5.1380  -60.1010   24.7780 C.3    92  GLN92       0.0408
     93  CG         5.0640  -60.7020   23.3920 C.3    92  GLN92       0.0908
     94  CD         4.6220  -62.1830   23.3880 C.2    92  GLN92       0.2608
     95  OE1        3.6080  -62.5450   23.9850 O.2    92  GLN92      -0.2717
     96  NE2        5.3910  -63.0340   22.7080 N.am   92  GLN92      -0.0878
     97  N          5.7200  -57.4790   22.7450 N.am   93  LEU93      -0.1963
     98  CA         5.1600  -56.7220   21.6280 C.3    93  LEU93       0.1728
     99  C          4.1900  -57.5890   20.8260 C.2    93  LEU93       0.2616
    100  O          4.5590  -58.6690   20.3560 O.2    93  LEU93      -0.2715
    101  CB         6.2840  -56.2280   20.7260 C.3    93  LEU93       0.0311
    102  CG         5.7220  -55.6260   19.4500 C.3    93  LEU93       0.0022
    103  CD1        5.1270  -54.2810   19.7890 C.3    93  LEU93       0.0001
    104  CD2        6.7880  -55.5100   18.4120 C.3    93  LEU93       0.0001
    105  N          2.9530  -57.1270   20.6700 N.am   94  MET94      -0.1964
    106  CA         2.0020  -57.8130   19.7910 C.3    94  MET94       0.1722
    107  C          2.0550  -57.1830   18.4050 C.2    94  MET94       0.2458
    108  O          1.3440  -56.2060   18.1430 O.2    94  MET94      -0.2730
    109  CB         0.5840  -57.7490   20.3520 C.3    94  MET94       0.0427
    110  CG         0.4480  -58.3900   21.7340 C.3    94  MET94       0.0599
    111  SD         0.2860  -60.1870   21.6430 S.3    94  MET94      -0.1393
    112  CE         1.9800  -60.7060   21.7720 C.3    94  MET94       0.0692
    113  N          2.8580  -57.7360   17.4930 N.am   95  PRO95      -0.2716
    114  CA         3.2190  -56.9970   16.2720 C.3    95  PRO95       0.1536
    115  C          2.0520  -56.4600   15.4730 C.2    95  PRO95       0.2599
    116  O          2.1890  -55.3960   14.8650 O.2    95  PRO95      -0.2715
    117  CB         4.0090  -58.0350   15.4740 C.3    95  PRO95       0.0310
    118  CG         4.5580  -58.9720   16.5440 C.3    95  PRO95       0.0237
    119  CD         3.4840  -59.0710   17.5450 C.3    95  PRO95       0.0939
    120  N          0.9010  -57.1240   15.4620 N.am   96  PHE96      -0.1960
    121  CA        -0.1560  -56.7620   14.5310 C.3    96  PHE96       0.1771
    122  C         -1.2550  -55.9360   15.1800 C.2    96  PHE96       0.2620
    123  O         -2.3370  -55.7840   14.5940 O.2    96  PHE96      -0.2715
    124  CB        -0.7480  -58.0090   13.8850 C.3    96  PHE96       0.0574
    125  CG         0.2220  -58.7760   13.0400 C.ar   96  PHE96      -0.0200
    126  CD1        0.2140  -58.6450   11.6710 C.ar   96  PHE96      -0.0042
    127  CD2        1.1130  -59.6650   13.6130 C.ar   96  PHE96      -0.0042
    128  CE1        1.0860  -59.3700   10.8920 C.ar   96  PHE96      -0.0003
    129  CE2        2.0040  -60.3920   12.8260 C.ar   96  PHE96      -0.0003
    130  CZ         1.9850  -60.2410   11.4680 C.ar   96  PHE96      -0.0000
    131  N         -0.9930  -55.3830   16.3600 N.am   97  GLY97      -0.1940
    132  CA        -1.9390  -54.4900   16.9730 C.3    97  GLY97       0.2014
    133  C         -3.1390  -55.2410   17.4960 C.2    97  GLY97       0.2639
    134  O         -3.1120  -56.4600   17.6900 O.2    97  GLY97      -0.2714
    135  N         -4.2100  -54.4870   17.7340 N.am   98  CYS98      -0.1967
    136  CA        -5.4260  -55.0500   18.2990 C.3    98  CYS98       0.1712
    137  C         -6.2650  -55.7130   17.2150 C.2    98  CYS98       0.2296
    138  O         -6.1520  -55.4010   16.0230 O.2    98  CYS98      -0.2864
    139  CB        -6.2500  -53.9800   19.0070 C.3    98  CYS98       0.0983
    140  SG        -6.7300  -52.6620   17.8970 S.3    98  CYS98      -0.0798
    141  N         -9.5860  -55.5980   16.8610 N.3   100  LEU100     -0.1231
    142  CA       -10.5600  -54.6760   16.2870 C.3   100  LEU100      0.1693
    143  C        -10.0230  -54.0260   15.0130 C.2   100  LEU100      0.2592
    144  O        -10.6230  -54.1360   13.9360 O.2   100  LEU100     -0.2718
    145  CB       -10.9560  -53.6110   17.3110 C.3   100  LEU100      0.0284
    146  CG       -12.0470  -52.6280   16.8380 C.3   100  LEU100      0.0019
    147  CD1      -13.1900  -53.3710   16.1790 C.3   100  LEU100      0.0001
    148  CD2      -12.5890  -51.7580   17.9920 C.3   100  LEU100      0.0001
    149  N         -8.8760  -53.3630   15.1120 N.am  101  ASP101     -0.1974
    150  CA        -8.3250  -52.7090   13.9300 C.3   101  ASP101      0.1709
    151  C         -7.9070  -53.7280   12.8810 C.2   101  ASP101      0.2293
    152  O         -8.0020  -53.4600   11.6800 O.2   101  ASP101     -0.2864
    153  CB        -7.1350  -51.8160   14.3110 C.3   101  ASP101      0.1436
    154  CG        -7.5420  -50.6140   15.1510 C.2   101  ASP101      0.3671
    155  OD1       -8.7440  -50.2710   15.1570 O.co2 101  ASP101     -0.2456
    156  OD2       -6.6590  -50.0050   15.8030 O.co2 101  ASP101     -0.2456
    157  N        -11.2020  -54.5850   20.9960 N.3   142  ARG142     -0.1231
    158  CA       -10.0610  -53.6690   21.0320 C.3   142  ARG142      0.1694
    159  C         -9.0420  -54.0530   22.0850 C.2   142  ARG142      0.2592
    160  O         -7.8700  -53.7070   21.9420 O.2   142  ARG142     -0.2718
    161  CB       -10.5000  -52.2320   21.2970 C.3   142  ARG142      0.0321
    162  CG       -11.1090  -52.0760   22.6550 C.3   142  ARG142      0.0489
    163  CD       -11.5660  -50.6680   22.9190 C.3   142  ARG142      0.2205
    164  NE       -11.9340  -50.6170   24.3170 N.pl3 142  ARG142     -0.0865
    165  CZ       -13.1460  -50.9060   24.7770 C.cat 142  ARG142      0.5346
    166  NH1      -13.3760  -50.8630   26.0860 N.pl3 142  ARG142      0.1354
    167  NH2      -14.1340  -51.2140   23.9370 N.pl3 142  ARG142      0.1354
    168  N         -9.4640  -54.7510   23.1340 N.am  143  ASN143     -0.1974
    169  CA        -8.5660  -55.2900   24.1410 C.3   143  ASN143      0.1688
    170  C         -8.1980  -56.7430   23.8650 C.2   143  ASN143      0.2292
    171  O         -7.9430  -57.5140   24.7970 O.2   143  ASN143     -0.2864
    172  CB        -9.1830  -55.1570   25.5300 C.3   143  ASN143      0.1181
    173  CG        -9.4990  -53.7190   25.8900 C.2   143  ASN143      0.2629
    174  OD1       -8.7910  -52.7930   25.4870 O.2   143  ASN143     -0.2716
    175  ND2      -10.5770  -53.5240   26.6450 N.am  143  ASN143     -0.0877
    176  N         -5.2630  -58.5500   21.5030 N.3   145  LEU145     -0.1245
    177  CA        -4.1130  -58.2230   20.6730 C.3   145  LEU145      0.1561
    178  C         -3.6990  -59.4200   19.8360 C.2   145  LEU145      0.2260
    179  O         -3.9850  -60.5710   20.1720 O.2   145  LEU145     -0.2867
    180  CB        -2.9290  -57.7320   21.5060 C.3   145  LEU145      0.0270
    181  CG        -3.2680  -56.4400   22.2580 C.3   145  LEU145      0.0019
    182  CD1       -2.0700  -55.8760   23.0020 C.3   145  LEU145      0.0001
    183  CD2       -3.8570  -55.3860   21.3170 C.3   145  LEU145      0.0001
    184  N         -5.9180  -58.7580   26.5880 N.3   155  THR155     -0.1203
    185  CA        -5.1500  -57.7480   27.2040 C.3   155  THR155      0.1994
    186  C         -5.9820  -56.7890   27.9820 C.2   155  THR155      0.2617
    187  O         -7.0790  -57.0710   28.2490 O.2   155  THR155     -0.2717
    188  CB        -4.3410  -57.0450   26.1820 C.3   155  THR155      0.1784
    189  OG1       -3.4920  -56.1460   26.8400 O.3   155  THR155     -0.2211
    190  CG2       -5.1790  -56.3050   25.2960 C.3   155  THR155      0.0376
    191  N         -5.3940  -55.7150   28.4720 N.am  156  ASP156     -0.1973
    192  CA        -6.0320  -54.6490   29.2350 C.3   156  ASP156      0.1709
    193  C         -6.6560  -54.7640   30.5670 C.2   156  ASP156      0.2293
    194  O         -7.8090  -54.6350   30.7140 O.2   156  ASP156     -0.2864
    195  CB        -6.9830  -53.8690   28.4050 C.3   156  ASP156      0.1436
    196  CG        -6.7360  -52.4310   28.4570 C.2   156  ASP156      0.3671
    197  OD1       -7.3050  -51.7600   29.3210 O.co2 156  ASP156     -0.2456
    198  OD2       -5.9970  -51.9580   27.5940 O.co2 156  ASP156     -0.2456
@<TRIPOS>BOND
     1   128   130   ar
     2   128   126   ar
     3   130   129   ar
     4   126   125   ar
     5   152   151    2
     6   129   127   ar
     7   151   150    1
     8   125   127   ar
     9   125   124    1
    10   124   121    1
    11   150   153    1
    12   150   149    1
    13   144   143    2
    14   153   154    1
    15   121   122    1
    16   121   120    1
    17   123   122    2
    18   116   115    2
    19   143   149   am
    20   143   142    1
    21   154   155   ar
    22   154   156   ar
    23   122   131   am
    24   120   115   am
    25   115   114    1
    26   117   114    1
    27   117   118    1
    28   138   137    2
    29   147   146    1
    30   114   113    1
    31   142   141    1
    32   142   145    1
    33   131   132    1
    34   118   119    1
    35   146   145    1
    36   146   148    1
    37   132   133    1
    38   137   136    1
    39   113   119    1
    40   113   107   am
    41   133   134    2
    42   133   135   am
    43   135   136    1
    44     8     6    1
    45   140   139    1
    46   108   107    2
    47   136   139    1
    48   107   106    1
    49   104   102    1
    50     4     3    2
    51     2     3    1
    52     2     1    1
    53     2     5    1
    54     6     5    1
    55     6     7    1
    56   102   103    1
    57   102   101    1
    58     3     9    1
    59   106   109    1
    60   106   105    1
    61   178   179    2
    62   178   177    1
    63   109   110    1
    64   100    99    2
    65     9    10    2
    66   105    99   am
    67   177   176    1
    68   177   180    1
    69   101    98    1
    70    99    98    1
    71    10    11    1
    72   157   158    1
    73   158   161    1
    74   158   159    1
    75   161   162    1
    76   183   181    1
    77   180   181    1
    78    98    97    1
    79   111   110    1
    80   111   112    1
    81   160   159    2
    82   159   168   am
    83    11    12    2
    84   181   182    1
    85    16    15    2
    86   162   163    1
    87    96    94   am
    88    97    90   am
    89   163   164    1
    90   168   169    1
    91    94    93    1
    92    94    95    2
    93    93    92    1
    94    15    14    1
    95    90    91    2
    96    90    89    1
    97   170   169    1
    98   170   171    2
    99   167   165    1
   100    24    21    1
   101    20    21    1
   102   169   172    1
   103    21    22    1
   104    18    17    1
   105   164   165    2
   106    17    14    1
   107    17    19    1
   108    14    13    1
   109   165   166    1
   110    92    89    1
   111    89    88    1
   112   190   188    1
   113   174   173    2
   114   172   173    1
   115    22    23    2
   116    56    55    1
   117    84    83    2
   118   173   175   am
   119   188   189    1
   120   188   185    1
   121    88    83   am
   122    83    82    1
   123   184   185    1
   124    87    85    1
   125   185   186    1
   126    55    52    1
   127   198   196   ar
   128    51    52    1
   129    86    85    1
   130    52    53    1
   131    82    85    1
   132    82    81    1
   133   186   187    2
   134   186   191   am
   135    25    26    1
   136    81    75   am
   137   195   196    1
   138   195   192    1
   139   196   197   ar
   140   191   192    1
   141    79    77    1
   142    26    29    1
   143    26    27    1
   144    29    30    1
   145   192   193    1
   146    53    54    2
   147    30    31    1
   148    75    74    1
   149    75    76    2
   150    74    77    1
   151    74    73    1
   152    27    28    2
   153    68    67    2
   154    77    78    1
   155    78    80    1
   156    32    31    1
   157    32    33    1
   158    50    49    1
   159   193   194    2
   160    67    73   am
   161    67    66    1
   162    42    40   ar
   163    49    48    1
   164    57    58    1
   165    59    58    1
   166    59    60    2
   167    66    69    1
   168    66    65    1
   169    69    70    1
   170    58    61    1
   171    40    41   ar
   172    40    39    1
   173    48    47    1
   174    63    62    1
   175    70    71    1
   176    70    72    1
   177    61    62    1
   178    47    44    1
   179    39    38    1
   180    62    64    1
   181    46    45    2
   182    44    45    1
   183    44    43    1
   184    38    35    1
   185    37    36    2
   186    36    35    1
   187    35    34    1
