@<TRIPOS>MOLECULE
tmp/6d8fA00.pdb
 91 87 0 0 0
SMALL
GASTEIGER

@<TRIPOS>ATOM
      1  N        -22.9230   -0.3440   66.1730 N.3    89  LEU89      -0.1245
      2  CA       -24.3070    0.0400   66.4450 C.3    89  LEU89       0.1561
      3  C        -25.2340   -1.0480   65.9000 C.2    89  LEU89       0.2260
      4  O        -26.0640   -0.8030   65.0110 O.2    89  LEU89      -0.2867
      5  CB       -24.6300    1.4000   65.8360 C.3    89  LEU89       0.0270
      6  CG       -24.4350    2.5950   66.7840 C.3    89  LEU89       0.0019
      7  CD1      -22.9990    2.6940   67.2370 C.3    89  LEU89       0.0001
      8  CD2      -24.8740    3.8720   66.1150 C.3    89  LEU89       0.0001
      9  N        -29.0640   -0.4740   65.3790 N.3    92  TYR92      -0.1241
     10  CA       -29.4950    0.6160   64.4970 C.3    92  TYR92       0.1605
     11  C        -29.1770    0.1380   63.0920 C.2    92  TYR92       0.2264
     12  O        -28.0140    0.1450   62.6660 O.2    92  TYR92      -0.2867
     13  CB       -28.8100    1.9240   64.8510 C.3    92  TYR92       0.0534
     14  CG       -29.1840    2.4370   66.2250 C.ar   92  TYR92      -0.0201
     15  CD1      -28.6240    1.8780   67.3600 C.ar   92  TYR92      -0.0009
     16  CD2      -30.0810    3.4870   66.3810 C.ar   92  TYR92      -0.0009
     17  CE1      -28.9650    2.3330   68.6270 C.ar   92  TYR92       0.0417
     18  CE2      -30.4300    3.9540   67.6480 C.ar   92  TYR92       0.0417
     19  CZ       -29.8730    3.3670   68.7650 C.ar   92  TYR92       0.1957
     20  OH       -30.2040    3.8240   70.0180 O.3    92  TYR92      -0.2866
     21  N        -28.8540    5.8910   59.7750 N.3   102  PHE102     -0.1241
     22  CA       -29.8030    5.0630   60.5250 C.3   102  PHE102      0.1605
     23  C        -30.8820    5.9380   61.1300 C.2   102  PHE102      0.2264
     24  O        -30.7930    7.1600   61.1120 O.2   102  PHE102     -0.2867
     25  CB       -29.0840    4.2280   61.5920 C.3   102  PHE102      0.0534
     26  CG       -28.2290    5.0350   62.5290 C.ar  102  PHE102     -0.0203
     27  CD1      -26.9310    5.3640   62.1960 C.ar  102  PHE102     -0.0042
     28  CD2      -28.7230    5.4350   63.7460 C.ar  102  PHE102     -0.0042
     29  CE1      -26.1450    6.0810   63.0640 C.ar  102  PHE102     -0.0003
     30  CE2      -27.9400    6.1640   64.6300 C.ar  102  PHE102     -0.0003
     31  CZ       -26.6470    6.4860   64.2880 C.ar  102  PHE102     -0.0000
     32  N        -33.6390    6.9500   64.3470 N.3   104  ALA104     -0.1231
     33  CA       -33.9500    6.8850   65.7700 C.3   104  ALA104      0.1694
     34  C        -34.9320    5.7480   66.0280 C.2   104  ALA104      0.2591
     35  O        -35.9030    5.5560   65.2850 O.2   104  ALA104     -0.2718
     36  CB       -34.5520    8.2040   66.2520 C.3   104  ALA104      0.0304
     37  N        -34.6840    4.9970   67.1050 N.am  105  GLN105     -0.1979
     38  CA       -35.4720    3.7950   67.3590 C.3   105  GLN105      0.1601
     39  C        -36.8830    4.0820   67.8680 C.2   105  GLN105      0.2287
     40  O        -37.8070    3.3450   67.5250 O.2   105  GLN105     -0.2864
     41  CB       -34.7400    2.9030   68.3560 C.3   105  GLN105      0.0394
     42  CG       -34.2320    1.6110   67.7030 C.3   105  GLN105      0.0908
     43  CD       -32.9620    1.1130   68.3490 C.2   105  GLN105      0.2608
     44  OE1      -32.7020    1.3670   69.5350 O.2   105  GLN105     -0.2717
     45  NE2      -32.1500    0.4160   67.5710 N.am  105  GLN105     -0.0878
     46  N        -30.0000    9.8090   61.3740 N.3   133  PHE133     -0.1241
     47  CA       -28.6360   10.1620   61.7380 C.3   133  PHE133      0.1605
     48  C        -27.6680    9.5480   60.7470 C.2   133  PHE133      0.2264
     49  O        -27.9000    8.4560   60.2340 O.2   133  PHE133     -0.2867
     50  CB       -28.2800    9.6800   63.1490 C.3   133  PHE133      0.0534
     51  CG       -29.1490   10.2340   64.2290 C.ar  133  PHE133     -0.0203
     52  CD1      -30.3330    9.6020   64.6010 C.ar  133  PHE133     -0.0042
     53  CD2      -28.7770   11.3650   64.9080 C.ar  133  PHE133     -0.0042
     54  CE1      -31.1220   10.1110   65.6140 C.ar  133  PHE133     -0.0003
     55  CE2      -29.5570   11.8850   65.9010 C.ar  133  PHE133     -0.0003
     56  CZ       -30.7340   11.2660   66.2540 C.ar  133  PHE133     -0.0000
     57  N        -27.8280   16.9180   70.6030 N.3   264  ALA264     -0.1245
     58  CA       -27.9510   15.6410   69.9160 C.3   264  ALA264      0.1562
     59  C        -26.5980   15.1090   69.5220 C.2   264  ALA264      0.2260
     60  O        -26.3200   13.9210   69.7100 O.2   264  ALA264     -0.2867
     61  CB       -28.8530   15.7710   68.6860 C.3   264  ALA264      0.0290
     62  N        -24.7990   13.8680   72.6550 N.3   267  ARG267     -0.1231
     63  CA       -25.2940   12.5630   73.0710 C.3   267  ARG267      0.1694
     64  C        -24.8580   11.4630   72.1290 C.2   267  ARG267      0.2591
     65  O        -24.6140   10.3370   72.5590 O.2   267  ARG267     -0.2718
     66  CB       -26.8140   12.5960   73.1800 C.3   267  ARG267      0.0321
     67  CG       -27.3320   13.4880   74.3220 C.3   267  ARG267      0.0489
     68  CD       -28.8530   13.4050   74.4840 C.3   267  ARG267      0.2205
     69  NE       -29.5380   14.5150   73.8340 N.pl3 267  ARG267     -0.0865
     70  CZ       -30.2060   14.4310   72.6800 C.cat 267  ARG267      0.5346
     71  NH1      -30.3210   13.2780   72.0290 N.pl3 267  ARG267      0.1354
     72  NH2      -30.7790   15.5130   72.1900 N.pl3 267  ARG267      0.1354
     73  N        -24.7190   11.7690   70.8370 N.am  268  MET268     -0.1979
     74  CA       -24.2040   10.7690   69.9050 C.3   268  MET268      0.1605
     75  C        -22.7550   10.4210   70.2230 C.2   268  MET268      0.2287
     76  O        -22.3530    9.2550   70.1430 O.2   268  MET268     -0.2864
     77  CB       -24.2970   11.2620   68.4680 C.3   268  MET268      0.0413
     78  CG       -23.8680   10.2420   67.4590 C.3   268  MET268      0.0598
     79  SD       -25.1000    8.8680   67.3490 S.3   268  MET268     -0.1393
     80  CE       -24.0400    7.5090   66.9440 C.3   268  MET268      0.0692
     81  N        -22.5790    8.2700   73.3810 N.3   271  PHE271     -0.1241
     82  CA       -22.9590    6.8920   73.0980 C.3   271  PHE271      0.1605
     83  C        -21.8630    6.1690   72.3270 C.2   271  PHE271      0.2264
     84  O        -21.5860    4.9860   72.5740 O.2   271  PHE271     -0.2867
     85  CB       -24.2870    6.8970   72.3320 C.3   271  PHE271      0.0534
     86  CG       -24.7680    5.5360   71.9130 C.ar  271  PHE271     -0.0203
     87  CD1      -25.5010    4.7480   72.7880 C.ar  271  PHE271     -0.0042
     88  CD2      -24.5190    5.0630   70.6360 C.ar  271  PHE271     -0.0042
     89  CE1      -25.9490    3.5000   72.4060 C.ar  271  PHE271     -0.0003
     90  CE2      -24.9730    3.8100   70.2460 C.ar  271  PHE271     -0.0003
     91  CZ       -25.6870    3.0240   71.1340 C.ar  271  PHE271     -0.0000
@<TRIPOS>BOND
     1    21    22    1
     2    49    48    2
     3    22    23    1
     4    22    25    1
     5    48    47    1
     6    24    23    2
     7    46    47    1
     8    25    26    1
     9    47    50    1
    10    27    26   ar
    11    27    29   ar
    12    26    28   ar
    13    12    11    2
    14    29    31   ar
    15    11    10    1
    16    50    51    1
    17    28    30   ar
    18    51    52   ar
    19    51    53   ar
    20    31    30   ar
    21    32    33    1
    22    10    13    1
    23    10     9    1
    24    52    54   ar
    25    13    14    1
    26    53    55   ar
    27     4     3    2
    28    35    34    2
    29    54    56   ar
    30    33    34    1
    31    33    36    1
    32     5     2    1
    33     5     6    1
    34     3     2    1
    35    55    56   ar
    36    34    37   am
    37     8     6    1
    38     1     2    1
    39    14    16   ar
    40    14    15   ar
    41    16    18   ar
    42     6     7    1
    43    80    79    1
    44    37    38    1
    45    79    78    1
    46    38    39    1
    47    38    41    1
    48    15    17   ar
    49    78    77    1
    50    40    39    2
    51    45    43   am
    52    18    19   ar
    53    42    43    1
    54    42    41    1
    55    43    44    2
    56    77    74    1
    57    17    19   ar
    58    61    58    1
    59    19    20    1
    60    59    60    2
    61    59    58    1
    62    74    75    1
    63    74    73    1
    64    58    57    1
    65    76    75    2
    66    90    88   ar
    67    90    91   ar
    68    88    86   ar
    69    73    64   am
    70    91    89   ar
    71    86    85    1
    72    86    87   ar
    73    71    70    1
    74    64    65    2
    75    64    63    1
    76    72    70    1
    77    83    84    2
    78    83    82    1
    79    85    82    1
    80    89    87   ar
    81    62    63    1
    82    70    69    2
    83    63    66    1
    84    82    81    1
    85    66    67    1
    86    69    68    1
    87    67    68    1
