@<TRIPOS>MOLECULE
tmp/6d8iA00.pdb
 69 63 0 0 0
SMALL
GASTEIGER

@<TRIPOS>ATOM
      1  N         26.7240   16.9200   20.0630 N.3    33  VAL33      -0.1245
      2  CA        27.0280   18.3460   20.1700 C.3    33  VAL33       0.1561
      3  C         25.8080   19.1900   20.5030 C.2    33  VAL33       0.2260
      4  O         25.9630   20.3820   20.7880 O.2    33  VAL33      -0.2867
      5  CB        27.6610   18.9190   18.8820 C.3    33  VAL33       0.0252
      6  CG1       28.9850   18.2320   18.5720 C.3    33  VAL33       0.0019
      7  CG2       26.6940   18.8310   17.7070 C.3    33  VAL33       0.0019
      8  N         26.6400   19.5850   26.2670 N.3    37  LEU37      -0.1231
      9  CA        27.9910   19.3440   26.7480 C.3    37  LEU37       0.1693
     10  C         28.9190   20.4680   26.3160 C.2    37  LEU37       0.2593
     11  O         28.7440   21.0690   25.2510 O.2    37  LEU37      -0.2718
     12  CB        28.5280   18.0200   26.2050 C.3    37  LEU37       0.0284
     13  CG        27.7110   16.7740   26.5560 C.3    37  LEU37       0.0019
     14  CD1       28.0870   15.6170   25.6450 C.3    37  LEU37       0.0001
     15  CD2       27.9250   16.4220   28.0270 C.3    37  LEU37       0.0001
     16  N         29.9190   20.7370   27.1480 N.am   38  SER38      -0.1938
     17  CA        30.9670   21.7010   26.8490 C.3    38  SER38       0.2055
     18  C         32.1810   20.9820   26.2720 C.2    38  SER38       0.2643
     19  O         32.2900   19.7570   26.3200 O.2    38  SER38      -0.2714
     20  CB        31.3680   22.4570   28.1150 C.3    38  SER38       0.2130
     21  OG        32.0090   21.5630   29.0080 O.3    38  SER38      -0.2179
     22  N         33.1200   21.7630   25.7320 N.am   39  SER39      -0.1949
     23  CA        34.3620   21.1510   25.2680 C.3    39  SER39       0.1924
     24  C         35.1370   20.5440   26.4330 C.2    39  SER39       0.2314
     25  O         35.7760   19.4950   26.2840 O.2    39  SER39      -0.2863
     26  CB        35.2110   22.1770   24.5190 C.3    39  SER39       0.2116
     27  OG        34.5800   22.5230   23.3000 O.3    39  SER39      -0.2180
     28  N         33.7650   17.2100   26.9010 N.3    42  ALA42      -0.1245
     29  CA        34.2320   16.2470   25.9090 C.3    42  ALA42       0.1562
     30  C         35.5800   15.6640   26.3110 C.2    42  ALA42       0.2260
     31  O         35.8160   14.4630   26.1540 O.2    42  ALA42      -0.2867
     32  CB        34.3170   16.9080   24.5340 C.3    42  ALA42       0.0290
     33  N         35.9590   11.7520   27.2800 N.3    45  ALA45      -0.1245
     34  CA        36.9080   10.9370   26.5350 C.3    45  ALA45       0.1562
     35  C         37.8660   10.2330   27.4830 C.2    45  ALA45       0.2260
     36  O         38.1810    9.0500   27.2960 O.2    45  ALA45      -0.2867
     37  CB        37.6610   11.8130   25.5200 C.3    45  ALA45       0.0290
     38  N         39.3650    7.3600   22.0020 N.3    56  LEU56      -0.1245
     39  CA        38.5110    7.6920   20.8650 C.3    56  LEU56       0.1561
     40  C         39.1540    8.7670   20.0020 C.2    56  LEU56       0.2260
     41  O         39.5770    9.8060   20.5120 O.2    56  LEU56      -0.2867
     42  CB        37.1510    8.1890   21.3510 C.3    56  LEU56       0.0270
     43  CG        36.1590    7.1440   21.8350 C.3    56  LEU56       0.0019
     44  CD1       35.0040    7.8680   22.4970 C.3    56  LEU56       0.0001
     45  CD2       35.6680    6.3240   20.6550 C.3    56  LEU56       0.0001
     46  N         34.5810    9.5670   16.5890 N.3    61  ALA61      -0.1231
     47  CA        33.5250   10.1670   17.3900 C.3    61  ALA61       0.1694
     48  C         32.5700   10.9690   16.5200 C.2    61  ALA61       0.2592
     49  O         31.3480   10.8380   16.6440 O.2    61  ALA61      -0.2718
     50  CB        34.1180   11.0420   18.4930 C.3    61  ALA61       0.0304
     51  N         33.0970   11.8070   15.6320 N.am   62  PHE62      -0.1976
     52  CA        32.1790   12.6420   14.8680 C.3    62  PHE62       0.1639
     53  C         31.5620   11.9150   13.6870 C.2    62  PHE62       0.2290
     54  O         30.5640   12.4050   13.1390 O.2    62  PHE62      -0.2864
     55  CB        32.8820   13.9320   14.4470 C.3    62  PHE62       0.0560
     56  CG        32.9830   14.8930   15.5890 C.ar   62  PHE62      -0.0200
     57  CD1       33.9700   14.7300   16.5520 C.ar   62  PHE62      -0.0042
     58  CD2       32.0080   15.8580   15.7800 C.ar   62  PHE62      -0.0042
     59  CE1       34.0240   15.5670   17.6580 C.ar   62  PHE62      -0.0003
     60  CE2       32.0560   16.7020   16.8760 C.ar   62  PHE62      -0.0003
     61  CZ        33.0700   16.5550   17.8200 C.ar   62  PHE62      -0.0000
     62  N         27.6680    5.9610   18.7620 N.3    70  LEU70      -0.1245
     63  CA        28.9720    5.9380   19.4120 C.3    70  LEU70       0.1561
     64  C         29.1180    4.6870   20.2660 C.2    70  LEU70       0.2260
     65  O         30.1320    3.9840   20.1950 O.2    70  LEU70      -0.2867
     66  CB        29.1640    7.1920   20.2620 C.3    70  LEU70       0.0270
     67  CG        30.5160    7.2520   20.9760 C.3    70  LEU70       0.0019
     68  CD1       31.6470    7.3480   19.9480 C.3    70  LEU70       0.0001
     69  CD2       30.5700    8.4200   21.9540 C.3    70  LEU70       0.0001
@<TRIPOS>BOND
     1    54    53    2
     2    53    52    1
     3    55    52    1
     4    55    56    1
     5    52    51    1
     6    56    58   ar
     7    56    57   ar
     8    51    48   am
     9    58    60   ar
    10    48    49    2
    11    48    47    1
    12    57    59   ar
    13    46    47    1
    14    60    61   ar
    15    47    50    1
    16    59    61   ar
    17     7     5    1
    18     6     5    1
    19    62    63    1
    20     5     2    1
    21    63    66    1
    22    63    64    1
    23    68    67    1
    24    40    41    2
    25    40    39    1
    26     1     2    1
    27     2     3    1
    28    65    64    2
    29    66    67    1
    30     3     4    2
    31    45    43    1
    32    39    42    1
    33    39    38    1
    34    67    69    1
    35    42    43    1
    36    43    44    1
    37    27    26    1
    38    26    23    1
    39    32    29    1
    40    11    10    2
    41    23    22    1
    42    23    24    1
    43    37    34    1
    44    14    13    1
    45    22    18   am
    46    29    30    1
    47    29    28    1
    48    31    30    2
    49    12    13    1
    50    12     9    1
    51     8     9    1
    52    18    19    2
    53    18    17    1
    54    25    24    2
    55    10     9    1
    56    10    16   am
    57    34    33    1
    58    34    35    1
    59    13    15    1
    60    17    16    1
    61    17    20    1
    62    36    35    2
    63    20    21    1
