@<TRIPOS>MOLECULE
tmp/6d8jA00.pdb
 93 86 0 0 0
SMALL
GASTEIGER

@<TRIPOS>ATOM
      1  N         37.4710   25.9550   17.7940 N.3    34  MET34      -0.1230
      2  CA        37.2450   25.4580   16.4410 C.3    34  MET34       0.1702
      3  C         35.7890   25.0380   16.2310 C.2    34  MET34       0.2592
      4  O         35.2890   25.0770   15.1010 O.2    34  MET34      -0.2718
      5  CB        38.2290   24.3150   16.1540 C.3    34  MET34       0.0401
      6  CG        39.6600   24.8310   16.0340 C.3    34  MET34       0.0596
      7  SD        40.9250   23.5820   15.7440 S.3    34  MET34      -0.1393
      8  CE        40.4940   23.0810   14.0880 C.3    34  MET34       0.0692
      9  N         35.0750   24.6750   17.3000 N.am   35  VAL35      -0.1980
     10  CA        33.6480   24.3930   17.1590 C.3    35  VAL35       0.1595
     11  C         32.8220   25.6320   16.8360 C.2    35  VAL35       0.2287
     12  O         31.6320   25.5010   16.5150 O.2    35  VAL35      -0.2864
     13  CB        33.0740   23.7210   18.4260 C.3    35  VAL35       0.0276
     14  CG1       33.7100   22.3570   18.6460 C.3    35  VAL35       0.0022
     15  CG2       33.2600   24.6090   19.6450 C.3    35  VAL35       0.0022
     16  N         32.5780   24.9020   11.0900 N.3    39  LEU39      -0.1231
     17  CA        32.8360   23.5310   10.6810 C.3    39  LEU39       0.1693
     18  C         31.6990   22.6280   11.1360 C.2    39  LEU39       0.2593
     19  O         31.1020   22.8350   12.1970 O.2    39  LEU39      -0.2718
     20  CB        34.1540   23.0330   11.2820 C.3    39  LEU39       0.0284
     21  CG        35.4020   23.8420   10.9300 C.3    39  LEU39       0.0019
     22  CD1       36.5690   23.4920   11.8600 C.3    39  LEU39       0.0001
     23  CD2       35.7480   23.5820    9.4730 C.3    39  LEU39       0.0001
     24  N         31.4040   21.6240   10.3170 N.am   40  SER40      -0.1938
     25  CA        30.4410   20.5770   10.6320 C.3    40  SER40       0.2055
     26  C         31.1610   19.3520   11.1730 C.2    40  SER40       0.2643
     27  O         32.3850   19.2350   11.1090 O.2    40  SER40      -0.2714
     28  CB        29.6560   20.1750    9.3860 C.3    40  SER40       0.2130
     29  OG        30.5240   19.5290    8.4660 O.3    40  SER40      -0.2179
     30  N         30.3780   18.4090   11.6910 N.am   41  SER41      -0.1949
     31  CA        30.9770   17.1540   12.1320 C.3    41  SER41       0.1924
     32  C         31.5860   16.3960   10.9580 C.2    41  SER41       0.2314
     33  O         32.6490   15.7750   11.0990 O.2    41  SER41      -0.2863
     34  CB        29.9400   16.3040   12.8700 C.3    41  SER41       0.2116
     35  OG        29.6600   16.8750   14.1450 O.3    41  SER41      -0.2180
     36  N         34.9480   17.7850   10.4920 N.3    44  ALA44      -0.1245
     37  CA        35.8970   17.2840   11.4810 C.3    44  ALA44       0.1562
     38  C         36.4840   15.9480   11.0440 C.2    44  ALA44       0.2260
     39  O         37.6940   15.7130   11.1760 O.2    44  ALA44      -0.2867
     40  CB        35.2080   17.1460   12.8360 C.3    44  ALA44       0.0290
     41  N         38.8320   16.6560    8.1010 N.3    47  MET47      -0.1230
     42  CA        40.0490   17.3390    8.5140 C.3    47  MET47       0.1702
     43  C         40.9550   16.4000    9.2870 C.2    47  MET47       0.2592
     44  O         42.1740   16.4190    9.1010 O.2    47  MET47      -0.2718
     45  CB        39.7360   18.5700    9.3570 C.3    47  MET47       0.0401
     46  CG        41.0110   19.2850    9.7850 C.3    47  MET47       0.0596
     47  SD        40.7500   20.5360   11.0530 S.3    47  MET47      -0.1393
     48  CE        40.1060   21.8500   10.0490 C.3    47  MET47       0.0692
     49  N         40.3720   15.5650   10.1500 N.am   48  ALA48      -0.1980
     50  CA        41.1780   14.5880   10.8750 C.3    48  ALA48       0.1597
     51  C         41.9380   13.6800    9.9140 C.2    48  ALA48       0.2287
     52  O         43.1190   13.3810   10.1360 O.2    48  ALA48      -0.2864
     53  CB        40.2820   13.7710   11.8100 C.3    48  ALA48       0.0319
     54  N         44.7690   15.7000    8.3520 N.3    51  ILE51      -0.1245
     55  CA        45.8740   15.8870    9.2990 C.3    51  ILE51       0.1561
     56  C         46.7130   14.6200    9.3960 C.2    51  ILE51       0.2260
     57  O         47.9470   14.6780    9.4640 O.2    51  ILE51      -0.2867
     58  CB        45.3450   16.3140   10.6830 C.3    51  ILE51       0.0252
     59  CG1       44.8030   17.7420   10.6220 C.3    51  ILE51       0.0019
     60  CG2       46.4590   16.2170   11.7540 C.3    51  ILE51       0.0019
     61  CD1       44.0330   18.1480   11.8650 C.3    51  ILE51       0.0001
     62  N         44.6610   12.1800   15.4020 N.3    59  LEU59      -0.1245
     63  CA        44.3260   13.1140   16.4700 C.3    59  LEU59       0.1561
     64  C         43.2370   12.5270   17.3660 C.2    59  LEU59       0.2260
     65  O         42.1620   12.1690   16.8750 O.2    59  LEU59      -0.2867
     66  CB        43.8720   14.4300   15.8470 C.3    59  LEU59       0.0270
     67  CG        43.5950   15.6230   16.7520 C.3    59  LEU59       0.0019
     68  CD1       44.8370   15.9870   17.5500 C.3    59  LEU59       0.0001
     69  CD2       43.1300   16.8000   15.9130 C.3    59  LEU59       0.0001
     70  N         42.4720   16.9850   20.8340 N.3    64  ALA64      -0.1231
     71  CA        41.8800   18.0730   20.0620 C.3    64  ALA64       0.1694
     72  C         41.0800   19.0060   20.9610 C.2    64  ALA64       0.2592
     73  O         41.2010   20.2340   20.8700 O.2    64  ALA64      -0.2718
     74  CB        40.9960   17.5090   18.9490 C.3    64  ALA64       0.0304
     75  N         40.2680   18.4440   21.8510 N.am   65  PHE65      -0.1976
     76  CA        39.4080   19.3240   22.6290 C.3    65  PHE65       0.1639
     77  C         40.1110   19.9180   23.8290 C.2    65  PHE65       0.2290
     78  O         39.5980   20.8940   24.4010 O.2    65  PHE65      -0.2864
     79  CB        38.1120   18.5850   22.9940 C.3    65  PHE65       0.0560
     80  CG        37.1960   18.5070   21.8240 C.ar   65  PHE65      -0.0200
     81  CD1       36.2470   19.4930   21.6210 C.ar   65  PHE65      -0.0042
     82  CD2       37.3870   17.5410   20.8360 C.ar   65  PHE65      -0.0042
     83  CE1       35.4450   19.4800   20.4990 C.ar   65  PHE65      -0.0003
     84  CE2       36.5860   17.5240   19.7030 C.ar   65  PHE65      -0.0003
     85  CZ        35.6130   18.4970   19.5380 C.ar   65  PHE65      -0.0000
     86  N         46.0080   23.9240   18.7830 N.3    73  LEU73      -0.1245
     87  CA        46.0510   22.6140   18.1380 C.3    73  LEU73       0.1561
     88  C         47.3180   22.4690   17.3030 C.2    73  LEU73       0.2260
     89  O         48.0200   21.4580   17.3950 O.2    73  LEU73      -0.2867
     90  CB        44.8070   22.4080   17.2740 C.3    73  LEU73       0.0270
     91  CG        44.7970   21.0820   16.5100 C.3    73  LEU73       0.0019
     92  CD1       44.7840   19.9060   17.4970 C.3    73  LEU73       0.0001
     93  CD2       43.6000   21.0180   15.5700 C.3    73  LEU73       0.0001
@<TRIPOS>BOND
     1    41    42    1
     2    54    55    1
     3    29    28    1
     4    42    43    1
     5    42    45    1
     6    44    43    2
     7    43    49   am
     8    55    56    1
     9    55    58    1
    10    45    46    1
    11    28    25    1
    12    56    57    2
    13    23    21    1
    14    46    47    1
    15    51    52    2
    16    51    50    1
    17    48    47    1
    18    49    50    1
    19    24    25    1
    20    24    18   am
    21    36    37    1
    22    59    58    1
    23    59    61    1
    24    25    26    1
    25    17    16    1
    26    17    18    1
    27    17    20    1
    28    58    60    1
    29    50    53    1
    30    21    20    1
    31    21    22    1
    32    32    33    2
    33    32    31    1
    34    38    39    2
    35    38    37    1
    36    27    26    2
    37    18    19    2
    38    26    30   am
    39    37    40    1
    40    30    31    1
    41    31    34    1
    42    34    35    1
    43     8     7    1
    44     4     3    2
    45    62    63    1
    46    93    91    1
    47     7     6    1
    48    66    63    1
    49    66    67    1
    50    69    67    1
    51     6     5    1
    52     5     2    1
    53     3     2    1
    54     3     9   am
    55     2     1    1
    56    63    64    1
    57    91    90    1
    58    91    92    1
    59    12    11    2
    60    67    68    1
    61    11    10    1
    62    65    64    2
    63    10     9    1
    64    10    13    1
    65    90    87    1
    66    88    89    2
    67    88    87    1
    68    87    86    1
    69    13    14    1
    70    13    15    1
    71    74    71    1
    72    85    84   ar
    73    85    83   ar
    74    84    82   ar
    75    71    70    1
    76    71    72    1
    77    83    81   ar
    78    82    80   ar
    79    73    72    2
    80    72    75   am
    81    81    80   ar
    82    80    79    1
    83    75    76    1
    84    76    79    1
    85    76    77    1
    86    77    78    2
