@<TRIPOS>MOLECULE
tmp/6d91A02.pdb
 100 92 0 0 0
SMALL
GASTEIGER

@<TRIPOS>ATOM
      1  N         39.4270  -29.0320   10.4900 N.3     3  LEU3       -0.1231
      2  CA        38.4450  -27.9470   10.5500 C.3     3  LEU3        0.1678
      3  C         38.7980  -27.0990   11.7640 C.2     3  LEU3        0.2434
      4  O         38.1550  -27.2010   12.8180 O.2     3  LEU3       -0.2733
      5  CB        37.0150  -28.4790   10.6300 C.3     3  LEU3        0.0284
      6  CG        36.3970  -28.9980    9.3290 C.3     3  LEU3        0.0019
      7  CD1       34.9630  -29.4490    9.5680 C.3     3  LEU3        0.0001
      8  CD2       36.4450  -27.9440    8.2300 C.3     3  LEU3        0.0001
      9  N         39.8120  -26.2380   11.6490 N.am    4  PRO4       -0.2729
     10  CA        40.3530  -25.5800   12.8440 C.3     4  PRO4        0.1401
     11  C         39.4710  -24.4580   13.3600 C.2     4  PRO4        0.2269
     12  O         39.4120  -24.2160   14.5700 O.2     4  PRO4       -0.2865
     13  CB        41.7120  -25.0400   12.3680 C.3     4  PRO4        0.0296
     14  CG        41.7510  -25.2430   10.8580 C.3     4  PRO4        0.0237
     15  CD        40.3960  -25.6900   10.4140 C.3     4  PRO4        0.0939
     16  N         36.0450  -23.9350   12.5970 N.3     6  LEU6       -0.1231
     17  CA        34.6010  -24.1370   12.6080 C.3     6  LEU6        0.1693
     18  C         34.0080  -23.6840   13.9360 C.2     6  LEU6        0.2592
     19  O         33.0070  -22.9590   13.9690 O.2     6  LEU6       -0.2718
     20  CB        34.2700  -25.6040   12.3400 C.3     6  LEU6        0.0284
     21  CG        32.7810  -25.9210   12.1810 C.3     6  LEU6        0.0019
     22  CD1       32.2090  -25.2370   10.9450 C.3     6  LEU6        0.0001
     23  CD2       32.5560  -27.4250   12.1220 C.3     6  LEU6        0.0001
     24  N         34.6230  -24.0960   15.0440 N.am    7  GLY7       -0.1957
     25  CA        34.1850  -23.6910   16.3580 C.3     7  GLY7        0.1869
     26  C         34.0290  -22.1880   16.4530 C.2     7  GLY7        0.2309
     27  O         32.9410  -21.6670   16.7130 O.2     7  GLY7       -0.2863
     28  N         31.1320  -21.1910   14.3080 N.3    10  VAL10      -0.1245
     29  CA        29.8140  -21.5200   14.8390 C.3    10  VAL10       0.1561
     30  C         29.4690  -20.6090   16.0100 C.2    10  VAL10       0.2260
     31  O         28.3110  -20.2100   16.1820 O.2    10  VAL10      -0.2867
     32  CB        29.7480  -23.0040   15.2410 C.3    10  VAL10       0.0252
     33  CG1       28.3440  -23.3600   15.7100 C.3    10  VAL10       0.0019
     34  CG2       30.1660  -23.8910   14.0800 C.3    10  VAL10       0.0019
     35  N         37.1770  -24.9600   23.5410 N.3   135  ARG135     -0.1245
     36  CA        36.4940  -26.0100   22.7940 C.3   135  ARG135      0.1563
     37  C         35.1680  -26.4250   23.4210 C.2   135  ARG135      0.2260
     38  O         34.1840  -26.5630   22.6750 O.2   135  ARG135     -0.2867
     39  CB        37.4340  -27.2180   22.6590 C.3   135  ARG135      0.0307
     40  CG        36.8960  -28.3440   21.7930 C.3   135  ARG135      0.0489
     41  CD        37.9250  -29.4530   21.6220 C.3   135  ARG135      0.2205
     42  NE        38.2590  -30.1030   22.8880 N.pl3 135  ARG135     -0.0865
     43  CZ        37.5470  -31.0820   23.4420 C.cat 135  ARG135      0.5346
     44  NH1       37.9350  -31.6120   24.5940 N.pl3 135  ARG135      0.1354
     45  NH2       36.4470  -31.5300   22.8500 N.pl3 135  ARG135      0.1354
     46  N         32.4750  -24.2750   22.2560 N.3   138  GLU138     -0.1231
     47  CA        32.2480  -24.3930   20.8210 C.3   138  GLU138      0.1699
     48  C         31.3710  -25.5910   20.4890 C.2   138  GLU138      0.2592
     49  O         30.5740  -25.5260   19.5460 O.2   138  GLU138     -0.2718
     50  CB        33.5880  -24.4760   20.0930 C.3   138  GLU138      0.0402
     51  CG        34.3550  -23.1630   20.1250 C.3   138  GLU138      0.1161
     52  CD        35.7940  -23.2940   19.6720 C.2   138  GLU138      0.3649
     53  OE1       36.3830  -22.2630   19.2860 O.co2 138  GLU138     -0.2457
     54  OE2       36.3380  -24.4190   19.7040 O.co2 138  GLU138     -0.2457
     55  N         31.4910  -26.6870   21.2430 N.am  139  LEU139     -0.1980
     56  CA        30.5510  -27.7890   21.0720 C.3   139  LEU139      0.1596
     57  C         29.1790  -27.4210   21.6270 C.2   139  LEU139      0.2287
     58  O         28.1510  -27.8000   21.0550 O.2   139  LEU139     -0.2864
     59  CB        31.0700  -29.0560   21.7500 C.3   139  LEU139      0.0297
     60  CG        32.1940  -29.8740   21.1000 C.3   139  LEU139      0.0022
     61  CD1       32.2070  -29.7640   19.5790 C.3   139  LEU139      0.0001
     62  CD2       33.5480  -29.4860   21.6770 C.3   139  LEU139      0.0001
     63  N         27.6210  -25.4410   19.1670 N.3   142  GLY142     -0.1225
     64  CA        27.4790  -26.3610   18.0530 C.3   142  GLY142      0.1811
     65  C         26.2640  -27.2520   18.2080 C.2   142  GLY142      0.2280
     66  O         25.4330  -27.3580   17.3020 O.2   142  GLY142     -0.2866
     67  N         23.2060  -24.8530   17.9580 N.3   145  VAL145     -0.1231
     68  CA        22.9500  -24.5380   16.5540 C.3   145  VAL145      0.1692
     69  C         22.3690  -25.7520   15.8400 C.2   145  VAL145      0.2591
     70  O         21.4690  -25.6300   15.0000 O.2   145  VAL145     -0.2718
     71  CB        24.2410  -24.0450   15.8740 C.3   145  VAL145      0.0266
     72  CG1       24.1160  -24.1210   14.3560 C.3   145  VAL145      0.0020
     73  CG2       24.5590  -22.6220   16.3100 C.3   145  VAL145      0.0020
     74  N         22.8680  -26.9460   16.1730 N.am  146  LEU146     -0.1980
     75  CA        22.3420  -28.1610   15.5640 C.3   146  LEU146      0.1596
     76  C         20.8650  -28.3440   15.8870 C.2   146  LEU146      0.2287
     77  O         20.0850  -28.7800   15.0320 O.2   146  LEU146     -0.2864
     78  CB        23.1490  -29.3740   16.0280 C.3   146  LEU146      0.0297
     79  CG        22.6120  -30.7420   15.6000 C.3   146  LEU146      0.0022
     80  CD1       23.7420  -31.6400   15.1190 C.3   146  LEU146      0.0001
     81  CD2       21.8600  -31.4020   16.7470 C.3   146  LEU146      0.0001
     82  N         44.9770  -19.5280   17.6920 N.3   206  ARG206     -0.1245
     83  CA        44.2670  -20.7900   17.8640 C.3   206  ARG206      0.1563
     84  C         45.1340  -21.9610   17.4230 C.2   206  ARG206      0.2260
     85  O         45.1540  -23.0100   18.0770 O.2   206  ARG206     -0.2867
     86  CB        42.9560  -20.7640   17.0820 C.3   206  ARG206      0.0307
     87  CG        42.1010  -22.0030   17.2750 C.3   206  ARG206      0.0489
     88  CD        40.7770  -21.8780   16.5500 C.3   206  ARG206      0.2205
     89  NE        39.9380  -23.0560   16.7490 N.pl3 206  ARG206     -0.0865
     90  CZ        39.2070  -23.2810   17.8360 C.cat 206  ARG206      0.5346
     91  NH1       39.2080  -22.4110   18.8380 N.pl3 206  ARG206      0.1354
     92  NH2       38.4740  -24.3810   17.9210 N.pl3 206  ARG206      0.1354
     93  N         24.9710  -21.7320    7.0920 N.3   232  LEU232     -0.1245
     94  CA        23.9730  -22.4170    7.9070 C.3   232  LEU232      0.1561
     95  C         23.0220  -21.4190    8.5470 C.2   232  LEU232      0.2260
     96  O         21.8010  -21.6190    8.5570 O.2   232  LEU232     -0.2867
     97  CB        24.6560  -23.2360    8.9980 C.3   232  LEU232      0.0270
     98  CG        23.9780  -24.5070    9.5220 C.3   232  LEU232      0.0019
     99  CD1       24.3000  -24.7140   10.9770 C.3   232  LEU232      0.0001
    100  CD2       22.4850  -24.4650    9.3620 C.3   232  LEU232      0.0001
@<TRIPOS>BOND
     1    93    94    1
     2    94    95    1
     3    94    97    1
     4     8     6    1
     5    95    96    2
     6    97    98    1
     7     6     7    1
     8     6     5    1
     9   100    98    1
    10    98    99    1
    11    15    14    1
    12    15     9    1
    13     1     2    1
    14     2     5    1
    15     2     3    1
    16    14    13    1
    17    22    21    1
    18     9     3   am
    19     9    10    1
    20     3     4    2
    21    23    21    1
    22    21    20    1
    23    20    17    1
    24    13    10    1
    25    16    17    1
    26    17    18    1
    27    10    11    1
    28    11    12    2
    29    18    19    2
    30    18    24   am
    31    34    32    1
    32    28    29    1
    33    72    71    1
    34    29    32    1
    35    29    30    1
    36    70    69    2
    37    77    76    2
    38    24    25    1
    39    80    79    1
    40    32    33    1
    41    75    76    1
    42    75    78    1
    43    75    74    1
    44    79    78    1
    45    79    81    1
    46    69    74   am
    47    69    68    1
    48    71    73    1
    49    71    68    1
    50    30    31    2
    51    25    26    1
    52    26    27    2
    53    88    89    1
    54    88    87    1
    55    68    67    1
    56    89    90    2
    57    86    87    1
    58    86    83    1
    59    66    65    2
    60    84    83    1
    61    84    85    2
    62    82    83    1
    63    90    92    1
    64    90    91    1
    65    64    65    1
    66    64    63    1
    67    53    52   ar
    68    49    48    2
    69    61    60    1
    70    52    54   ar
    71    52    51    1
    72    50    51    1
    73    50    47    1
    74    48    47    1
    75    48    55   am
    76    47    46    1
    77    58    57    2
    78    56    55    1
    79    56    57    1
    80    56    59    1
    81    60    62    1
    82    60    59    1
    83    41    40    1
    84    41    42    1
    85    40    39    1
    86    39    36    1
    87    38    37    2
    88    36    37    1
    89    36    35    1
    90    45    43    1
    91    42    43    2
    92    43    44    1
