@<TRIPOS>MOLECULE
tmp/6d91A00.pdb
 157 146 0 0 0
SMALL
GASTEIGER

@<TRIPOS>ATOM
      1  N         25.0380  -13.3300    3.2420 N.3    45  LEU45      -0.1231
      2  CA        26.2880  -13.3320    2.4900 C.3    45  LEU45       0.1693
      3  C         27.1400  -12.1150    2.8270 C.2    45  LEU45       0.2591
      4  O         28.3730  -12.1960    2.7950 O.2    45  LEU45      -0.2718
      5  CB        25.9980  -13.3870    0.9910 C.3    45  LEU45       0.0284
      6  CG        25.2980  -14.6580    0.4990 C.3    45  LEU45       0.0019
      7  CD1       24.9710  -14.5540   -0.9850 C.3    45  LEU45       0.0001
      8  CD2       26.1530  -15.8880    0.7770 C.3    45  LEU45       0.0001
      9  N         26.5090  -10.9870    3.1580 N.am   46  MET46      -0.1979
     10  CA        27.2650   -9.8220    3.6040 C.3    46  MET46       0.1605
     11  C         27.9430  -10.0950    4.9400 C.2    46  MET46       0.2287
     12  O         29.1530   -9.8860    5.0900 O.2    46  MET46      -0.2864
     13  CB        26.3420   -8.6080    3.7040 C.3    46  MET46       0.0413
     14  CG        26.0240   -7.9670    2.3630 C.3    46  MET46       0.0598
     15  SD        24.8350   -6.6210    2.5080 S.3    46  MET46      -0.1393
     16  CE        23.5080   -7.2260    1.4640 C.3    46  MET46       0.0692
     17  N         28.5310  -12.9960    6.1550 N.3    48  MET48      -0.1230
     18  CA        29.5050  -14.0400    5.8610 C.3    48  MET48       0.1702
     19  C         30.8580  -13.4430    5.5010 C.2    48  MET48       0.2592
     20  O         31.9030  -13.9310    5.9490 O.2    48  MET48      -0.2718
     21  CB        28.9840  -14.9160    4.7240 C.3    48  MET48       0.0401
     22  CG        29.9270  -16.0120    4.2820 C.3    48  MET48       0.0596
     23  SD        29.2000  -16.9670    2.9360 S.3    48  MET48      -0.1393
     24  CE        27.7520  -17.6570    3.7380 C.3    48  MET48       0.0692
     25  N         30.8600  -12.3850    4.6880 N.am   49  VAL49      -0.1980
     26  CA        32.1080  -11.7110    4.3490 C.3    49  VAL49       0.1595
     27  C         32.6900  -11.0210    5.5750 C.2    49  VAL49       0.2287
     28  O         33.9030  -11.0650    5.8130 O.2    49  VAL49      -0.2864
     29  CB        31.8730  -10.7200    3.1930 C.3    49  VAL49       0.0276
     30  CG1       32.9240   -9.6160    3.1970 C.3    49  VAL49       0.0022
     31  CG2       31.8750  -11.4550    1.8580 C.3    49  VAL49       0.0022
     32  N         34.2060  -13.3320    8.1410 N.3    52  ASN52      -0.1225
     33  CA        35.4090  -13.9030    7.5510 C.3    52  ASN52       0.1785
     34  C         36.5950  -12.9550    7.6750 C.2    52  ASN52       0.2597
     35  O         37.7340  -13.4070    7.8440 O.2    52  ASN52      -0.2718
     36  CB        35.1560  -14.2460    6.0850 C.3    52  ASN52       0.1169
     37  CG        36.2580  -15.0880    5.4920 C.2    52  ASN52       0.2627
     38  OD1       36.2290  -16.3140    5.5790 O.2    52  ASN52      -0.2716
     39  ND2       37.2430  -14.4360    4.8870 N.am   52  ASN52      -0.0877
     40  N         36.3510  -11.6450    7.5950 N.am   53  LEU53      -0.1980
     41  CA        37.4240  -10.6750    7.7860 C.3    53  LEU53       0.1596
     42  C         37.9210  -10.6820    9.2260 C.2    53  LEU53       0.2287
     43  O         39.1320  -10.6640    9.4750 O.2    53  LEU53      -0.2864
     44  CB        36.9460   -9.2770    7.3970 C.3    53  LEU53       0.0297
     45  CG        37.5290   -8.7260    6.0970 C.3    53  LEU53       0.0022
     46  CD1       37.1780   -9.6330    4.9380 C.3    53  LEU53       0.0001
     47  CD2       37.0360   -7.3150    5.8380 C.3    53  LEU53       0.0001
     48  N         39.9290  -13.8410    9.7300 N.3    56  ASN56      -0.1240
     49  CA        41.2200  -13.6550    9.0760 C.3    56  ASN56       0.1653
     50  C         42.0870  -12.6500    9.8200 C.2    56  ASN56       0.2266
     51  O         43.3140  -12.8010    9.8640 O.2    56  ASN56      -0.2867
     52  CB        41.0200  -13.2000    7.6300 C.3    56  ASN56       0.1155
     53  CG        40.4980  -14.3070    6.7370 C.2    56  ASN56       0.2627
     54  OD1       40.5630  -15.4870    7.0850 O.2    56  ASN56      -0.2716
     55  ND2       39.9830  -13.9320    5.5730 N.am   56  ASN56      -0.0877
     56  N         48.5150  -18.4340    5.8950 N.3   216  ARG216     -0.1245
     57  CA        47.5840  -18.3830    4.7710 C.3   216  ARG216      0.1563
     58  C         46.9060  -19.7300    4.5610 C.2   216  ARG216      0.2260
     59  O         45.7790  -19.7880    4.0570 O.2   216  ARG216     -0.2867
     60  CB        48.3100  -17.9380    3.5000 C.3   216  ARG216      0.0307
     61  CG        49.4280  -18.8630    3.0620 C.3   216  ARG216      0.0489
     62  CD        50.0580  -18.4140    1.7470 C.3   216  ARG216      0.2205
     63  NE        51.1910  -17.5100    1.9470 N.pl3 216  ARG216     -0.0865
     64  CZ        51.1310  -16.1810    1.8750 C.cat 216  ARG216      0.5346
     65  NH1       49.9870  -15.5660    1.6030 N.pl3 216  ARG216      0.1354
     66  NH2       52.2280  -15.4630    2.0750 N.pl3 216  ARG216      0.1354
     67  N         44.0820  -19.3030    6.7160 N.3   219  VAL219     -0.1245
     68  CA        43.0930  -18.3930    6.1480 C.3   219  VAL219      0.1561
     69  C         42.1820  -19.1370    5.1810 C.2   219  VAL219      0.2260
     70  O         40.9610  -18.9420    5.1800 O.2   219  VAL219     -0.2867
     71  CB        43.7930  -17.2040    5.4640 C.3   219  VAL219      0.0252
     72  CG1       42.7880  -16.3720    4.6910 C.3   219  VAL219      0.0019
     73  CG2       44.5110  -16.3480    6.4950 C.3   219  VAL219      0.0019
     74  N         38.2460  -19.8430    5.8910 N.3   223  ARG223     -0.1245
     75  CA        37.2570  -19.3220    4.9540 C.3   223  ARG223      0.1563
     76  C         36.1210  -20.3140    4.7450 C.2   223  ARG223      0.2260
     77  O         34.9420  -19.9420    4.7670 O.2   223  ARG223     -0.2867
     78  CB        37.9340  -18.9860    3.6260 C.3   223  ARG223      0.0307
     79  CG        36.9920  -18.4260    2.5860 C.3   223  ARG223      0.0489
     80  CD        37.6090  -17.2330    1.8790 C.3   223  ARG223      0.2205
     81  NE        38.9220  -17.5170    1.2940 N.pl3 223  ARG223     -0.0865
     82  CZ        40.0820  -17.0590    1.7670 C.cat 223  ARG223      0.5346
     83  NH1       41.2150  -17.3730    1.1550 N.pl3 223  ARG223      0.1354
     84  NH2       40.1210  -16.2920    2.8470 N.pl3 223  ARG223      0.1354
     85  N         32.0820  -19.6000    5.9200 N.3   227  ILE227     -0.1245
     86  CA        31.0130  -19.7620    4.9380 C.3   227  ILE227      0.1561
     87  C         30.0900  -20.9040    5.3400 C.2   227  ILE227      0.2260
     88  O         28.8660  -20.8190    5.1830 O.2   227  ILE227     -0.2867
     89  CB        31.6060  -19.9840    3.5340 C.3   227  ILE227      0.0252
     90  CG1       32.3920  -18.7480    3.0880 C.3   227  ILE227      0.0019
     91  CG2       30.4940  -20.3100    2.5440 C.3   227  ILE227      0.0019
     92  CD1       33.2990  -18.9870    1.8970 C.3   227  ILE227      0.0001
     93  N         52.0560  -10.4740    4.7590 N.3   366  ALA366     -0.1231
     94  CA        51.7430  -10.8780    3.3910 C.3   366  ALA366      0.1694
     95  C         50.3300  -11.4290    3.2490 C.2   366  ALA366      0.2592
     96  O         49.9900  -11.9420    2.1780 O.2   366  ALA366     -0.2718
     97  CB        52.7530  -11.9180    2.9020 C.3   366  ALA366      0.0304
     98  N         49.5070  -11.3430    4.2950 N.am  367  LEU367     -0.1966
     99  CA        48.1230  -11.7990    4.2490 C.3   367  LEU367      0.1728
    100  C         47.1400  -10.6330    4.2990 C.2   367  LEU367      0.2616
    101  O         46.0210  -10.7740    4.7990 O.2   367  LEU367     -0.2715
    102  CB        47.8410  -12.7770    5.3880 C.3   367  LEU367      0.0311
    103  CG        48.7250  -14.0230    5.4150 C.3   367  LEU367      0.0022
    104  CD1       49.8900  -13.8350    6.3680 C.3   367  LEU367      0.0001
    105  CD2       47.9090  -15.2420    5.7930 C.3   367  LEU367      0.0001
    106  N         47.5480   -9.4700    3.7900 N.am  368  VAL368     -0.1963
    107  CA        46.6240   -8.3530    3.6740 C.3   368  VAL368      0.1727
    108  C         45.4440   -8.7780    2.8160 C.2   368  VAL368      0.2617
    109  O         45.6130   -9.4080    1.7650 O.2   368  VAL368     -0.2715
    110  CB        47.3320   -7.1270    3.0810 C.3   368  VAL368      0.0290
    111  CG1       46.3200   -6.0530    2.7250 C.3   368  VAL368      0.0023
    112  CG2       48.3490   -6.5840    4.0620 C.3   368  VAL368      0.0023
    113  N         44.2390   -8.4490    3.2740 N.am  369  THR369     -0.1937
    114  CA        43.0400   -8.7040    2.4890 C.3   369  THR369      0.2028
    115  C         43.2090   -8.1430    1.0850 C.2   369  THR369      0.2642
    116  O         43.5260   -6.9630    0.9080 O.2   369  THR369     -0.2714
    117  CB        41.8250   -8.0740    3.1700 C.3   369  THR369      0.1808
    118  OG1       41.6310   -8.6790    4.4560 O.3   369  THR369     -0.2208
    119  CG2       40.5750   -8.2600    2.3220 C.3   369  THR369      0.0379
    120  N         43.0140   -9.0020    0.0870 N.am  370  ARG370     -0.1977
    121  CA        43.1700   -8.5910   -1.3010 C.3   370  ARG370      0.1597
    122  C         42.3990   -7.3040   -1.5620 C.2   370  ARG370      0.2287
    123  O         41.2020   -7.2120   -1.2740 O.2   370  ARG370     -0.2864
    124  CB        42.6910   -9.7050   -2.2320 C.3   370  ARG370      0.0334
    125  CG        43.5560  -10.9540   -2.1690 C.3   370  ARG370      0.0492
    126  CD        43.0880  -12.0250   -3.1440 C.3   370  ARG370      0.2205
    127  NE        44.0410  -13.1300   -3.2350 N.pl3 370  ARG370     -0.0865
    128  CZ        44.0730  -14.1720   -2.4070 C.cat 370  ARG370      0.5346
    129  NH1       44.9830  -15.1220   -2.5770 N.pl3 370  ARG370      0.1354
    130  NH2       43.2000  -14.2680   -1.4120 N.pl3 370  ARG370      0.1354
    131  N         39.0420   -7.3450   -2.6270 N.3   373  PHE373     -0.1241
    132  CA        38.0610   -7.7810   -1.6440 C.3   373  PHE373      0.1605
    133  C         37.8750   -6.7830   -0.5120 C.2   373  PHE373      0.2264
    134  O         36.7890   -6.7250    0.0770 O.2   373  PHE373     -0.2867
    135  CB        38.4580   -9.1350   -1.0580 C.3   373  PHE373      0.0534
    136  CG        37.4220   -9.7150   -0.1480 C.ar  373  PHE373     -0.0203
    137  CD1       37.7510  -10.1220    1.1290 C.ar  373  PHE373     -0.0042
    138  CD2       36.1070   -9.8330   -0.5660 C.ar  373  PHE373     -0.0042
    139  CE1       36.7890  -10.6490    1.9670 C.ar  373  PHE373     -0.0003
    140  CE2       35.1450  -10.3600    0.2690 C.ar  373  PHE373     -0.0003
    141  CZ        35.4890  -10.7720    1.5360 C.ar  373  PHE373     -0.0000
    142  N         35.0600   -4.7410   -1.7740 N.3   376  ILE376     -0.1245
    143  CA        33.7740   -5.4120   -1.6170 C.3   376  ILE376      0.1561
    144  C         33.3040   -5.3510   -0.1720 C.2   376  ILE376      0.2260
    145  O         32.0970   -5.3060    0.0950 O.2   376  ILE376     -0.2867
    146  CB        33.8700   -6.8680   -2.1170 C.3   376  ILE376      0.0252
    147  CG1       33.9770   -6.8920   -3.6450 C.3   376  ILE376      0.0019
    148  CG2       32.6670   -7.6690   -1.6400 C.3   376  ILE376      0.0019
    149  CD1       34.4470   -8.2120   -4.2130 C.3   376  ILE376      0.0001
    150  N         29.9530   -3.1870    1.1560 N.3   380  ILE380     -0.1245
    151  CA        29.0470   -3.9100    2.0400 C.3   380  ILE380      0.1561
    152  C         28.8310   -3.1320    3.3310 C.2   380  ILE380      0.2260
    153  O         27.7000   -3.0070    3.8160 O.2   380  ILE380     -0.2867
    154  CB        29.5900   -5.3250    2.3130 C.3   380  ILE380      0.0252
    155  CG1       29.4230   -6.2020    1.0700 C.3   380  ILE380      0.0019
    156  CG2       28.8910   -5.9410    3.5220 C.3   380  ILE380      0.0019
    157  CD1       30.1800   -7.5130    1.1400 C.3   380  ILE380      0.0001
@<TRIPOS>BOND
     1   149   147    1
     2   147   146    1
     3   127   126    1
     4   127   128    2
     5   126   125    1
     6   131   132    1
     7   129   128    1
     8   128   130    1
     9   124   125    1
    10   124   121    1
    11   146   148    1
    12   146   143    1
    13   142   143    1
    14   132   135    1
    15   132   133    1
    16   143   144    1
    17   122   121    1
    18   122   123    2
    19   121   120    1
    20   135   136    1
    21     7     6    1
    22   138   136   ar
    23   138   140   ar
    24   133   134    2
    25   144   145    2
    26   136   137   ar
    27   120   115   am
    28   140   141   ar
    29     6     8    1
    30     6     5    1
    31   116   115    2
    32     5     2    1
    33   155   157    1
    34   155   154    1
    35   115   114    1
    36   137   139   ar
    37    83    82    1
    38   150   151    1
    39    81    82    2
    40    81    80    1
    41    16    15    1
    42   141   139   ar
    43    65    64    1
    44    62    63    1
    45    62    61    1
    46   109   108    2
    47    82    84    1
    48    31    29    1
    49    64    63    2
    50    64    66    1
    51    80    79    1
    52    92    90    1
    53   151   154    1
    54   151   152    1
    55    96    95    2
    56   154   156    1
    57   119   117    1
    58    14    15    1
    59    14    13    1
    60   114   117    1
    61   114   113    1
    62     2     3    1
    63     2     1    1
    64    91    89    1
    65    79    78    1
    66   111   110    1
    67     4     3    2
    68   108   113   am
    69   108   107    1
    70     3     9   am
    71    97    94    1
    72    23    24    1
    73    23    22    1
    74    61    60    1
    75   110   107    1
    76   110   112    1
    77    90    89    1
    78     9    10    1
    79   117   118    1
    80    29    30    1
    81    29    26    1
    82    95    94    1
    83    95    98   am
    84   152   153    2
    85    94    93    1
    86    60    57    1
    87    89    86    1
    88    10    13    1
    89    10    11    1
    90    78    75    1
    91   107   106    1
    92   106   100   am
    93    59    58    2
    94    99    98    1
    95    99   100    1
    96    99   102    1
    97    22    21    1
    98   100   101    2
    99    26    25    1
   100    26    27    1
   101    58    57    1
   102    25    19   am
   103    72    71    1
   104    21    18    1
   105    76    77    2
   106    76    75    1
   107    57    56    1
   108    39    37   am
   109    86    87    1
   110    86    85    1
   111    46    45    1
   112    11    12    2
   113    75    74    1
   114    70    69    2
   115    69    68    1
   116    88    87    2
   117   102   103    1
   118   103   105    1
   119   103   104    1
   120    71    68    1
   121    71    73    1
   122    37    38    2
   123    37    36    1
   124    19    18    1
   125    19    20    2
   126    55    53   am
   127    27    28    2
   128    47    45    1
   129    18    17    1
   130    36    33    1
   131    45    44    1
   132    68    67    1
   133    53    54    2
   134    53    52    1
   135    44    41    1
   136    33    34    1
   137    33    32    1
   138    40    34   am
   139    40    41    1
   140    52    49    1
   141    34    35    2
   142    41    42    1
   143    49    48    1
   144    49    50    1
   145    42    43    2
   146    50    51    2
