@<TRIPOS>MOLECULE
tmp/6d97B00.pdb
 191 184 0 0 0
SMALL
GASTEIGER

@<TRIPOS>ATOM
      1  N          7.7890   61.1500   63.1770 N.3   170  ILE170     -0.1231
      2  CA         9.1010   61.7560   62.9620 C.3   170  ILE170      0.1692
      3  C          9.3660   61.7810   61.4590 C.2   170  ILE170      0.2593
      4  O          9.3150   60.7330   60.8020 O.2   170  ILE170     -0.2718
      5  CB        10.2180   60.9880   63.6940 C.3   170  ILE170      0.0266
      6  CG1        9.9160   60.8740   65.1930 C.3   170  ILE170      0.0019
      7  CG2       11.5470   61.6800   63.4880 C.3   170  ILE170      0.0020
      8  CD1       10.5580   59.6690   65.8660 C.3   170  ILE170      0.0001
      9  N          9.6480   62.9630   60.9170 N.am  171  THR171     -0.1940
     10  CA         9.7600   63.1690   59.4810 C.3   171  THR171      0.2013
     11  C         11.0320   63.9290   59.1320 C.2   171  THR171      0.2484
     12  O         11.5860   64.6500   59.9690 O.2   171  THR171     -0.2729
     13  CB         8.5400   63.9300   58.9360 C.3   171  THR171      0.1807
     14  OG1        8.6250   65.3080   59.3100 O.3   171  THR171     -0.2208
     15  CG2        7.2450   63.3360   59.4740 C.3   171  THR171      0.0379
     16  N         11.5220   63.7940   57.8790 N.am  172  PRO172     -0.2715
     17  CA        12.8360   64.3510   57.5310 C.3   172  PRO172      0.1536
     18  C         12.7880   65.7460   56.9250 C.2   172  PRO172      0.2599
     19  O         11.7400   66.3990   56.9050 O.2   172  PRO172     -0.2715
     20  CB        13.3680   63.3330   56.5190 C.3   172  PRO172      0.0310
     21  CG        12.1370   62.9070   55.7910 C.3   172  PRO172      0.0237
     22  CD        10.9960   62.9460   56.7940 C.3   172  PRO172      0.0939
     23  N         13.9320   66.1970   56.3990 N.am  173  PHE173     -0.1960
     24  CA        14.0520   67.5790   55.9470 C.3   173  PHE173      0.1771
     25  C         13.4290   67.7950   54.5750 C.2   173  PHE173      0.2619
     26  O         12.9780   68.9060   54.2710 O.2   173  PHE173     -0.2715
     27  CB        15.5240   67.9940   55.8970 C.3   173  PHE173      0.0574
     28  CG        16.2690   67.4330   54.7110 C.ar  173  PHE173     -0.0200
     29  CD1       16.8540   66.1810   54.7810 C.ar  173  PHE173     -0.0042
     30  CD2       16.3710   68.1500   53.5240 C.ar  173  PHE173     -0.0042
     31  CE1       17.5300   65.6550   53.6960 C.ar  173  PHE173     -0.0003
     32  CE2       17.0430   67.6270   52.4340 C.ar  173  PHE173     -0.0003
     33  CZ        17.6270   66.3780   52.5230 C.ar  173  PHE173     -0.0000
     34  N         13.4120   66.7620   53.7300 N.am  174  ASN174     -0.1972
     35  CA        13.2800   67.0040   52.2970 C.3   174  ASN174      0.1688
     36  C         11.8570   67.3540   51.8830 C.2   174  ASN174      0.2292
     37  O         11.6740   68.1090   50.9230 O.2   174  ASN174     -0.2864
     38  CB        13.7970   65.8010   51.5050 C.3   174  ASN174      0.1181
     39  CG        13.0740   64.5150   51.8420 C.2   174  ASN174      0.2629
     40  OD1       12.7100   64.2720   52.9910 O.2   174  ASN174     -0.2716
     41  ND2       12.8760   63.6740   50.8350 N.am  174  ASN174     -0.0877
     42  N          7.2630   65.4110   65.2720 N.3   197  LYS197     -0.1231
     43  CA         8.5990   65.9850   65.2040 C.3   197  LYS197      0.1693
     44  C          9.0380   66.0370   63.7480 C.2   197  LYS197      0.2592
     45  O          9.1400   64.9960   63.0890 O.2   197  LYS197     -0.2718
     46  CB         9.5990   65.1760   66.0340 C.3   197  LYS197      0.0285
     47  CG        10.9960   65.7870   66.0720 C.3   197  LYS197      0.0035
     48  CD        12.0670   64.7370   65.8440 C.3   197  LYS197      0.0206
     49  CE        13.4580   65.3130   66.0470 C.3   197  LYS197      0.1093
     50  NZ        13.8660   66.2850   64.9860 N.3   197  LYS197     -0.1314
     51  N          9.2870   67.2450   63.2510 N.am  198  VAL198     -0.1966
     52  CA         9.8740   67.4710   61.9360 C.3   198  VAL198      0.1727
     53  C         11.3070   67.9350   62.1420 C.2   198  VAL198      0.2616
     54  O         11.5990   68.6540   63.1060 O.2   198  VAL198     -0.2715
     55  CB         9.0660   68.5030   61.1230 C.3   198  VAL198      0.0290
     56  CG1        9.6510   68.6770   59.7220 C.3   198  VAL198      0.0023
     57  CG2        7.6110   68.0770   61.0510 C.3   198  VAL198      0.0023
     58  N         12.2020   67.4940   61.2570 N.am  199  ASP199     -0.1971
     59  CA        13.5930   67.9330   61.2650 C.3   199  ASP199      0.1709
     60  C         13.6730   69.4400   61.4570 C.2   199  ASP199      0.2293
     61  O         12.9690   70.2010   60.7900 O.2   199  ASP199     -0.2864
     62  CB        14.2690   67.5210   59.9540 C.3   199  ASP199      0.1436
     63  CG        15.7690   67.7440   59.9690 C.2   199  ASP199      0.3671
     64  OD1       16.2000   68.9120   60.0470 O.co2 199  ASP199     -0.2456
     65  OD2       16.5210   66.7480   59.9020 O.co2 199  ASP199     -0.2456
     66  N         15.6720   71.7160   60.7000 N.3   201  LYS201     -0.1245
     67  CA        16.0620   72.5680   59.5790 C.3   201  LYS201      0.1561
     68  C         14.8510   73.1090   58.8350 C.2   201  LYS201      0.2260
     69  O         14.9130   74.2050   58.2660 O.2   201  LYS201     -0.2867
     70  CB        16.9650   71.8040   58.6060 C.3   201  LYS201      0.0271
     71  CG        18.2520   71.2570   59.1980 C.3   201  LYS201      0.0035
     72  CD        19.1510   70.7330   58.0890 C.3   201  LYS201      0.0206
     73  CE        20.0440   69.6010   58.5670 C.3   201  LYS201      0.1093
     74  NZ        19.3050   68.3090   58.6800 N.3   201  LYS201     -0.1314
     75  N         13.4200   69.1080   68.4770 N.3   228  SER228     -0.1202
     76  CA        14.5080   68.5890   69.2920 C.3   228  SER228      0.2020
     77  C         15.5350   67.9500   68.3740 C.2   228  SER228      0.2619
     78  O         15.2580   67.6790   67.2030 O.2   228  SER228     -0.2717
     79  CB        14.0010   67.5690   70.3220 C.3   228  SER228      0.2103
     80  OG        13.6100   66.3560   69.6980 O.3   228  SER228     -0.2182
     81  N         16.7300   67.7190   68.9140 N.am  229  ASP229     -0.1959
     82  CA        17.6620   66.8610   68.2040 C.3   229  ASP229      0.1840
     83  C         17.2110   65.4100   68.3400 C.2   229  ASP229      0.2623
     84  O         16.3000   65.0840   69.1070 O.2   229  ASP229     -0.2715
     85  CB        19.0980   67.0530   68.7070 C.3   229  ASP229      0.1450
     86  CG        19.2650   66.7610   70.1930 C.2   229  ASP229      0.3671
     87  OD1       18.6840   65.7810   70.7050 O.co2 229  ASP229     -0.2456
     88  OD2       20.0250   67.5060   70.8490 O.co2 229  ASP229     -0.2456
     89  N         17.8630   64.5290   67.5800 N.am  230  GLY230     -0.1940
     90  CA        17.4280   63.1420   67.5420 C.3   230  GLY230      0.2014
     91  C         17.5520   62.4460   68.8830 C.2   230  GLY230      0.2638
     92  O         16.7280   61.5980   69.2330 O.2   230  GLY230     -0.2714
     93  N         18.5760   62.8060   69.6590 N.am  231  ALA231     -0.1977
     94  CA        18.8020   62.1350   70.9330 C.3   231  ALA231      0.1597
     95  C         17.6800   62.4330   71.9180 C.2   231  ALA231      0.2287
     96  O         17.2470   61.5470   72.6650 O.2   231  ALA231     -0.2864
     97  CB        20.1550   62.5490   71.5090 C.3   231  ALA231      0.0319
     98  N         14.5430   63.2350   71.1090 N.3   233  MET233     -0.1230
     99  CA        13.3470   62.5370   70.6450 C.3   233  MET233      0.1702
    100  C         13.4190   61.0520   70.9730 C.2   233  MET233      0.2592
    101  O         12.4030   60.4280   71.3020 O.2   233  MET233     -0.2718
    102  CB        13.1640   62.7480   69.1430 C.3   233  MET233      0.0401
    103  CG        11.8150   62.2900   68.6170 C.3   233  MET233      0.0596
    104  SD        10.4490   63.2010   69.3610 S.3   233  MET233     -0.1393
    105  CE         9.0530   62.4500   68.5310 C.3   233  MET233      0.0692
    106  N         14.6180   60.4680   70.8870 N.am  234  ASN234     -0.1974
    107  CA        14.7910   59.0660   71.2520 C.3   234  ASN234      0.1688
    108  C         14.4470   58.8390   72.7180 C.2   234  ASN234      0.2292
    109  O         13.7920   57.8500   73.0660 O.2   234  ASN234     -0.2864
    110  CB        16.2260   58.6270   70.9640 C.3   234  ASN234      0.1181
    111  CG        16.3020   57.2320   70.3800 C.2   234  ASN234      0.2629
    112  OD1       17.1470   56.9500   69.5300 O.2   234  ASN234     -0.2716
    113  ND2       15.4120   56.3530   70.8240 N.am  234  ASN234     -0.0877
    114  N         10.6470   58.8680   73.1760 N.3   237  LEU237     -0.1245
    115  CA        10.0260   57.6290   72.7220 C.3   237  LEU237      0.1561
    116  C         10.1540   56.5350   73.7740 C.2   237  LEU237      0.2260
    117  O          9.2040   55.7840   74.0220 O.2   237  LEU237     -0.2867
    118  CB        10.6530   57.1820   71.4030 C.3   237  LEU237      0.0270
    119  CG        10.3740   58.0700   70.1900 C.3   237  LEU237      0.0019
    120  CD1       11.2750   57.6920   69.0250 C.3   237  LEU237      0.0001
    121  CD2        8.9110   57.9700   69.7960 C.3   237  LEU237      0.0001
    122  N          8.0350   56.5870   61.5070 N.3   247  PHE247     -0.1227
    123  CA         9.3240   57.2180   61.2670 C.3   247  PHE247      0.1736
    124  C          9.6260   57.2620   59.7750 C.2   247  PHE247      0.2596
    125  O          9.5640   56.2320   59.0870 O.2   247  PHE247     -0.2718
    126  CB        10.4670   56.5010   61.9810 C.3   247  PHE247      0.0547
    127  CG        11.8080   57.0620   61.6430 C.ar  247  PHE247     -0.0202
    128  CD1       12.2850   58.1710   62.3100 C.ar  247  PHE247     -0.0042
    129  CD2       12.5710   56.5310   60.6130 C.ar  247  PHE247     -0.0042
    130  CE1       13.5160   58.7210   61.9910 C.ar  247  PHE247     -0.0003
    131  CE2       13.8050   57.0870   60.2930 C.ar  247  PHE247     -0.0003
    132  CZ        14.2690   58.1780   60.9870 C.ar  247  PHE247     -0.0000
    133  N          9.9860   58.4460   59.2850 N.am  248  THR248     -0.1939
    134  CA        10.4290   58.6280   57.9110 C.3   248  THR248      0.2028
    135  C         11.7960   59.3000   57.9310 C.2   248  THR248      0.2643
    136  O         11.9460   60.4150   58.4510 O.2   248  THR248     -0.2714
    137  CB         9.4380   59.4830   57.1090 C.3   248  THR248      0.1808
    138  OG1        8.1280   58.8980   57.2090 O.3   248  THR248     -0.2208
    139  CG2        9.8350   59.5890   55.6340 C.3   248  THR248      0.0379
    140  N         12.7900   58.6310   57.3580 N.am  249  GLY249     -0.1939
    141  CA        14.1330   59.1620   57.2760 C.3   249  GLY249      0.2014
    142  C         15.1640   58.1340   56.8620 C.2   249  GLY249      0.2639
    143  O         14.8970   57.2850   56.0100 O.2   249  GLY249     -0.2714
    144  N         16.3470   58.1990   57.4690 N.am  250  SER250     -0.1949
    145  CA        17.4470   57.3250   57.0870 C.3   250  SER250      0.1924
    146  C         17.2140   55.8970   57.5740 C.2   250  SER250      0.2314
    147  O         16.5320   55.6580   58.5740 O.2   250  SER250     -0.2863
    148  CB        18.7740   57.8540   57.6490 C.3   250  SER250      0.2116
    149  OG        18.7840   57.8130   59.0650 O.3   250  SER250     -0.2180
    150  N         18.7450   55.3400   61.2910 N.3   253  VAL253     -0.1245
    151  CA        17.8860   55.7160   62.4080 C.3   253  VAL253      0.1561
    152  C         16.6530   54.8230   62.4580 C.2   253  VAL253      0.2260
    153  O         16.1590   54.4840   63.5410 O.2   253  VAL253     -0.2867
    154  CB        17.5080   57.2050   62.3090 C.3   253  VAL253      0.0252
    155  CG1       16.5990   57.5970   63.4630 C.3   253  VAL253      0.0019
    156  CG2       18.7650   58.0530   62.3100 C.3   253  VAL253      0.0019
    157  N         17.4550   51.6190   64.1540 N.3   256  LYS256     -0.1231
    158  CA        17.7360   51.8710   65.5650 C.3   256  LYS256      0.1693
    159  C         16.4450   52.0290   66.3570 C.2   256  LYS256      0.2591
    160  O         16.2930   51.4520   67.4410 O.2   256  LYS256     -0.2718
    161  CB        18.6090   53.1170   65.7200 C.3   256  LYS256      0.0285
    162  CG        19.1160   53.3520   67.1410 C.3   256  LYS256      0.0035
    163  CD        19.4000   54.8300   67.3910 C.3   256  LYS256      0.0206
    164  CE        20.1160   55.0580   68.7200 C.3   256  LYS256      0.1093
    165  NZ        19.2990   54.6400   69.8950 N.3   256  LYS256     -0.1314
    166  N         15.5030   52.8170   65.8280 N.am  257  LEU257     -0.1980
    167  CA        14.2260   53.0100   66.5070 C.3   257  LEU257      0.1596
    168  C         13.4130   51.7230   66.5280 C.2   257  LEU257      0.2287
    169  O         12.7740   51.4090   67.5380 O.2   257  LEU257     -0.2864
    170  CB        13.4290   54.1350   65.8450 C.3   257  LEU257      0.0297
    171  CG        13.9200   55.5650   66.0710 C.3   257  LEU257      0.0022
    172  CD1       12.8990   56.5600   65.5420 C.3   257  LEU257      0.0001
    173  CD2       14.1980   55.8100   67.5430 C.3   257  LEU257      0.0001
    174  N         22.2780   66.8850   53.3550 N.3   343  THR343     -0.1218
    175  CA        22.8070   65.7900   54.1580 C.3   343  THR343      0.1862
    176  C         24.0490   65.1160   53.5860 C.2   343  THR343      0.2287
    177  O         24.5270   64.1460   54.1830 O.2   343  THR343     -0.2866
    178  CB        21.7270   64.7200   54.3900 C.3   343  THR343      0.1770
    179  OG1       21.1720   64.3080   53.1340 O.3   343  THR343     -0.2211
    180  CG2       20.6200   65.2680   55.2750 C.3   343  THR343      0.0375
    181  N         22.1570   60.7150   48.8180 N.3   409  PHE409     -0.1241
    182  CA        20.9800   61.5830   48.8550 C.3   409  PHE409      0.1605
    183  C         21.3550   62.9500   48.2820 C.2   409  PHE409      0.2264
    184  O         21.3730   63.9770   48.9630 O.2   409  PHE409     -0.2867
    185  CB        20.4240   61.6820   50.2690 C.3   409  PHE409      0.0534
    186  CG        18.9380   61.8810   50.3110 C.ar  409  PHE409     -0.0203
    187  CD1       18.0800   60.8780   49.8810 C.ar  409  PHE409     -0.0042
    188  CD2       18.4000   63.0740   50.7650 C.ar  409  PHE409     -0.0042
    189  CE1       16.7120   61.0610   49.9120 C.ar  409  PHE409     -0.0003
    190  CE2       17.0370   63.2650   50.7980 C.ar  409  PHE409     -0.0003
    191  CZ        16.1890   62.2580   50.3720 C.ar  409  PHE409     -0.0000
@<TRIPOS>BOND
     1   183   182    1
     2   183   184    2
     3   181   182    1
     4   182   185    1
     5   187   189   ar
     6   187   186   ar
     7   189   191   ar
     8   185   186    1
     9   186   188   ar
    10   191   190   ar
    11   188   190   ar
    12    41    39   am
    13    37    36    2
    14    38    39    1
    15    38    35    1
    16    39    40    2
    17    36    35    1
    18    35    34    1
    19    32    33   ar
    20    32    30   ar
    21    33    31   ar
    22   179   178    1
    23   174   175    1
    24    30    28   ar
    25   176   175    1
    26   176   177    2
    27    31    29   ar
    28    34    25   am
    29   175   178    1
    30    26    25    2
    31   178   180    1
    32    25    24    1
    33    28    29   ar
    34    28    27    1
    35   139   137    1
    36    21    20    1
    37    21    22    1
    38    27    24    1
    39    24    23    1
    40   143   142    2
    41    23    18   am
    42    20    17    1
    43    22    16    1
    44   142   141    1
    45   142   144   am
    46    19    18    2
    47    18    17    1
    48   145   144    1
    49   145   146    1
    50   145   148    1
    51   137   138    1
    52   137   134    1
    53   141   140    1
    54   140   135   am
    55    17    16    1
    56   146   147    2
    57   148   149    1
    58    16    11   am
    59   134   135    1
    60   134   133    1
    61   135   136    2
    62    72    73    1
    63    72    71    1
    64    69    68    2
    65    73    74    1
    66    70    71    1
    67    70    67    1
    68    68    67    1
    69    13    14    1
    70    13    15    1
    71    13    10    1
    72   125   124    2
    73    11    10    1
    74    11    12    2
    75   133   124   am
    76    10     9    1
    77    67    66    1
    78    56    55    1
    79   124   123    1
    80    65    63   ar
    81    62    63    1
    82    62    59    1
    83    63    64   ar
    84   131   129   ar
    85   131   132   ar
    86   129   127   ar
    87    61    60    2
    88     4     3    2
    89     9     3   am
    90   132   130   ar
    91    57    55    1
    92    55    52    1
    93    58    59    1
    94    58    53   am
    95    59    60    1
    96   123   122    1
    97   123   126    1
    98   150   151    1
    99     3     2    1
   100   127   126    1
   101   127   128   ar
   102    52    53    1
   103    52    51    1
   104   130   128   ar
   105    53    54    2
   106   154   156    1
   107   154   151    1
   108   154   155    1
   109   151   152    1
   110   152   153    2
   111     2     1    1
   112     2     5    1
   113    45    44    2
   114    51    44   am
   115     7     5    1
   116     5     6    1
   117    44    43    1
   118   157   158    1
   119    50    49    1
   120     6     8    1
   121    43    42    1
   122    43    46    1
   123   172   171    1
   124   158   161    1
   125   158   159    1
   126   161   162    1
   127   166   159   am
   128   166   167    1
   129    48    49    1
   130    48    47    1
   131   170   171    1
   132   170   167    1
   133    46    47    1
   134   171   173    1
   135   159   160    2
   136   167   168    1
   137   168   169    2
   138   162   163    1
   139    78    77    2
   140   163   164    1
   141    90    89    1
   142    90    91    1
   143    89    83   am
   144    82    83    1
   145    82    85    1
   146    82    81    1
   147    83    84    2
   148    77    81   am
   149    77    76    1
   150    75    76    1
   151   105   104    1
   152   103   102    1
   153   103   104    1
   154    85    86    1
   155   164   165    1
   156    91    92    2
   157    91    93   am
   158   120   119    1
   159   102    99    1
   160    76    79    1
   161   112   111    2
   162    93    94    1
   163    80    79    1
   164   121   119    1
   165   119   118    1
   166    86    87   ar
   167    86    88   ar
   168   111   113   am
   169   111   110    1
   170    99   100    1
   171    99    98    1
   172   106   100   am
   173   106   107    1
   174    94    97    1
   175    94    95    1
   176   110   107    1
   177   100   101    2
   178   107   108    1
   179   118   115    1
   180    95    96    2
   181   108   109    2
   182   115   114    1
   183   115   116    1
   184   116   117    2
