@<TRIPOS>MOLECULE
tmp/6d9hD00.pdb
 169 159 0 0 0
SMALL
GASTEIGER

@<TRIPOS>ATOM
      1  N         88.5720  118.0770  100.9830 N.3    62  ALA62      -0.1245
      2  CA        87.8740  118.7610   99.8940 C.3    62  ALA62       0.1562
      3  C         86.6430  119.5050  100.3950 C.2    62  ALA62       0.2260
      4  O         86.3910  120.6410   99.9720 O.2    62  ALA62      -0.2867
      5  CB        87.4780  117.7740   98.8000 C.3    62  ALA62       0.0290
      6  N         87.9060  122.6120  102.2140 N.3    65  ILE65      -0.1245
      7  CA        88.3080  123.6590  101.2730 C.3    65  ILE65       0.1561
      8  C         87.0850  124.3460  100.6750 C.2    65  ILE65       0.2260
      9  O         87.0140  125.5800  100.6170 O.2    65  ILE65      -0.2867
     10  CB        89.2130  123.0800  100.1680 C.3    65  ILE65       0.0252
     11  CG1       90.5420  122.5770  100.7260 C.3    65  ILE65       0.0019
     12  CG2       89.4730  124.1000   99.0930 C.3    65  ILE65       0.0019
     13  CD1       91.3650  123.6140  101.3830 C.3    65  ILE65       0.0001
     14  N         95.8100  116.5670   99.2540 N.3    83  VAL83      -0.1231
     15  CA        94.9050  116.2480   98.1540 C.3    83  VAL83       0.1692
     16  C         95.7020  115.8140   96.9350 C.2    83  VAL83       0.2591
     17  O         95.5010  114.7190   96.3890 O.2    83  VAL83      -0.2718
     18  CB        94.0170  117.4590   97.8300 C.3    83  VAL83       0.0266
     19  CG1       93.1620  117.1590   96.6420 C.3    83  VAL83       0.0020
     20  CG2       93.1550  117.8090   99.0170 C.3    83  VAL83       0.0020
     21  N         96.5930  116.6940   96.4790 N.am   84  LEU84      -0.1980
     22  CA        97.4690  116.3890   95.3570 C.3    84  LEU84       0.1596
     23  C         98.3740  115.2060   95.6640 C.2    84  LEU84       0.2287
     24  O         98.6080  114.3620   94.7830 O.2    84  LEU84      -0.2864
     25  CB        98.3140  117.6060   94.9910 C.3    84  LEU84       0.0297
     26  CG        97.6730  118.8230   94.3220 C.3    84  LEU84       0.0022
     27  CD1       96.8880  119.7170   95.2660 C.3    84  LEU84       0.0001
     28  CD2       98.7330  119.5890   93.6350 C.3    84  LEU84       0.0001
     29  N         96.0520  112.0110   95.1840 N.3    87  THR87      -0.1218
     30  CA        95.5410  111.7840   93.8300 C.3    87  THR87       0.1862
     31  C         96.6520  111.4090   92.8490 C.2    87  THR87       0.2287
     32  O         96.4490  110.5550   91.9670 O.2    87  THR87      -0.2866
     33  CB        94.7750  113.0060   93.3330 C.3    87  THR87       0.1770
     34  OG1       95.6380  114.1450   93.3330 O.3    87  THR87      -0.2211
     35  CG2       93.5550  113.2650   94.2010 C.3    87  THR87       0.0375
     36  N         90.5480  128.9350   99.9830 N.3   166  GLU166     -0.1231
     37  CA        89.9030  128.5020   98.7540 C.3   166  GLU166      0.1699
     38  C         90.9970  128.1010   97.7770 C.2   166  GLU166      0.2592
     39  O         91.9920  128.8150   97.6350 O.2   166  GLU166     -0.2718
     40  CB        89.0220  129.6140   98.1690 C.3   166  GLU166      0.0402
     41  CG        88.2450  129.2280   96.9240 C.3   166  GLU166      0.1161
     42  CD        87.1470  128.2230   97.2020 C.2   166  GLU166      0.3649
     43  OE1       86.6160  128.2120   98.3320 O.co2 166  GLU166     -0.2457
     44  OE2       86.8170  127.4400   96.2870 O.co2 166  GLU166     -0.2457
     45  N         90.7850  126.9780   97.0830 N.am  167  PHE167     -0.1962
     46  CA        91.8850  126.2680   96.4360 C.3   167  PHE167      0.1771
     47  C         92.4070  127.0170   95.2150 C.2   167  PHE167      0.2619
     48  O         93.6110  126.9820   94.9450 O.2   167  PHE167     -0.2715
     49  CB        91.4250  124.8440   96.0790 C.3   167  PHE167      0.0574
     50  CG        92.5160  123.9270   95.5480 C.ar  167  PHE167     -0.0200
     51  CD1       93.0160  122.9170   96.3520 C.ar  167  PHE167     -0.0042
     52  CD2       92.9300  123.9680   94.2220 C.ar  167  PHE167     -0.0042
     53  CE1       93.9820  122.0570   95.8780 C.ar  167  PHE167     -0.0003
     54  CE2       93.8900  123.1140   93.7520 C.ar  167  PHE167     -0.0003
     55  CZ        94.4110  122.1590   94.5740 C.ar  167  PHE167     -0.0000
     56  N         91.5270  127.6760   94.4540 N.am  168  GLU168     -0.1977
     57  CA        91.9730  128.3860   93.2570 C.3   168  GLU168      0.1602
     58  C         92.8890  129.5560   93.5920 C.2   168  GLU168      0.2287
     59  O         93.8720  129.8040   92.8870 O.2   168  GLU168     -0.2864
     60  CB        90.7710  128.9110   92.4720 C.3   168  GLU168      0.0415
     61  CG        89.8770  127.8780   91.7960 C.3   168  GLU168      0.1163
     62  CD        88.7890  127.3420   92.7090 C.2   168  GLU168      0.3649
     63  OE1       88.7050  127.7900   93.8710 O.co2 168  GLU168     -0.2457
     64  OE2       87.9860  126.5050   92.2470 O.co2 168  GLU168     -0.2457
     65  N         97.6540  128.5370   89.2700 N.3   173  MET173     -0.1245
     66  CA        97.1350  127.7830   88.1330 C.3   173  MET173      0.1570
     67  C         98.2550  127.2790   87.2430 C.2   173  MET173      0.2261
     68  O         98.1130  126.2300   86.6050 O.2   173  MET173     -0.2867
     69  CB        96.1600  128.6300   87.3250 C.3   173  MET173      0.0387
     70  CG        94.8350  128.8390   88.0080 C.3   173  MET173      0.0595
     71  SD        94.0450  127.2620   88.3530 S.3   173  MET173     -0.1393
     72  CE        92.5750  127.8320   89.1900 C.3   173  MET173      0.0692
     73  N         99.4010  123.9810   88.5220 N.3   176  MET176     -0.1245
     74  CA        98.3590  122.9770   88.3330 C.3   176  MET176      0.1570
     75  C         98.2920  122.5190   86.8910 C.2   176  MET176      0.2261
     76  O         98.1060  121.3290   86.6200 O.2   176  MET176     -0.2867
     77  CB        97.0070  123.4820   88.8200 C.3   176  MET176      0.0387
     78  CG        96.0660  122.3270   88.9980 C.3   176  MET176      0.0595
     79  SD        96.7470  121.3150   90.3190 S.3   176  MET176     -0.1393
     80  CE        95.6010  119.9500   90.3140 C.3   176  MET176      0.0692
     81  N        101.6700  119.7780   86.7980 N.3   180  ASN180     -0.1240
     82  CA       100.8510  118.6120   87.1000 C.3   180  ASN180      0.1653
     83  C        100.2100  118.0530   85.8250 C.2   180  ASN180      0.2266
     84  O        100.5340  116.9300   85.4240 O.2   180  ASN180     -0.2867
     85  CB        99.7930  118.9790   88.1430 C.3   180  ASN180      0.1155
     86  CG        99.1520  117.7670   88.8040 C.2   180  ASN180      0.2627
     87  OD1       98.2840  117.9100   89.6610 O.2   180  ASN180     -0.2716
     88  ND2       99.6470  116.5830   88.4910 N.am  180  ASN180     -0.0877
     89  N         89.3420  111.8100   85.0510 N.3   234  TRP234     -0.1241
     90  CA        90.3870  112.7930   85.3210 C.3   234  TRP234      0.1605
     91  C         90.3240  114.0240   84.4250 C.2   234  TRP234      0.2264
     92  O         90.4940  115.1420   84.9190 O.2   234  TRP234     -0.2867
     93  CB        91.7530  112.1260   85.2220 C.3   234  TRP234      0.0550
     94  CG        91.9620  111.2400   86.3830 C.ar  234  TRP234      0.0003
     95  CD1       91.7570  109.9040   86.4310 C.ar  234  TRP234      0.0946
     96  CD2       92.4010  111.6280   87.6840 C.ar  234  TRP234      0.0152
     97  NE1       92.0470  109.4210   87.6820 N.ar  234  TRP234     -0.2442
     98  CE2       92.4450  110.4650   88.4720 C.ar  234  TRP234      0.0810
     99  CE3       92.7650  112.8460   88.2590 C.ar  234  TRP234      0.0012
    100  CZ2       92.8360  110.4830   89.8000 C.ar  234  TRP234      0.0191
    101  CZ3       93.1550  112.8620   89.5720 C.ar  234  TRP234      0.0001
    102  CH2       93.1880  111.6890   90.3310 C.ar  234  TRP234      0.0015
    103  N         88.1520  118.0590   84.9440 N.3   237  LEU237     -0.1231
    104  CA        88.6470  119.0650   85.8830 C.3   237  LEU237      0.1693
    105  C         89.9120  119.7360   85.3660 C.2   237  LEU237      0.2592
    106  O         90.0760  120.9580   85.4820 O.2   237  LEU237     -0.2718
    107  CB        88.8930  118.4260   87.2430 C.3   237  LEU237      0.0284
    108  CG        89.4060  119.3540   88.3300 C.3   237  LEU237      0.0019
    109  CD1       88.3830  120.4260   88.6120 C.3   237  LEU237      0.0001
    110  CD2       89.6770  118.5400   89.5670 C.3   237  LEU237      0.0001
    111  N         90.8150  118.9510   84.7860 N.am  238  HIS238     -0.1976
    112  CA        92.0540  119.5080   84.2680 C.3   238  HIS238      0.1656
    113  C         91.8290  120.3440   83.0130 C.2   238  HIS238      0.2291
    114  O         92.5220  121.3480   82.8160 O.2   238  HIS238     -0.2864
    115  CB        93.0340  118.3800   84.0040 C.3   238  HIS238      0.0771
    116  CG        93.5740  117.7540   85.2490 C.ar  238  HIS238      0.0820
    117  ND1       92.9270  116.7340   85.9110 N.ar  238  HIS238     -0.2267
    118  CD2       94.7080  117.9950   85.9480 C.ar  238  HIS238      0.1154
    119  CE1       93.6320  116.3830   86.9700 C.ar  238  HIS238      0.1986
    120  NE2       94.7190  117.1310   87.0140 N.ar  238  HIS238     -0.2212
    121  N         90.6520  123.6440   84.4200 N.3   241  ASN241     -0.1240
    122  CA        91.7920  124.4320   84.8880 C.3   241  ASN241      0.1653
    123  C         92.5790  125.0190   83.7220 C.2   241  ASN241      0.2266
    124  O         93.0320  126.1700   83.7820 O.2   241  ASN241     -0.2867
    125  CB        92.7060  123.5800   85.7630 C.3   241  ASN241      0.1155
    126  CG        92.0780  123.2350   87.0840 C.2   241  ASN241      0.2627
    127  OD1       91.4030  124.0600   87.6950 O.2   241  ASN241     -0.2716
    128  ND2       92.3080  122.0140   87.5450 N.am  241  ASN241     -0.0877
    129  N         82.7760  130.4080   83.3260 N.3   252  LYS252     -0.1245
    130  CA        82.1840  129.0990   83.5250 C.3   252  LYS252      0.1561
    131  C         81.3570  129.0780   84.8070 C.2   252  LYS252      0.2260
    132  O         81.6140  129.8610   85.7270 O.2   252  LYS252     -0.2867
    133  CB        83.2670  128.0110   83.5910 C.3   252  LYS252      0.0271
    134  CG        84.2240  128.1380   84.7600 C.3   252  LYS252      0.0035
    135  CD        85.2590  127.0320   84.7340 C.3   252  LYS252      0.0206
    136  CE        86.1970  127.1190   85.9260 C.3   252  LYS252      0.1093
    137  NZ        87.0910  128.3060   85.8610 N.3   252  LYS252     -0.1314
    138  N         82.4320  122.9720   87.7200 N.3   257  THR257     -0.1218
    139  CA        83.6410  122.6500   88.4710 C.3   257  THR257      0.1862
    140  C         83.3570  121.6210   89.5610 C.2   257  THR257      0.2287
    141  O         84.1600  120.7060   89.7840 O.2   257  THR257     -0.2866
    142  CB        84.2310  123.9320   89.0650 C.3   257  THR257      0.1770
    143  OG1       84.5380  124.8460   88.0070 O.3   257  THR257     -0.2211
    144  CG2       85.5080  123.6510   89.8410 C.3   257  THR257      0.0375
    145  N         85.0250  117.9090   89.9790 N.3   261  ILE261     -0.1245
    146  CA        85.7130  117.4610   91.1880 C.3   261  ILE261      0.1561
    147  C         85.1320  116.1440   91.6980 C.2   261  ILE261      0.2260
    148  O         85.8890  115.2390   92.0860 O.2   261  ILE261     -0.2867
    149  CB        85.6890  118.5620   92.2640 C.3   261  ILE261      0.0252
    150  CG1       86.5170  119.7570   91.8120 C.3   261  ILE261      0.0019
    151  CG2       86.3060  118.0790   93.5490 C.3   261  ILE261      0.0019
    152  CD1       86.3380  120.9750   92.6760 C.3   261  ILE261      0.0001
    153  N         86.4380  113.3640   89.6190 N.3   264  THR264     -0.1203
    154  CA        87.8230  113.1080   90.0180 C.3   264  THR264      0.1994
    155  C         87.8870  112.2220   91.2590 C.2   264  THR264      0.2617
    156  O         88.6760  111.2720   91.3180 O.2   264  THR264     -0.2717
    157  CB        88.5560  114.4310   90.2480 C.3   264  THR264      0.1784
    158  OG1       88.5760  115.1830   89.0310 O.3   264  THR264     -0.2211
    159  CG2       89.9800  114.1920   90.6880 C.3   264  THR264      0.0376
    160  N         87.0430  112.5020   92.2490 N.am  265  HIS265     -0.1975
    161  CA        86.9480  111.6090   93.4000 C.3   265  HIS265      0.1656
    162  C         86.1360  110.3470   93.1070 C.2   265  HIS265      0.2291
    163  O         86.2740  109.3640   93.8390 O.2   265  HIS265     -0.2864
    164  CB        86.3620  112.3570   94.5960 C.3   265  HIS265      0.0771
    165  CG        87.2230  113.4820   95.0750 C.ar  265  HIS265      0.0820
    166  ND1       86.7660  114.4590   95.9300 N.ar  265  HIS265     -0.2267
    167  CD2       88.5120  113.7940   94.8000 C.ar  265  HIS265      0.1154
    168  CE1       87.7380  115.3210   96.1690 C.ar  265  HIS265      0.1986
    169  NE2       88.8080  114.9400   95.4950 N.ar  265  HIS265     -0.2212
@<TRIPOS>BOND
     1   114   113    2
     2   113   112    1
     3   129   130    1
     4   130   133    1
     5   130   131    1
     6   133   134    1
     7   123   124    2
     8   123   122    1
     9   115   112    1
    10   115   116    1
    11   112   111    1
    12   121   122    1
    13    91    92    2
    14    91    90    1
    15   135   134    1
    16   135   136    1
    17   111   105   am
    18   131   132    2
    19   122   125    1
    20   103   104    1
    21    89    90    1
    22    93    90    1
    23    93    94    1
    24   116   117   ar
    25   116   118   ar
    26   105   106    2
    27   105   104    1
    28    84    83    2
    29   125   126    1
    30    83    82    1
    31   137   136    1
    32   104   107    1
    33   117   119   ar
    34   118   120   ar
    35    94    95   ar
    36    94    96   ar
    37    95    97   ar
    38    68    67    2
    39    76    75    2
    40    81    82    1
    41    75    74    1
    42   119   120   ar
    43   126   128   am
    44   126   127    2
    45    82    85    1
    46    67    66    1
    47   107   108    1
    48    69    70    1
    49    69    66    1
    50    97    98   ar
    51    96    99   ar
    52    96    98   ar
    53   138   139    1
    54   143   142    1
    55    70    71    1
    56    66    65    1
    57    85    86    1
    58    99   101   ar
    59   108   109    1
    60   108   110    1
    61    74    73    1
    62    74    77    1
    63    71    72    1
    64   139   142    1
    65   139   140    1
    66    98   100   ar
    67    88    86   am
    68    86    87    2
    69    77    78    1
    70    78    79    1
    71   158   157    1
    72   142   144    1
    73   140   141    2
    74   101   102   ar
    75   153   154    1
    76   100   102   ar
    77   145   146    1
    78   154   157    1
    79   154   155    1
    80   157   159    1
    81    80    79    1
    82   146   147    1
    83   146   149    1
    84   155   156    2
    85   155   160   am
    86   147   148    2
    87    61    60    1
    88    61    62    1
    89   150   149    1
    90   150   152    1
    91    32    31    2
    92    64    62   ar
    93   160   161    1
    94   149   151    1
    95    60    57    1
    96    62    63   ar
    97    31    30    1
    98    59    58    2
    99   162   161    1
   100   162   163    2
   101    57    58    1
   102    57    56    1
   103    33    34    1
   104    33    30    1
   105    33    35    1
   106   161   164    1
   107    28    26    1
   108    54    52   ar
   109    54    55   ar
   110    30    29    1
   111    52    50   ar
   112    26    25    1
   113    26    27    1
   114    56    47   am
   115    55    53   ar
   116   164   165    1
   117    24    23    2
   118   167   165   ar
   119   167   169   ar
   120    48    47    2
   121    25    22    1
   122   165   166   ar
   123    47    46    1
   124    22    23    1
   125    22    21    1
   126   169   168   ar
   127    50    49    1
   128    50    51   ar
   129    53    51   ar
   130   166   168   ar
   131    49    46    1
   132    44    42   ar
   133    17    16    2
   134    46    45    1
   135    21    16   am
   136    19    18    1
   137    41    42    1
   138    41    40    1
   139    16    15    1
   140    45    38   am
   141    42    43   ar
   142    39    38    2
   143    38    37    1
   144    18    15    1
   145    18    20    1
   146    15    14    1
   147    40    37    1
   148    37    36    1
   149     5     2    1
   150    12    10    1
   151     2     3    1
   152     2     1    1
   153     4     3    2
   154    10    11    1
   155    10     7    1
   156     9     8    2
   157     8     7    1
   158    11    13    1
   159     7     6    1
