@<TRIPOS>MOLECULE
tmp/6d9xA00.pdb
 123 117 0 0 0
SMALL
GASTEIGER

@<TRIPOS>ATOM
      1  N         -0.9210   28.0540    2.5300 N.3    18  ALA18      -0.1245
      2  CA        -1.6710   26.9610    1.9040 C.3    18  ALA18       0.1562
      3  C         -2.1540   27.3330    0.5060 C.2    18  ALA18       0.2260
      4  O         -2.6200   28.4440    0.2810 O.2    18  ALA18      -0.2867
      5  CB        -2.8680   26.5650    2.7750 C.3    18  ALA18       0.0290
      6  N         -4.9500   26.8930   -2.3280 N.3    20  SER20      -0.1217
      7  CA        -6.3620   26.6030   -2.1730 C.3    20  SER20       0.1889
      8  C         -6.9740   26.0140   -3.4430 C.2    20  SER20       0.2288
      9  O         -7.8810   25.1860   -3.3700 O.2    20  SER20      -0.2866
     10  CB        -7.1070   27.8730   -1.7540 C.3    20  SER20       0.2089
     11  OG        -6.9550   28.8950   -2.7200 O.3    20  SER20      -0.2183
     12  N         -7.4720   33.7720   -0.5400 N.3    61  ILE61      -0.1231
     13  CA        -8.2970   33.4250   -1.6900 C.3    61  ILE61       0.1692
     14  C         -8.6330   31.9380   -1.6410 C.2    61  ILE61       0.2593
     15  O         -7.7450   31.1060   -1.4320 O.2    61  ILE61      -0.2718
     16  CB        -7.5720   33.7490   -3.0090 C.3    61  ILE61       0.0266
     17  CG1       -7.1920   35.2280   -3.0650 C.3    61  ILE61       0.0019
     18  CG2       -8.4240   33.3620   -4.1990 C.3    61  ILE61       0.0020
     19  CD1       -6.3410   35.5860   -4.2630 C.3    61  ILE61       0.0001
     20  N         -9.9050   31.5960   -1.8370 N.am   62  SER62      -0.1938
     21  CA       -10.3450   30.2070   -1.7300 C.3    62  SER62       0.2055
     22  C        -10.4650   29.5090   -3.0830 C.2    62  SER62       0.2643
     23  O        -10.4190   28.2860   -3.1530 O.2    62  SER62      -0.2714
     24  CB       -11.6860   30.1390   -0.9990 C.3    62  SER62       0.2130
     25  OG       -11.5080   30.3900    0.3810 O.3    62  SER62      -0.2179
     26  N        -10.6000   30.2860   -4.1540 N.am   63  ASP63      -0.1971
     27  CA       -10.8980   29.7210   -5.4600 C.3    63  ASP63       0.1709
     28  C        -10.5840   30.6780   -6.5870 C.2    63  ASP63       0.2293
     29  O        -10.5910   31.8920   -6.4060 O.2    63  ASP63      -0.2864
     30  CB       -12.3980   29.3310   -5.5360 C.3    63  ASP63       0.1436
     31  CG       -12.6920   28.3170   -6.6250 C.2    63  ASP63       0.3671
     32  OD1      -11.7370   27.7970   -7.2430 O.co2  63  ASP63      -0.2456
     33  OD2      -13.8940   28.0120   -6.8430 O.co2  63  ASP63      -0.2456
     34  N        -16.4720   31.3940   -1.0710 N.3   104  PHE104     -0.1227
     35  CA       -15.7170   30.1350   -1.0630 C.3   104  PHE104      0.1736
     36  C        -15.4660   29.4930   -2.4390 C.2   104  PHE104      0.2595
     37  O        -14.4870   28.7560   -2.6160 O.2   104  PHE104     -0.2718
     38  CB       -16.4230   29.1380   -0.1420 C.3   104  PHE104      0.0547
     39  CG       -15.6100   27.9120    0.1750 C.ar  104  PHE104     -0.0202
     40  CD1      -14.4320   28.0040    0.9200 C.ar  104  PHE104     -0.0042
     41  CD2      -16.0260   26.6580   -0.2530 C.ar  104  PHE104     -0.0042
     42  CE1      -13.6880   26.8670    1.2220 C.ar  104  PHE104     -0.0003
     43  CE2      -15.2820   25.5160    0.0470 C.ar  104  PHE104     -0.0003
     44  CZ       -14.1130   25.6250    0.7890 C.ar  104  PHE104     -0.0000
     45  N        -16.3130   29.7910   -3.4180 N.am  105  CYS105     -0.1970
     46  CA       -16.2510   29.1380   -4.7320 C.3   105  CYS105      0.1712
     47  C        -16.7590   30.0490   -5.8530 C.2   105  CYS105      0.2296
     48  O        -17.6090   30.9110   -5.6230 O.2   105  CYS105     -0.2864
     49  CB       -17.0580   27.8330   -4.7070 C.3   105  CYS105      0.0983
     50  SG       -18.7750   28.0030   -4.0420 S.3   105  CYS105     -0.0798
     51  N        -20.3210   25.1130   -0.5980 N.3   146  SER146     -0.1202
     52  CA       -18.9890   24.5390   -0.7890 C.3   146  SER146      0.2020
     53  C        -18.5370   24.5060   -2.2500 C.2   146  SER146      0.2618
     54  O        -17.3430   24.4520   -2.5310 O.2   146  SER146     -0.2717
     55  CB       -18.9520   23.1310   -0.2080 C.3   146  SER146      0.2103
     56  OG       -20.0050   22.3360   -0.7450 O.3   146  SER146     -0.2182
     57  N        -19.4840   24.5170   -3.1840 N.am  147  ALA147     -0.1979
     58  CA       -19.1520   24.5130   -4.6130 C.3   147  ALA147      0.1597
     59  C        -20.2960   25.0640   -5.4540 C.2   147  ALA147      0.2287
     60  O        -21.4580   24.9280   -5.0730 O.2   147  ALA147     -0.2864
     61  CB       -18.8020   23.1060   -5.0730 C.3   147  ALA147      0.0319
     62  N        -19.1220   18.4550    0.2310 N.3   189  SER189     -0.1202
     63  CA       -17.9600   19.3330    0.2050 C.3   189  SER189      0.2020
     64  C        -17.5680   19.7900   -1.1990 C.2   189  SER189      0.2618
     65  O        -16.7730   20.7140   -1.3510 O.2   189  SER189     -0.2717
     66  CB       -16.7630   18.6350    0.8640 C.3   189  SER189      0.2103
     67  OG       -16.6170   17.3110    0.3860 O.3   189  SER189     -0.2182
     68  N        -18.1170   19.1440   -2.2210 N.am  190  PHE190     -0.1975
     69  CA       -17.8190   19.5110   -3.6020 C.3   190  PHE190      0.1639
     70  C        -18.8240   18.9490   -4.5950 C.2   190  PHE190      0.2290
     71  O        -19.3400   17.8480   -4.4010 O.2   190  PHE190     -0.2864
     72  CB       -16.4200   19.0300   -4.0190 C.3   190  PHE190      0.0560
     73  CG       -16.0580   19.4300   -5.4180 C.ar  190  PHE190     -0.0200
     74  CD1      -15.6590   20.7280   -5.6920 C.ar  190  PHE190     -0.0042
     75  CD2      -16.1690   18.5280   -6.4710 C.ar  190  PHE190     -0.0042
     76  CE1      -15.3440   21.1240   -6.9910 C.ar  190  PHE190     -0.0003
     77  CE2      -15.8640   18.9180   -7.7720 C.ar  190  PHE190     -0.0003
     78  CZ       -15.4420   20.2180   -8.0290 C.ar  190  PHE190     -0.0000
     79  N        -12.0610   18.5020    4.7880 N.3   231  TYR231     -0.1227
     80  CA       -11.8160   19.5580    3.8170 C.3   231  TYR231      0.1736
     81  C        -12.6610   19.4540    2.5780 C.2   231  TYR231      0.2595
     82  O        -13.0370   18.3630    2.1670 O.2   231  TYR231     -0.2718
     83  CB       -10.3380   19.5600    3.4060 C.3   231  TYR231      0.0548
     84  CG        -9.4390   20.0230    4.5090 C.ar  231  TYR231     -0.0200
     85  CD1       -9.3050   21.3740    4.7890 C.ar  231  TYR231     -0.0009
     86  CD2       -8.7430   19.1110    5.2900 C.ar  231  TYR231     -0.0009
     87  CE1       -8.4910   21.8120    5.8070 C.ar  231  TYR231      0.0417
     88  CE2       -7.9330   19.5360    6.3110 C.ar  231  TYR231      0.0417
     89  CZ        -7.8100   20.8880    6.5670 C.ar  231  TYR231      0.1957
     90  OH        -6.9980   21.3180    7.5850 O.3   231  TYR231     -0.2866
     91  N        -12.9280   20.6050    1.9770 N.am  232  CYS232     -0.1970
     92  CA       -13.5940   20.6670    0.6850 C.3   232  CYS232      0.1712
     93  C        -12.5720   20.4450   -0.4220 C.2   232  CYS232      0.2296
     94  O        -11.8680   21.3550   -0.8210 O.2   232  CYS232     -0.2864
     95  CB       -14.2960   22.0070    0.5090 C.3   232  CYS232      0.0983
     96  SG       -15.7580   22.1720    1.5700 S.3   232  CYS232     -0.0798
     97  N        -11.5020   19.4740   -4.2490 N.3   234  PHE234     -0.1241
     98  CA       -11.9190   19.4300   -5.6510 C.3   234  PHE234      0.1605
     99  C        -11.8300   18.0010   -6.1870 C.2   234  PHE234      0.2264
    100  O        -11.0060   17.2020   -5.7230 O.2   234  PHE234     -0.2867
    101  CB       -11.0450   20.3560   -6.5130 C.3   234  PHE234      0.0534
    102  CG       -11.2260   21.8260   -6.2390 C.ar  234  PHE234     -0.0203
    103  CD1      -10.5890   22.4360   -5.1690 C.ar  234  PHE234     -0.0042
    104  CD2      -12.0120   22.6060   -7.0740 C.ar  234  PHE234     -0.0042
    105  CE1      -10.7490   23.8030   -4.9310 C.ar  234  PHE234     -0.0003
    106  CE2      -12.1690   23.9590   -6.8450 C.ar  234  PHE234     -0.0003
    107  CZ       -11.5380   24.5590   -5.7760 C.ar  234  PHE234     -0.0000
    108  N         -5.6100   19.3770   -1.5260 N.3   276  ILE276     -0.1245
    109  CA        -6.8840   20.0830   -1.4590 C.3   276  ILE276      0.1561
    110  C         -7.4900   20.2650   -2.8480 C.2   276  ILE276      0.2260
    111  O         -8.6970   20.3680   -3.0020 O.2   276  ILE276     -0.2867
    112  CB        -6.6960   21.4590   -0.7790 C.3   276  ILE276      0.0252
    113  CG1       -8.0490   22.0760   -0.3870 C.3   276  ILE276      0.0019
    114  CG2       -5.8770   22.4020   -1.6670 C.3   276  ILE276      0.0019
    115  CD1       -8.8610   21.1870    0.5450 C.3   276  ILE276      0.0001
    116  N         -1.8820   21.8290    1.1400 N.3   292  LEU292     -0.1245
    117  CA        -2.1140   22.7790    2.2190 C.3   292  LEU292      0.1561
    118  C         -0.8150   23.2240    2.9090 C.2   292  LEU292      0.2260
    119  O          0.2850   22.9210    2.4480 O.2   292  LEU292     -0.2867
    120  CB        -3.0910   22.1730    3.2430 C.3   292  LEU292      0.0270
    121  CG        -4.5140   21.9410    2.7030 C.3   292  LEU292      0.0019
    122  CD1       -5.4870   21.4790    3.7850 C.3   292  LEU292      0.0001
    123  CD2       -5.0340   23.2030    2.0410 C.3   292  LEU292      0.0001
@<TRIPOS>BOND
     1    78    77   ar
     2    78    76   ar
     3    77    75   ar
     4    32    31   ar
     5   104   106   ar
     6   104   102   ar
     7    76    74   ar
     8   106   107   ar
     9    33    31   ar
    10    31    30    1
    11    28    29    2
    12    28    27    1
    13   101   102    1
    14   101    98    1
    15    75    73   ar
    16   102   103   ar
    17    99   100    2
    18    99    98    1
    19    47    48    2
    20    47    46    1
    21   107   105   ar
    22    74    73   ar
    23    98    97    1
    24    30    27    1
    25    27    26    1
    26    59    60    2
    27    59    58    1
    28    73    72    1
    29   103   105   ar
    30    61    58    1
    31    46    49    1
    32    46    45    1
    33    49    50    1
    34    58    57    1
    35    70    71    2
    36    70    69    1
    37    19    17    1
    38    18    16    1
    39    26    22   am
    40    72    69    1
    41    69    68    1
    42     8     9    2
    43     8     7    1
    44    45    36   am
    45    57    53   am
    46    23    22    2
    47    22    21    1
    48    17    16    1
    49    16    13    1
    50   111   110    2
    51   110   109    1
    52    11    10    1
    53    37    36    2
    54    54    53    2
    55    36    35    1
    56     6     7    1
    57    53    52    1
    58    68    64   am
    59     7    10    1
    60    20    21    1
    61    20    14   am
    62    21    24    1
    63    13    14    1
    64    13    12    1
    65   114   112    1
    66    14    15    2
    67   108   109    1
    68   109   112    1
    69    65    64    2
    70    64    63    1
    71    34    35    1
    72    35    38    1
    73    24    25    1
    74    94    93    2
    75    52    51    1
    76    52    55    1
    77   112   113    1
    78    56    55    1
    79    93    92    1
    80   113   115    1
    81    41    43   ar
    82    41    39   ar
    83    38    39    1
    84    43    44   ar
    85    39    40   ar
    86    63    62    1
    87    63    66    1
    88     4     3    2
    89    67    66    1
    90     3     2    1
    91    95    92    1
    92    95    96    1
    93    92    91    1
    94    44    42   ar
    95    40    42   ar
    96   116   117    1
    97     2     1    1
    98     2     5    1
    99    91    81   am
   100   123   121    1
   101    82    81    2
   102   117   118    1
   103   117   120    1
   104   119   118    2
   105    81    80    1
   106   121   120    1
   107   121   122    1
   108    83    80    1
   109    83    84    1
   110    80    79    1
   111    84    85   ar
   112    84    86   ar
   113    85    87   ar
   114    86    88   ar
   115    87    89   ar
   116    88    89   ar
   117    89    90    1
