@<TRIPOS>MOLECULE
tmp/6d9zC00.pdb
 126 123 0 0 0
SMALL
GASTEIGER

@<TRIPOS>ATOM
      1  N         80.6920   37.5870   -8.4660 N.3    81  PHE81      -0.1227
      2  CA        80.8520   38.3930   -9.6770 C.3    81  PHE81       0.1736
      3  C         82.0210   39.3500   -9.5380 C.2    81  PHE81       0.2595
      4  O         82.9170   39.4070  -10.3940 O.2    81  PHE81      -0.2718
      5  CB        79.5770   39.1610   -9.9820 C.3    81  PHE81       0.0547
      6  CG        79.7500   40.2190  -11.0640 C.ar   81  PHE81      -0.0202
      7  CD1       79.7400   39.8690  -12.4100 C.ar   81  PHE81      -0.0042
      8  CD2       79.9260   41.5690  -10.7290 C.ar   81  PHE81      -0.0042
      9  CE1       79.8950   40.8430  -13.4070 C.ar   81  PHE81      -0.0003
     10  CE2       80.0820   42.5430  -11.7180 C.ar   81  PHE81      -0.0003
     11  CZ        80.0650   42.1810  -13.0570 C.ar   81  PHE81      -0.0000
     12  N         82.0250   40.1040   -8.4420 N.am   82  PHE82      -0.1976
     13  CA        83.0560   41.1040   -8.2220 C.3    82  PHE82       0.1639
     14  C         84.4410   40.4670   -8.2160 C.2    82  PHE82       0.2290
     15  O         85.3360   40.9120   -8.9430 O.2    82  PHE82      -0.2864
     16  CB        82.7870   41.8260   -6.9120 C.3    82  PHE82       0.0560
     17  CG        81.6300   42.7910   -6.9620 C.ar   82  PHE82      -0.0200
     18  CD1       81.2740   43.4220   -8.1570 C.ar   82  PHE82      -0.0042
     19  CD2       80.9310   43.1320   -5.7970 C.ar   82  PHE82      -0.0042
     20  CE1       80.2190   44.3480   -8.1990 C.ar   82  PHE82      -0.0003
     21  CE2       79.8730   44.0690   -5.8260 C.ar   82  PHE82      -0.0003
     22  CZ        79.5170   44.6800   -7.0300 C.ar   82  PHE82      -0.0000
     23  N         85.2400   39.7460  -11.7050 N.3    85  THR85      -0.1218
     24  CA        85.5480   41.0310  -12.3110 C.3    85  THR85       0.1862
     25  C         86.8400   41.5830  -11.7590 C.2    85  THR85       0.2287
     26  O         87.6330   42.1760  -12.5010 O.2    85  THR85      -0.2866
     27  CB        84.3990   41.9870  -12.0540 C.3    85  THR85       0.1770
     28  OG1       83.1900   41.3500  -12.4990 O.3    85  THR85      -0.2211
     29  CG2       84.6400   43.3430  -12.7880 C.3    85  THR85       0.0375
     30  N         89.8200   53.8640   -6.5890 N.3   139  PHE139     -0.1227
     31  CA        88.4130   53.6500   -6.9120 C.3   139  PHE139      0.1736
     32  C         87.5960   53.2120   -5.6950 C.2   139  PHE139      0.2595
     33  O         86.7040   53.9360   -5.2440 O.2   139  PHE139     -0.2718
     34  CB        88.3090   52.6020   -8.0240 C.3   139  PHE139      0.0547
     35  CG        86.9040   52.3030   -8.4460 C.ar  139  PHE139     -0.0202
     36  CD1       86.2760   53.0860   -9.4020 C.ar  139  PHE139     -0.0042
     37  CD2       86.2130   51.2400   -7.8900 C.ar  139  PHE139     -0.0042
     38  CE1       84.9870   52.8160   -9.7930 C.ar  139  PHE139     -0.0003
     39  CE2       84.9200   50.9650   -8.2740 C.ar  139  PHE139     -0.0003
     40  CZ        84.3050   51.7550   -9.2290 C.ar  139  PHE139     -0.0000
     41  N         87.8990   52.0320   -5.1460 N.am  140  LEU140     -0.1980
     42  CA        86.9960   51.3610   -4.2060 C.3   140  LEU140      0.1596
     43  C         86.5530   52.1980   -2.9990 C.2   140  LEU140      0.2287
     44  O         85.4230   51.9840   -2.5220 O.2   140  LEU140     -0.2864
     45  CB        87.6460   50.0520   -3.7230 C.3   140  LEU140      0.0297
     46  CG        87.8160   48.9260   -4.7620 C.3   140  LEU140      0.0022
     47  CD1       88.4400   47.6940   -4.1490 C.3   140  LEU140      0.0001
     48  CD2       86.4870   48.5320   -5.4220 C.3   140  LEU140      0.0001
     49  N         83.7850   54.5340   -4.0460 N.3   143  ALA143     -0.1231
     50  CA        82.5840   53.7510   -4.3260 C.3   143  ALA143      0.1694
     51  C         81.8530   53.3560   -3.0420 C.2   143  ALA143      0.2591
     52  O         80.6370   53.5480   -2.9260 O.2   143  ALA143     -0.2718
     53  CB        82.9420   52.5020   -5.1340 C.3   143  ALA143      0.0304
     54  N         82.5630   52.7470   -2.0810 N.am  144  ILE144     -0.1980
     55  CA        81.9070   52.4110   -0.8140 C.3   144  ILE144      0.1595
     56  C         81.3130   53.6670   -0.2010 C.2   144  ILE144      0.2287
     57  O         80.2100   53.6440    0.3670 O.2   144  ILE144     -0.2864
     58  CB        82.8850   51.7260    0.1630 C.3   144  ILE144      0.0276
     59  CG1       83.3870   50.3980   -0.4070 C.3   144  ILE144      0.0022
     60  CG2       82.1960   51.4880    1.5280 C.3   144  ILE144      0.0022
     61  CD1       84.3500   49.6600    0.4810 C.3   144  ILE144      0.0001
     62  N         78.1360   54.6270   -1.9280 N.3   147  PHE147     -0.1241
     63  CA        77.0960   53.6430   -1.6350 C.3   147  PHE147      0.1605
     64  C         76.4770   53.8900   -0.2600 C.2   147  PHE147      0.2264
     65  O         75.2480   53.8560   -0.0990 O.2   147  PHE147     -0.2867
     66  CB        77.6790   52.2300   -1.7100 C.3   147  PHE147      0.0534
     67  CG        76.7640   51.1920   -1.1460 C.ar  147  PHE147     -0.0203
     68  CD1       75.6960   50.7280   -1.8800 C.ar  147  PHE147     -0.0042
     69  CD2       76.9420   50.7180    0.1410 C.ar  147  PHE147     -0.0042
     70  CE1       74.8370   49.7960   -1.3490 C.ar  147  PHE147     -0.0003
     71  CE2       76.0800   49.7790    0.6730 C.ar  147  PHE147     -0.0003
     72  CZ        75.0330   49.3210   -0.0680 C.ar  147  PHE147     -0.0000
     73  N         77.5910   58.9440   -8.7540 N.3   163  TRP163     -0.1241
     74  CA        78.1220   57.7050   -9.3080 C.3   163  TRP163      0.1605
     75  C         78.5270   57.9010  -10.7660 C.2   163  TRP163      0.2264
     76  O         79.7050   57.7670  -11.1200 O.2   163  TRP163     -0.2867
     77  CB        77.1000   56.5780   -9.1590 C.3   163  TRP163      0.0550
     78  CG        77.6860   55.2510   -9.5260 C.ar  163  TRP163      0.0003
     79  CD1       77.6190   54.6280  -10.7410 C.ar  163  TRP163      0.0946
     80  CD2       78.4720   54.3970   -8.6810 C.ar  163  TRP163      0.0152
     81  NE1       78.2990   53.4310  -10.6990 N.ar  163  TRP163     -0.2442
     82  CE2       78.8310   53.2680   -9.4460 C.ar  163  TRP163      0.0810
     83  CE3       78.8990   54.4720   -7.3510 C.ar  163  TRP163      0.0012
     84  CZ2       79.5990   52.2250   -8.9230 C.ar  163  TRP163      0.0191
     85  CZ3       79.6570   53.4320   -6.8340 C.ar  163  TRP163      0.0001
     86  CH2       80.0000   52.3260   -7.6190 C.ar  163  TRP163      0.0015
     87  N         82.0260   57.4140  -12.4970 N.3   167  GLY167     -0.1225
     88  CA        82.1930   56.3020  -13.4150 C.3   167  GLY167      0.1811
     89  C         82.7440   56.7310  -14.7570 C.2   167  GLY167      0.2280
     90  O         83.5260   56.0070  -15.3710 O.2   167  GLY167     -0.2866
     91  N         86.7990   56.1030  -16.1090 N.3   171  MET171     -0.1245
     92  CA        87.1080   55.5790  -17.4330 C.3   171  MET171      0.1570
     93  C         88.1390   56.4210  -18.1590 C.2   171  MET171      0.2261
     94  O         88.7320   55.9460  -19.1340 O.2   171  MET171     -0.2867
     95  CB        85.8590   55.4990  -18.2930 C.3   171  MET171      0.0387
     96  CG        84.8640   54.4470  -17.8510 C.3   171  MET171      0.0595
     97  SD        85.4970   52.7730  -17.8250 S.3   171  MET171     -0.1393
     98  CE        84.0350   51.8840  -17.2970 C.3   171  MET171      0.0692
     99  N         82.3330   54.6360  -21.3150 N.3   209  TYR209     -0.1241
    100  CA        81.3570   54.1440  -20.3450 C.3   209  TYR209      0.1605
    101  C         80.1530   53.5370  -21.0600 C.2   209  TYR209      0.2264
    102  O         79.8530   52.3420  -20.9180 O.2   209  TYR209     -0.2867
    103  CB        80.9280   55.2990  -19.4150 C.3   209  TYR209      0.0534
    104  CG        80.1150   54.8850  -18.1920 C.ar  209  TYR209     -0.0201
    105  CD1       80.7330   54.3400  -17.0650 C.ar  209  TYR209     -0.0009
    106  CD2       78.7320   55.0570  -18.1570 C.ar  209  TYR209     -0.0009
    107  CE1       79.9970   53.9620  -15.9450 C.ar  209  TYR209      0.0417
    108  CE2       77.9820   54.6820  -17.0360 C.ar  209  TYR209      0.0417
    109  CZ        78.6270   54.1340  -15.9330 C.ar  209  TYR209      0.1957
    110  OH        77.9160   53.7520  -14.8110 O.3   209  TYR209     -0.2866
    111  N         80.7050   50.5210  -23.1720 N.3   212  LEU212     -0.1231
    112  CA        81.0180   49.4270  -22.2520 C.3   212  LEU212      0.1693
    113  C         79.8080   48.9320  -21.4680 C.2   212  LEU212      0.2591
    114  O         79.8980   47.8970  -20.8010 O.2   212  LEU212     -0.2718
    115  CB        82.0950   49.8620  -21.2610 C.3   212  LEU212      0.0284
    116  CG        83.5130   49.4030  -21.5680 C.3   212  LEU212      0.0019
    117  CD1       83.9200   49.7160  -22.9990 C.3   212  LEU212      0.0001
    118  CD2       84.4350   50.0800  -20.5820 C.3   212  LEU212      0.0001
    119  N         78.6840   49.6450  -21.5220 N.am  213  LEU213     -0.1980
    120  CA        77.4470   49.1250  -20.9450 C.3   213  LEU213      0.1596
    121  C         76.8890   47.9680  -21.7680 C.2   213  LEU213      0.2287
    122  O         76.0440   47.2150  -21.2700 O.2   213  LEU213     -0.2864
    123  CB        76.4050   50.2510  -20.8300 C.3   213  LEU213      0.0297
    124  CG        76.7770   51.4850  -19.9960 C.3   213  LEU213      0.0022
    125  CD1       75.5810   52.4090  -19.8200 C.3   213  LEU213      0.0001
    126  CD2       77.3620   51.1060  -18.6480 C.3   213  LEU213      0.0001
@<TRIPOS>BOND
     1   111   112    1
     2   117   116    1
     3   112   113    1
     4   112   115    1
     5   121   122    2
     6   121   120    1
     7   116   115    1
     8   116   118    1
     9   119   113   am
    10   119   120    1
    11   113   114    2
    12    99   100    1
    13   101   102    2
    14   101   100    1
    15   120   123    1
    16   123   124    1
    17   100   103    1
    18   124   125    1
    19   124   126    1
    20   103   104    1
    21    94    93    2
    22    95    96    1
    23    95    92    1
    24   104   106   ar
    25   104   105   ar
    26    93    92    1
    27   106   108   ar
    28    96    97    1
    29    97    98    1
    30    92    91    1
    31   105   107   ar
    32   108   109   ar
    33   107   109   ar
    34   109   110    1
    35    90    89    2
    36    89    88    1
    37    88    87    1
    38     9    11   ar
    39     9     7   ar
    40    11    10   ar
    41    29    27    1
    42    26    25    2
    43    28    27    1
    44     7     6   ar
    45    24    27    1
    46    24    25    1
    47    24    23    1
    48    10     8   ar
    49    76    75    2
    50     6     8   ar
    51     6     5    1
    52    75    74    1
    53    79    81   ar
    54    79    78   ar
    55    81    82   ar
    56     4     3    2
    57     5     2    1
    58    38    36   ar
    59    38    40   ar
    60     2     3    1
    61     2     1    1
    62     3    12   am
    63    78    77    1
    64    78    80   ar
    65    82    84   ar
    66    82    80   ar
    67    36    35   ar
    68    74    77    1
    69    74    73    1
    70    40    39   ar
    71    15    14    2
    72    84    86   ar
    73    80    83   ar
    74    35    34    1
    75    35    37   ar
    76    12    13    1
    77    39    37   ar
    78    13    14    1
    79    13    16    1
    80    20    18   ar
    81    20    22   ar
    82    18    17   ar
    83    34    31    1
    84    86    85   ar
    85    83    85   ar
    86    22    21   ar
    87    17    16    1
    88    17    19   ar
    89    31    30    1
    90    31    32    1
    91    21    19   ar
    92    32    33    2
    93    32    41   am
    94    48    46    1
    95    41    42    1
    96    53    50    1
    97    46    47    1
    98    46    45    1
    99    50    49    1
   100    50    51    1
   101    42    45    1
   102    42    43    1
   103    51    52    2
   104    51    54   am
   105    43    44    2
   106    54    55    1
   107    62    63    1
   108    68    70   ar
   109    68    67   ar
   110    66    63    1
   111    66    67    1
   112    63    64    1
   113    70    72   ar
   114    67    69   ar
   115    55    56    1
   116    55    58    1
   117    59    58    1
   118    59    61    1
   119    64    65    2
   120    56    57    2
   121    72    71   ar
   122    69    71   ar
   123    58    60    1
