@<TRIPOS>MOLECULE
tmp/6d9zD02.pdb
 123 122 0 0 0
SMALL
GASTEIGER

@<TRIPOS>ATOM
      1  N         79.5860   12.4720  -17.3840 N.3    20  GLY20      -0.1225
      2  CA        78.8040   11.9000  -18.4720 C.3    20  GLY20       0.1811
      3  C         77.8330   12.8780  -19.0900 C.2    20  GLY20       0.2280
      4  O         77.5710   12.8100  -20.2980 O.2    20  GLY20      -0.2866
      5  N         78.3950   16.2500  -17.9200 N.3    22  ARG22      -0.1231
      6  CA        78.9600   17.4830  -17.3770 C.3    22  ARG22       0.1694
      7  C         79.3650   18.4620  -18.4790 C.2    22  ARG22       0.2592
      8  O         79.0430   19.6490  -18.3970 O.2    22  ARG22      -0.2718
      9  CB        80.1430   17.1270  -16.4730 C.3    22  ARG22       0.0321
     10  CG        80.7840   18.2610  -15.7290 C.3    22  ARG22       0.0489
     11  CD        81.9660   17.7540  -14.8860 C.3    22  ARG22       0.2205
     12  NE        81.5740   16.8340  -13.8120 N.pl3  22  ARG22      -0.0865
     13  CZ        82.4350   16.1910  -13.0200 C.cat  22  ARG22       0.5346
     14  NH1       83.7460   16.3460  -13.1670 N.pl3  22  ARG22       0.1354
     15  NH2       81.9910   15.3790  -12.0720 N.pl3  22  ARG22       0.1354
     16  N         80.0100   17.9870  -19.5460 N.am   23  LEU23      -0.1966
     17  CA        80.4900   18.8980  -20.5780 C.3    23  LEU23       0.1728
     18  C         79.3870   19.4550  -21.4660 C.2    23  LEU23       0.2616
     19  O         79.6270   20.4550  -22.1490 O.2    23  LEU23      -0.2715
     20  CB        81.5320   18.2180  -21.4490 C.3    23  LEU23       0.0311
     21  CG        82.6890   17.6530  -20.6450 C.3    23  LEU23       0.0022
     22  CD1       83.6730   17.0220  -21.5720 C.3    23  LEU23       0.0001
     23  CD2       83.3630   18.7020  -19.7940 C.3    23  LEU23       0.0001
     24  N         78.2010   18.8360  -21.5060 N.am   24  PHE24      -0.1974
     25  CA        77.0920   19.4420  -22.2520 C.3    24  PHE24       0.1639
     26  C         76.7240   20.8170  -21.6930 C.2    24  PHE24       0.2290
     27  O         76.0930   21.6190  -22.4000 O.2    24  PHE24      -0.2864
     28  CB        75.8550   18.5360  -22.2470 C.3    24  PHE24       0.0560
     29  CG        76.0720   17.1950  -22.8990 C.ar   24  PHE24      -0.0200
     30  CD1       75.9770   17.0480  -24.2690 C.ar   24  PHE24      -0.0042
     31  CD2       76.3490   16.0710  -22.1260 C.ar   24  PHE24      -0.0042
     32  CE1       76.1670   15.8000  -24.8680 C.ar   24  PHE24      -0.0003
     33  CE2       76.5370   14.8200  -22.7060 C.ar   24  PHE24      -0.0003
     34  CZ        76.4480   14.6810  -24.0800 C.ar   24  PHE24      -0.0000
     35  N         78.7470   23.0830  -21.4210 N.3    26  LEU26      -0.1231
     36  CA        79.4930   23.9810  -22.3030 C.3    26  LEU26       0.1693
     37  C         78.8500   24.1790  -23.6770 C.2    26  LEU26       0.2591
     38  O         79.3850   24.9630  -24.4770 O.2    26  LEU26      -0.2718
     39  CB        80.9270   23.4880  -22.4960 C.3    26  LEU26       0.0284
     40  CG        81.9460   24.1570  -21.5780 C.3    26  LEU26       0.0019
     41  CD1       81.5720   24.0830  -20.1030 C.3    26  LEU26       0.0001
     42  CD2       83.2600   23.4790  -21.8360 C.3    26  LEU26       0.0001
     43  N         77.7620   23.4630  -23.9930 N.am   27  LEU27      -0.1980
     44  CA        77.1290   23.6240  -25.3040 C.3    27  LEU27       0.1596
     45  C         76.5150   25.0010  -25.5150 C.2    27  LEU27       0.2287
     46  O         76.6290   25.5360  -26.6320 O.2    27  LEU27      -0.2864
     47  CB        76.0730   22.5370  -25.5190 C.3    27  LEU27       0.0297
     48  CG        76.5670   21.1200  -25.8180 C.3    27  LEU27       0.0022
     49  CD1       75.3940   20.0980  -25.7700 C.3    27  LEU27       0.0001
     50  CD2       77.3250   21.0600  -27.1660 C.3    27  LEU27       0.0001
     51  N         79.5070   27.9500  -25.7070 N.3    30  SER30      -0.1217
     52  CA        80.2140   27.8620  -26.9810 C.3    30  SER30       0.1889
     53  C         79.3700   28.4340  -28.1190 C.2    30  SER30       0.2288
     54  O         79.8480   29.2520  -28.9190 O.2    30  SER30      -0.2866
     55  CB        80.5970   26.4070  -27.2640 C.3    30  SER30       0.2089
     56  OG        79.4470   25.6000  -27.4300 O.3    30  SER30      -0.2183
     57  N         80.4430   31.4420  -30.5570 N.3    34  ILE34      -0.1245
     58  CA        80.6540   31.3780  -31.9970 C.3    34  ILE34       0.1561
     59  C         79.7530   32.3850  -32.6930 C.2    34  ILE34       0.2260
     60  O         80.2220   33.2540  -33.4390 O.2    34  ILE34      -0.2867
     61  CB        80.4230   29.9450  -32.5050 C.3    34  ILE34       0.0252
     62  CG1       81.3570   28.9970  -31.7510 C.3    34  ILE34       0.0019
     63  CG2       80.6620   29.8630  -34.0290 C.3    34  ILE34       0.0019
     64  CD1       81.0410   27.5850  -31.9410 C.3    34  ILE34       0.0001
     65  N         70.6630   21.1770  -29.7380 N.3    96  PHE96      -0.1241
     66  CA        71.4940   20.7410  -28.6250 C.3    96  PHE96       0.1605
     67  C         70.6440   20.4800  -27.3860 C.2    96  PHE96       0.2264
     68  O         70.6830   19.3810  -26.8240 O.2    96  PHE96      -0.2867
     69  CB        72.5830   21.7680  -28.3650 C.3    96  PHE96       0.0534
     70  CG        73.4840   21.9610  -29.5330 C.ar   96  PHE96      -0.0203
     71  CD1       73.1100   22.8210  -30.5420 C.ar   96  PHE96      -0.0042
     72  CD2       74.6720   21.2640  -29.6480 C.ar   96  PHE96      -0.0042
     73  CE1       73.9010   23.0100  -31.6370 C.ar   96  PHE96      -0.0003
     74  CE2       75.4920   21.4500  -30.7600 C.ar   96  PHE96      -0.0003
     75  CZ        75.1030   22.3180  -31.7580 C.ar   96  PHE96      -0.0000
     76  N         76.7620    7.1330  -18.9060 N.3   114  PHE114     -0.1228
     77  CA        77.7200    7.9400  -19.6550 C.3   114  PHE114      0.1721
     78  C         77.3400    7.9480  -21.1270 C.2   114  PHE114      0.2437
     79  O         77.9880    7.3100  -21.9560 O.2   114  PHE114     -0.2733
     80  CB        79.1410    7.4170  -19.4580 C.3   114  PHE114      0.0547
     81  CG        79.6770    7.6650  -18.0910 C.ar  114  PHE114     -0.0202
     82  CD1       79.2780    6.8820  -17.0290 C.ar  114  PHE114     -0.0042
     83  CD2       80.5630    8.7010  -17.8620 C.ar  114  PHE114     -0.0042
     84  CE1       79.7540    7.1200  -15.7680 C.ar  114  PHE114     -0.0003
     85  CE2       81.0440    8.9470  -16.5960 C.ar  114  PHE114     -0.0003
     86  CZ        80.6380    8.1590  -15.5480 C.ar  114  PHE114     -0.0000
     87  N         76.3040    8.6900  -21.4880 N.am  115  PRO115     -0.2718
     88  CA        75.9070    8.7510  -22.8930 C.3   115  PRO115      0.1535
     89  C         76.9470    9.4680  -23.7100 C.2   115  PRO115      0.2598
     90  O         77.6160   10.3800  -23.2300 O.2   115  PRO115     -0.2715
     91  CB        74.6060    9.5530  -22.8570 C.3   115  PRO115      0.0310
     92  CG        74.7110   10.3370  -21.6760 C.3   115  PRO115      0.0237
     93  CD        75.4620    9.5560  -20.6620 C.3   115  PRO115      0.0939
     94  N         77.0530    9.0740  -24.9670 N.am  116  ALA116     -0.1964
     95  CA        78.0260    9.6780  -25.8550 C.3   116  ALA116      0.1728
     96  C         77.3530   10.6840  -26.7720 C.2   116  ALA116      0.2616
     97  O         76.1950   10.5260  -27.1530 O.2   116  ALA116     -0.2715
     98  CB        78.7710    8.6190  -26.6730 C.3   116  ALA116      0.0334
     99  N         78.0880   11.7460  -27.0780 N.am  117  PHE117     -0.1974
    100  CA        77.6890   12.7590  -28.0460 C.3   117  PHE117      0.1639
    101  C         78.1040   12.2530  -29.4210 C.2   117  PHE117      0.2290
    102  O         79.2050   11.7180  -29.5680 O.2   117  PHE117     -0.2864
    103  CB        78.3930   14.0760  -27.6950 C.3   117  PHE117      0.0560
    104  CG        78.1340   15.2300  -28.6560 C.ar  117  PHE117     -0.0200
    105  CD1       77.0350   16.0630  -28.4760 C.ar  117  PHE117     -0.0042
    106  CD2       79.0130   15.5140  -29.6950 C.ar  117  PHE117     -0.0042
    107  CE1       76.7960   17.1280  -29.3350 C.ar  117  PHE117     -0.0003
    108  CE2       78.7710   16.5810  -30.5570 C.ar  117  PHE117     -0.0003
    109  CZ        77.6620   17.3850  -30.3750 C.ar  117  PHE117     -0.0000
    110  N         77.6610   13.5960  -33.6420 N.3   119  TRP119     -0.1241
    111  CA        77.0630   14.5790  -34.5410 C.3   119  TRP119      0.1605
    112  C         75.9860   13.9580  -35.4080 C.2   119  TRP119      0.2264
    113  O         75.0960   14.6710  -35.8890 O.2   119  TRP119     -0.2867
    114  CB        78.1330   15.2330  -35.4300 C.3   119  TRP119      0.0550
    115  CG        79.0280   16.1460  -34.6720 C.ar  119  TRP119      0.0003
    116  CD1       80.2490   15.8520  -34.1300 C.ar  119  TRP119      0.0946
    117  CD2       78.7580   17.5080  -34.3440 C.ar  119  TRP119      0.0152
    118  NE1       80.7560   16.9580  -33.4860 N.ar  119  TRP119     -0.2442
    119  CE2       79.8580   17.9870  -33.6020 C.ar  119  TRP119      0.0810
    120  CE3       77.6950   18.3680  -34.6070 C.ar  119  TRP119      0.0012
    121  CZ2       79.9180   19.2880  -33.1190 C.ar  119  TRP119      0.0191
    122  CZ3       77.7570   19.6520  -34.1330 C.ar  119  TRP119      0.0001
    123  CH2       78.8590   20.1050  -33.3950 C.ar  119  TRP119      0.0015
@<TRIPOS>BOND
     1   113   112    2
     2   114   115    1
     3   114   111    1
     4   112   111    1
     5   115   117   ar
     6   115   116   ar
     7   120   117   ar
     8   120   122   ar
     9   111   110    1
    10   117   119   ar
    11   122   123   ar
    12   116   118   ar
    13    63    61    1
    14   119   118   ar
    15   119   121   ar
    16    60    59    2
    17   123   121   ar
    18    59    58    1
    19    61    58    1
    20    61    62    1
    21    58    57    1
    22    64    62    1
    23    75    73   ar
    24    75    74   ar
    25    73    71   ar
    26    74    72   ar
    27   108   109   ar
    28   108   106   ar
    29    71    70   ar
    30   109   107   ar
    31    65    66    1
    32   106   104   ar
    33    72    70   ar
    34   102   101    2
    35    70    69    1
    36   101   100    1
    37   107   105   ar
    38    54    53    2
    39   104   105   ar
    40   104   103    1
    41    66    69    1
    42    66    67    1
    43    53    52    1
    44   100   103    1
    45   100    99    1
    46    56    55    1
    47    67    68    2
    48    55    52    1
    49    50    48    1
    50    97    96    2
    51    99    96   am
    52    52    51    1
    53    96    95    1
    54    98    95    1
    55    46    45    2
    56    95    94    1
    57    48    49    1
    58    48    47    1
    59    47    44    1
    60    45    44    1
    61    44    43    1
    62    94    89   am
    63    32    30   ar
    64    32    34   ar
    65    38    37    2
    66    30    29   ar
    67    34    33   ar
    68    43    37   am
    69    89    90    2
    70    89    88    1
    71    37    36    1
    72    29    28    1
    73    29    31   ar
    74    88    91    1
    75    88    87    1
    76    91    92    1
    77    33    31   ar
    78    39    36    1
    79    39    40    1
    80    27    26    2
    81    36    35    1
    82    25    28    1
    83    25    26    1
    84    25    24    1
    85    19    18    2
    86    79    78    2
    87    42    40    1
    88    92    93    1
    89    40    41    1
    90    22    21    1
    91    24    18   am
    92    87    78   am
    93    87    93    1
    94    18    17    1
    95    20    21    1
    96    20    17    1
    97    78    77    1
    98    21    23    1
    99    17    16    1
   100     4     3    2
   101    77    80    1
   102    77    76    1
   103    16     7   am
   104    80    81    1
   105     3     2    1
   106     7     8    2
   107     7     6    1
   108     2     1    1
   109    81    83   ar
   110    81    82   ar
   111     5     6    1
   112    83    85   ar
   113     6     9    1
   114    82    84   ar
   115    85    86   ar
   116     9    10    1
   117    84    86   ar
   118    10    11    1
   119    11    12    1
   120    12    13    2
   121    14    13    1
   122    13    15    1
