@<TRIPOS>MOLECULE
tmp/6d9zB07.pdb
 114 107 0 0 0
SMALL
GASTEIGER

@<TRIPOS>ATOM
      1  N         48.4830   49.4220   29.7700 N.3    28  LEU28      -0.1245
      2  CA        49.4710   50.4470   29.4240 C.3    28  LEU28       0.1561
      3  C         50.5900   50.5410   30.4650 C.2    28  LEU28       0.2260
      4  O         51.7680   50.4410   30.1210 O.2    28  LEU28      -0.2867
      5  CB        48.7950   51.8180   29.2210 C.3    28  LEU28       0.0270
      6  CG        49.6200   53.1140   29.4270 C.3    28  LEU28       0.0019
      7  CD1       50.8650   53.2200   28.5450 C.3    28  LEU28       0.0001
      8  CD2       48.7720   54.3240   29.1530 C.3    28  LEU28       0.0001
      9  N         52.8290   47.4010   30.0650 N.3    31  ASN31      -0.1225
     10  CA        53.6430   47.5340   28.8710 C.3    31  ASN31       0.1785
     11  C         54.7030   48.6100   29.0200 C.2    31  ASN31       0.2597
     12  O         55.7580   48.4890   28.4080 O.2    31  ASN31      -0.2718
     13  CB        52.7580   47.8390   27.6700 C.3    31  ASN31       0.1169
     14  CG        51.7850   46.7250   27.3850 C.2    31  ASN31       0.2627
     15  OD1       50.7230   46.9520   26.8100 O.2    31  ASN31      -0.2716
     16  ND2       52.1250   45.5070   27.8180 N.am   31  ASN31      -0.0877
     17  N         54.4590   49.6610   29.8070 N.am   32  LEU32      -0.1980
     18  CA        55.5330   50.5950   30.1130 C.3    32  LEU32       0.1596
     19  C         56.6770   49.8410   30.7510 C.2    32  LEU32       0.2287
     20  O         57.7890   49.8070   30.2180 O.2    32  LEU32      -0.2864
     21  CB        55.0620   51.7040   31.0480 C.3    32  LEU32       0.0297
     22  CG        54.6520   53.0640   30.5160 C.3    32  LEU32       0.0022
     23  CD1       54.1450   53.8660   31.7150 C.3    32  LEU32       0.0001
     24  CD2       55.8430   53.7380   29.8350 C.3    32  LEU32       0.0001
     25  N         58.3820   47.7080   28.4420 N.3    35  PHE35      -0.1241
     26  CA        59.1560   48.4970   27.4840 C.3    35  PHE35       0.1605
     27  C         60.4990   48.8580   28.0780 C.2    35  PHE35       0.2264
     28  O         61.5440   48.6480   27.4620 O.2    35  PHE35      -0.2867
     29  CB        58.3850   49.7680   27.0870 C.3    35  PHE35       0.0534
     30  CG        59.1880   50.7510   26.2510 C.ar   35  PHE35      -0.0203
     31  CD1       59.3220   50.5710   24.8850 C.ar   35  PHE35      -0.0042
     32  CD2       59.7800   51.8700   26.8310 C.ar   35  PHE35      -0.0042
     33  CE1       60.0480   51.4560   24.1180 C.ar   35  PHE35      -0.0003
     34  CE2       60.5050   52.7570   26.0590 C.ar   35  PHE35      -0.0003
     35  CZ        60.6310   52.5460   24.6980 C.ar   35  PHE35      -0.0000
     36  N         61.5570   44.7280   18.0180 N.3    81  PHE81      -0.1241
     37  CA        60.2070   45.2670   17.9200 C.3    81  PHE81       0.1605
     38  C         59.1730   44.1570   18.0340 C.2    81  PHE81       0.2264
     39  O         58.3670   44.1400   18.9730 O.2    81  PHE81      -0.2867
     40  CB        60.0380   46.0400   16.6230 C.3    81  PHE81       0.0534
     41  CG        58.6460   46.5410   16.3850 C.ar   81  PHE81      -0.0203
     42  CD1       58.1210   47.5900   17.1350 C.ar   81  PHE81      -0.0042
     43  CD2       57.8860   46.0130   15.3590 C.ar   81  PHE81      -0.0042
     44  CE1       56.8220   48.0760   16.8770 C.ar   81  PHE81      -0.0003
     45  CE2       56.6070   46.4910   15.0860 C.ar   81  PHE81      -0.0003
     46  CZ        56.0710   47.5220   15.8460 C.ar   81  PHE81      -0.0000
     47  N         58.5710   42.4950   21.3320 N.3    84  PHE84      -0.1227
     48  CA        57.7600   43.4050   22.1540 C.3    84  PHE84       0.1736
     49  C         56.3160   43.4610   21.6610 C.2    84  PHE84       0.2596
     50  O         55.3680   43.2100   22.4180 O.2    84  PHE84      -0.2718
     51  CB        58.3720   44.8100   22.1590 C.3    84  PHE84       0.0547
     52  CG        57.6050   45.7980   23.0110 C.ar   84  PHE84      -0.0202
     53  CD1       57.7770   45.8360   24.3890 C.ar   84  PHE84      -0.0042
     54  CD2       56.6850   46.6560   22.4380 C.ar   84  PHE84      -0.0042
     55  CE1       57.0690   46.7330   25.1670 C.ar   84  PHE84      -0.0003
     56  CE2       55.9800   47.5400   23.2100 C.ar   84  PHE84      -0.0003
     57  CZ        56.1770   47.5770   24.5820 C.ar   84  PHE84      -0.0000
     58  N         56.1280   43.7760   20.3870 N.am   85  THR85      -0.1953
     59  CA        54.7810   43.8260   19.8640 C.3    85  THR85       0.1897
     60  C         54.0570   42.5330   20.1870 C.2    85  THR85       0.2313
     61  O         52.8640   42.5370   20.5120 O.2    85  THR85      -0.2863
     62  CB        54.8430   44.0730   18.3670 C.3    85  THR85       0.1794
     63  OG1       55.5630   45.2870   18.1380 O.3    85  THR85      -0.2208
     64  CG2       53.4770   44.1910   17.8190 C.3    85  THR85       0.0378
     65  N         53.7900   42.3260   24.3880 N.3    88  ALA88      -0.1231
     66  CA        52.8720   43.3520   24.8780 C.3    88  ALA88       0.1694
     67  C         51.4280   42.9460   24.6320 C.2    88  ALA88       0.2592
     68  O         50.6150   42.8630   25.5660 O.2    88  ALA88      -0.2718
     69  CB        53.2050   44.6580   24.1750 C.3    88  ALA88       0.0304
     70  N         51.1120   42.6510   23.3670 N.am   89  ASN89      -0.1974
     71  CA        49.8170   42.0770   23.0150 C.3    89  ASN89       0.1688
     72  C         49.5230   40.8220   23.8280 C.2    89  ASN89       0.2292
     73  O         48.4300   40.6740   24.3800 O.2    89  ASN89      -0.2864
     74  CB        49.7920   41.7320   21.5390 C.3    89  ASN89       0.1181
     75  CG        49.9210   42.9320   20.6710 C.2    89  ASN89       0.2629
     76  OD1       49.4310   44.0290   21.0020 O.2    89  ASN89      -0.2716
     77  ND2       50.6170   42.7560   19.5450 N.am   89  ASN89      -0.0877
     78  N         48.6530   41.9550   26.9560 N.3    92  ALA92      -0.1245
     79  CA        47.3850   42.6490   26.8200 C.3    92  ALA92       0.1562
     80  C         46.2040   41.6980   26.7340 C.2    92  ALA92       0.2260
     81  O         45.0830   42.0950   27.0560 O.2    92  ALA92      -0.2867
     82  CB        47.4350   43.5240   25.5690 C.3    92  ALA92       0.0290
     83  N         49.9360   57.7280   18.8490 N.3   216  LEU216     -0.1245
     84  CA        49.6650   57.5230   20.2610 C.3   216  LEU216      0.1561
     85  C         48.2090   57.1510   20.5340 C.2   216  LEU216      0.2260
     86  O         47.9060   56.6460   21.6200 O.2   216  LEU216     -0.2867
     87  CB        50.0640   58.7620   21.0670 C.3   216  LEU216      0.0270
     88  CG        51.5540   58.9310   21.4450 C.3   216  LEU216      0.0019
     89  CD1       51.7240   60.0070   22.5610 C.3   216  LEU216      0.0001
     90  CD2       52.2270   57.6180   21.8530 C.3   216  LEU216      0.0001
     91  N         46.4420   54.7820   19.3900 N.3   218  ASN218     -0.1225
     92  CA        46.3090   53.3380   19.6110 C.3   218  ASN218      0.1785
     93  C         45.8820   53.0260   21.0430 C.2   218  ASN218      0.2597
     94  O         44.9760   52.2190   21.2790 O.2   218  ASN218     -0.2718
     95  CB        47.6380   52.6170   19.3430 C.3   218  ASN218      0.1169
     96  CG        48.1130   52.7660   17.9420 C.2   218  ASN218      0.2627
     97  OD1       47.3560   53.1330   17.0380 O.2   218  ASN218     -0.2716
     98  ND2       49.3890   52.4880   17.7400 N.am  218  ASN218     -0.0877
     99  N         46.5420   53.6560   22.0150 N.am  219  LEU219     -0.1980
    100  CA        46.3590   53.2830   23.4070 C.3   219  LEU219      0.1596
    101  C         44.9200   53.4970   23.8520 C.2   219  LEU219      0.2287
    102  O         44.4310   52.7720   24.7260 O.2   219  LEU219     -0.2864
    103  CB        47.3330   54.0820   24.2680 C.3   219  LEU219      0.0297
    104  CG        48.8000   53.9560   23.8310 C.3   219  LEU219      0.0022
    105  CD1       49.7150   54.7940   24.6730 C.3   219  LEU219      0.0001
    106  CD2       49.2610   52.5280   23.8960 C.3   219  LEU219      0.0001
    107  N         42.3090   50.9280   21.1530 N.3   222  MET222     -0.1245
    108  CA        42.1220   49.5190   21.5040 C.3   222  MET222      0.1570
    109  C         41.0050   49.3050   22.5200 C.2   222  MET222      0.2261
    110  O         40.0660   48.5500   22.2270 O.2   222  MET222     -0.2867
    111  CB        43.4420   48.9320   22.0140 C.3   222  MET222      0.0387
    112  CG        44.6740   49.1140   21.1270 C.3   222  MET222      0.0595
    113  SD        46.1650   48.2860   21.8090 S.3   222  MET222     -0.1393
    114  CE        45.5840   46.5820   22.1670 C.3   222  MET222      0.0692
@<TRIPOS>BOND
     1    45    43   ar
     2    45    46   ar
     3    43    41   ar
     4    46    44   ar
     5    41    40    1
     6    41    42   ar
     7    40    37    1
     8    44    42   ar
     9    97    96    2
    10    98    96   am
    11    64    62    1
    12    37    36    1
    13    37    38    1
    14    96    95    1
    15    38    39    2
    16    63    62    1
    17    62    59    1
    18    83    84    1
    19    95    92    1
    20    91    92    1
    21    77    75   am
    22    92    93    1
    23    59    60    1
    24    59    58    1
    25    60    61    2
    26    84    85    1
    27    84    87    1
    28    58    49   am
    29    85    86    2
    30    75    76    2
    31    75    74    1
    32    93    94    2
    33    93    99   am
    34    87    88    1
    35   112   113    1
    36   112   111    1
    37   107   108    1
    38    47    48    1
    39    88    90    1
    40    88    89    1
    41   108   111    1
    42   108   109    1
    43    74    71    1
    44    49    48    1
    45    49    50    2
    46   113   114    1
    47    99   100    1
    48    48    51    1
    49    51    52    1
    50   110   109    2
    51    54    52   ar
    52    54    56   ar
    53    52    53   ar
    54    71    70    1
    55    71    72    1
    56    56    57   ar
    57    70    67   am
    58   100   101    1
    59   100   103    1
    60    72    73    2
    61   104   106    1
    62   104   103    1
    63   104   105    1
    64   101   102    2
    65    33    35   ar
    66    33    31   ar
    67    69    66    1
    68    65    66    1
    69    53    55   ar
    70    57    55   ar
    71    67    66    1
    72    67    68    2
    73    35    34   ar
    74    31    30   ar
    75    82    79    1
    76    34    32   ar
    77    30    32   ar
    78    30    29    1
    79    80    79    1
    80    80    81    2
    81    15    14    2
    82    79    78    1
    83    29    26    1
    84    14    13    1
    85    14    16   am
    86    28    27    2
    87    26    27    1
    88    26    25    1
    89    13    10    1
    90    12    11    2
    91     7     6    1
    92    10    11    1
    93    10     9    1
    94    11    17   am
    95     8     6    1
    96     5     2    1
    97     5     6    1
    98     2     1    1
    99     2     3    1
   100    17    18    1
   101    24    22    1
   102    18    19    1
   103    18    21    1
   104     4     3    2
   105    20    19    2
   106    22    21    1
   107    22    23    1
