@<TRIPOS>MOLECULE
tmp/6d9zF01.pdb
 83 76 0 0 0
SMALL
GASTEIGER

@<TRIPOS>ATOM
      1  N         56.5730   88.9010   -7.0820 N.3     5  PRO5       -0.2102
      2  CA        55.4790   88.4960   -7.9780 C.3     5  PRO5        0.1504
      3  C         54.2810   89.4500   -7.9750 C.2     5  PRO5        0.2575
      4  O         53.4430   89.3560   -8.8840 O.2     5  PRO5       -0.2718
      5  CB        55.0950   87.1070   -7.4470 C.3     5  PRO5        0.0282
      6  CG        55.5430   87.0940   -6.0500 C.3     5  PRO5        0.0208
      7  CD        56.7550   87.9520   -5.9670 C.3     5  PRO5        0.0893
      8  N         54.1990   90.3880   -7.0190 N.am    6  GLN6       -0.1980
      9  CA        53.0210   91.2490   -6.8940 C.3     6  GLN6        0.1601
     10  C         52.7080   91.9740   -8.2040 C.2     6  GLN6        0.2287
     11  O         51.5330   92.1860   -8.5440 O.2     6  GLN6       -0.2864
     12  CB        53.2290   92.2540   -5.7580 C.3     6  GLN6        0.0394
     13  CG        53.4740   91.6260   -4.3830 C.3     6  GLN6        0.0908
     14  CD        52.2130   91.5130   -3.5300 C.2     6  GLN6        0.2608
     15  OE1       51.2680   92.3040   -3.6730 O.2     6  GLN6       -0.2717
     16  NE2       52.1990   90.5240   -2.6250 N.am    6  GLN6       -0.0878
     17  N         52.6640   90.9550  -11.2600 N.3     8  LEU8       -0.1231
     18  CA        51.7140   90.2240  -12.0900 C.3     8  LEU8        0.1693
     19  C         50.2880   90.5460  -11.6900 C.2     8  LEU8        0.2592
     20  O         49.4680   90.9460  -12.5220 O.2     8  LEU8       -0.2718
     21  CB        51.9480   88.7170  -11.9970 C.3     8  LEU8        0.0284
     22  CG        50.9870   87.8930  -12.8540 C.3     8  LEU8        0.0019
     23  CD1       51.1010   88.2540  -14.3080 C.3     8  LEU8        0.0001
     24  CD2       51.2420   86.4490  -12.6690 C.3     8  LEU8        0.0001
     25  N         49.9700   90.3750  -10.4080 N.am    9  GLY9       -0.1957
     26  CA        48.6230   90.6880   -9.9670 C.3     9  GLY9        0.1869
     27  C         48.2130   92.0740  -10.3980 C.2     9  GLY9        0.2309
     28  O         47.1740   92.2700  -11.0370 O.2     9  GLY9       -0.2863
     29  N         47.3060   92.4920  -13.9790 N.3    12  LEU12      -0.1245
     30  CA        45.9290   92.1050  -14.2780 C.3    12  LEU12       0.1561
     31  C         45.0010   93.2740  -14.0360 C.2    12  LEU12       0.2260
     32  O         44.1320   93.5780  -14.8580 O.2    12  LEU12      -0.2867
     33  CB        45.4830   90.9280  -13.4150 C.3    12  LEU12       0.0270
     34  CG        44.0390   90.4880  -13.6510 C.3    12  LEU12       0.0019
     35  CD1       43.8640   89.8910  -15.0200 C.3    12  LEU12       0.0001
     36  CD2       43.6660   89.5020  -12.6200 C.3    12  LEU12       0.0001
     37  N         55.8250   83.5110  -10.7040 N.3   207  ILE207     -0.1245
     38  CA        54.3600   83.4510  -10.6760 C.3   207  ILE207      0.1561
     39  C         53.7620   83.6040  -12.0770 C.2   207  ILE207      0.2260
     40  O         52.6440   83.1340  -12.3390 O.2   207  ILE207     -0.2867
     41  CB        53.7930   84.5060   -9.7090 C.3   207  ILE207      0.0252
     42  CG1       52.3120   84.2310   -9.4770 C.3   207  ILE207      0.0019
     43  CG2       54.0040   85.9150  -10.2590 C.3   207  ILE207      0.0019
     44  CD1       51.7540   85.0430   -8.3760 C.3   207  ILE207      0.0001
     45  N         51.0900   80.9030  -13.4920 N.3   211  VAL211     -0.1231
     46  CA        49.7630   81.2690  -13.9940 C.3   211  VAL211      0.1692
     47  C         49.6380   81.0220  -15.4920 C.2   211  VAL211      0.2591
     48  O         48.5230   80.8920  -16.0120 O.2   211  VAL211     -0.2718
     49  CB        49.4410   82.7340  -13.6650 C.3   211  VAL211      0.0266
     50  CG1       48.1340   83.1230  -14.3270 C.3   211  VAL211      0.0020
     51  CG2       49.3870   82.9460  -12.1690 C.3   211  VAL211      0.0020
     52  N         50.7560   81.0520  -16.2230 N.am  212  LEU212     -0.1980
     53  CA        50.7680   80.7210  -17.6450 C.3   212  LEU212      0.1596
     54  C         50.7230   79.2230  -17.9130 C.2   212  LEU212      0.2287
     55  O         50.6590   78.8250  -19.0820 O.2   212  LEU212     -0.2864
     56  CB        52.0030   81.3170  -18.3160 C.3   212  LEU212      0.0297
     57  CG        51.7530   82.5630  -19.1580 C.3   212  LEU212      0.0022
     58  CD1       50.9440   83.6040  -18.4120 C.3   212  LEU212      0.0001
     59  CD2       53.0890   83.1410  -19.5970 C.3   212  LEU212      0.0001
     60  N         43.4180   79.8950  -19.4970 N.3   217  VAL217     -0.1245
     61  CA        43.7070   81.1770  -18.8700 C.3   217  VAL217      0.1561
     62  C         44.9860   81.8100  -19.3970 C.2   217  VAL217      0.2260
     63  O         45.1970   83.0050  -19.1690 O.2   217  VAL217     -0.2867
     64  CB        43.7260   80.9570  -17.3450 C.3   217  VAL217      0.0252
     65  CG1       43.8840   82.2690  -16.5980 C.3   217  VAL217      0.0019
     66  CG2       42.4500   80.2500  -16.8880 C.3   217  VAL217      0.0019
     67  N         44.1220   85.1330  -21.3120 N.3   220  VAL220     -0.1231
     68  CA        43.9240   86.3200  -20.4850 C.3   220  VAL220      0.1692
     69  C         45.1690   86.6280  -19.6730 C.2   220  VAL220      0.2591
     70  O         45.3650   87.7830  -19.2690 O.2   220  VAL220     -0.2718
     71  CB        42.7200   86.1470  -19.5400 C.3   220  VAL220      0.0266
     72  CG1       41.4930   85.6760  -20.3340 C.3   220  VAL220      0.0020
     73  CG2       43.0620   85.1870  -18.3440 C.3   220  VAL220      0.0020
     74  N         46.0510   85.6440  -19.4880 N.am  221  ALA221     -0.1980
     75  CA        47.1690   85.8410  -18.5830 C.3   221  ALA221      0.1597
     76  C         48.2650   86.6730  -19.2130 C.2   221  ALA221      0.2287
     77  O         48.8260   87.5510  -18.5530 O.2   221  ALA221     -0.2864
     78  CB        47.7550   84.5080  -18.1130 C.3   221  ALA221      0.0319
     79  N         48.0620   90.5280  -18.9010 N.3   224  ALA224     -0.1245
     80  CA        48.3930   90.8800  -17.5290 C.3   224  ALA224      0.1562
     81  C         49.9020   90.8260  -17.3140 C.2   224  ALA224      0.2260
     82  O         50.4800   91.7130  -16.6810 O.2   224  ALA224     -0.2867
     83  CB        47.6630   89.9520  -16.5530 C.3   224  ALA224      0.0290
@<TRIPOS>BOND
     1    67    68    1
     2    68    69    1
     3    68    71    1
     4    72    71    1
     5    69    74   am
     6    69    70    2
     7    59    57    1
     8    71    73    1
     9    60    61    1
    10    74    75    1
    11    62    63    2
    12    62    61    1
    13    76    75    1
    14    76    77    2
    15    57    58    1
    16    57    56    1
    17    55    54    2
    18    79    80    1
    19    61    64    1
    20    75    78    1
    21    56    53    1
    22    54    53    1
    23    53    52    1
    24    80    81    1
    25    80    83    1
    26    64    66    1
    27    64    65    1
    28    81    82    2
    29    52    47   am
    30    48    47    2
    31    47    46    1
    32    35    34    1
    33    32    31    2
    34    50    49    1
    35    23    22    1
    36    30    31    1
    37    30    29    1
    38    30    33    1
    39    46    49    1
    40    46    45    1
    41    49    51    1
    42    34    33    1
    43    34    36    1
    44    22    24    1
    45    22    21    1
    46    20    19    2
    47    40    39    2
    48    18    21    1
    49    18    19    1
    50    18    17    1
    51    39    38    1
    52    19    25   am
    53    28    27    2
    54    37    38    1
    55    38    41    1
    56    25    26    1
    57    27    26    1
    58    43    41    1
    59    41    42    1
    60    42    44    1
    61     4     3    2
    62    11    10    2
    63    10     9    1
    64     2     3    1
    65     2     5    1
    66     2     1    1
    67     3     8   am
    68     5     6    1
    69     1     7    1
    70     8     9    1
    71     9    12    1
    72     6     7    1
    73    12    13    1
    74    13    14    1
    75    15    14    2
    76    14    16   am
