@<TRIPOS>MOLECULE
tmp/6d9zD01.pdb
 123 119 0 0 0
SMALL
GASTEIGER

@<TRIPOS>ATOM
      1  N         69.8190   42.9570  -30.2920 N.3    82  PHE82      -0.1227
      2  CA        69.7700   42.0290  -29.1700 C.3    82  PHE82       0.1736
      3  C         68.7340   40.9380  -29.4230 C.2    82  PHE82       0.2595
      4  O         69.0670   39.7500  -29.4430 O.2    82  PHE82      -0.2718
      5  CB        69.4800   42.7870  -27.8760 C.3    82  PHE82       0.0547
      6  CG        69.2690   41.8880  -26.6770 C.ar   82  PHE82      -0.0202
      7  CD1       70.3410   41.4680  -25.8920 C.ar   82  PHE82      -0.0042
      8  CD2       67.9870   41.4440  -26.3370 C.ar   82  PHE82      -0.0042
      9  CE1       70.1420   40.6380  -24.7780 C.ar   82  PHE82      -0.0003
     10  CE2       67.7740   40.6180  -25.2330 C.ar   82  PHE82      -0.0003
     11  CZ        68.8530   40.2100  -24.4520 C.ar   82  PHE82      -0.0000
     12  N         67.4720   41.3250  -29.6630 N.am   83  PHE83      -0.1976
     13  CA        66.4140   40.3310  -29.8230 C.3    83  PHE83       0.1639
     14  C         66.7910   39.3610  -30.9220 C.2    83  PHE83       0.2290
     15  O         66.9420   38.1590  -30.6700 O.2    83  PHE83      -0.2864
     16  CB        65.0700   41.0040  -30.1280 C.3    83  PHE83       0.0560
     17  CG        64.5610   41.8830  -29.0000 C.ar   83  PHE83      -0.0200
     18  CD1       64.8300   41.5560  -27.6740 C.ar   83  PHE83      -0.0042
     19  CD2       63.8410   43.0600  -29.2630 C.ar   83  PHE83      -0.0042
     20  CE1       64.3760   42.3630  -26.6230 C.ar   83  PHE83      -0.0003
     21  CE2       63.3790   43.8760  -28.2240 C.ar   83  PHE83      -0.0003
     22  CZ        63.6480   43.5270  -26.8980 C.ar   83  PHE83      -0.0000
     23  N         69.5210   37.0340  -29.7310 N.3    86  THR86      -0.1203
     24  CA        68.9100   36.0710  -28.8230 C.3    86  THR86       0.1994
     25  C         67.9310   35.1740  -29.5590 C.2    86  THR86       0.2617
     26  O         67.7930   33.9970  -29.2120 O.2    86  THR86      -0.2717
     27  CB        68.1990   36.7850  -27.6850 C.3    86  THR86       0.1784
     28  OG1       69.1240   37.6590  -27.0150 O.3    86  THR86      -0.2211
     29  CG2       67.6150   35.7470  -26.7030 C.3    86  THR86       0.0376
     30  N         67.2230   35.7050  -30.5580 N.am   87  LEU87      -0.1979
     31  CA        66.4400   34.8260  -31.4160 C.3    87  LEU87       0.1596
     32  C         67.3420   33.7580  -32.0080 C.2    87  LEU87       0.2287
     33  O         67.2510   32.5760  -31.6540 O.2    87  LEU87      -0.2864
     34  CB        65.7760   35.6250  -32.5310 C.3    87  LEU87       0.0297
     35  CG        64.5490   35.0000  -33.1560 C.3    87  LEU87       0.0022
     36  CD1       63.3920   35.1030  -32.1710 C.3    87  LEU87       0.0001
     37  CD2       64.2410   35.7010  -34.4570 C.3    87  LEU87       0.0001
     38  N         69.0590   31.1100  -29.7200 N.3    90  ASN90      -0.1240
     39  CA        68.1350   30.1100  -29.1930 C.3    90  ASN90       0.1653
     40  C         67.8330   29.0360  -30.2300 C.2    90  ASN90       0.2266
     41  O         67.8020   27.8430  -29.9060 O.2    90  ASN90      -0.2867
     42  CB        66.8480   30.7770  -28.7180 C.3    90  ASN90       0.1155
     43  CG        67.0790   31.7050  -27.5480 C.2    90  ASN90       0.2627
     44  OD1       66.3750   32.7080  -27.3850 O.2    90  ASN90      -0.2716
     45  ND2       68.0880   31.3940  -26.7370 N.am   90  ASN90      -0.0877
     46  N         60.8710   24.7270  -32.1820 N.3   133  GLU133     -0.1245
     47  CA        61.0900   26.0190  -31.5520 C.3   133  GLU133      0.1567
     48  C         60.3980   27.1260  -32.3230 C.2   133  GLU133      0.2260
     49  O         60.0200   28.1410  -31.7230 O.2   133  GLU133     -0.2867
     50  CB        62.5680   26.3500  -31.4080 C.3   133  GLU133      0.0388
     51  CG        62.7620   27.5380  -30.4590 C.3   133  GLU133      0.1160
     52  CD        64.2010   27.8960  -30.2200 C.2   133  GLU133      0.3649
     53  OE1       64.8700   28.2780  -31.2090 O.co2 133  GLU133     -0.2457
     54  OE2       64.6460   27.7740  -29.0470 O.co2 133  GLU133     -0.2457
     55  N         57.9690   29.8490  -30.6280 N.3   137  LEU137     -0.1245
     56  CA        57.9010   31.2820  -30.9370 C.3   137  LEU137      0.1561
     57  C         56.5110   31.6980  -31.4030 C.2   137  LEU137      0.2260
     58  O         56.0210   32.7730  -31.0450 O.2   137  LEU137     -0.2867
     59  CB        58.9390   31.6300  -32.0030 C.3   137  LEU137      0.0270
     60  CG        60.3710   31.7730  -31.4940 C.3   137  LEU137      0.0019
     61  CD1       61.4210   31.7070  -32.6170 C.3   137  LEU137      0.0001
     62  CD2       60.5100   33.0880  -30.6940 C.3   137  LEU137      0.0001
     63  N         54.4080   32.0190  -28.4690 N.3   140  PHE140     -0.1227
     64  CA        54.8050   33.0720  -27.5360 C.3   140  PHE140      0.1736
     65  C         54.5490   34.4710  -28.1040 C.2   140  PHE140      0.2595
     66  O         53.6830   35.1990  -27.6100 O.2   140  PHE140     -0.2718
     67  CB        56.2780   32.8870  -27.1490 C.3   140  PHE140      0.0547
     68  CG        56.7810   33.9130  -26.1950 C.ar  140  PHE140     -0.0202
     69  CD1       56.6400   33.7360  -24.8330 C.ar  140  PHE140     -0.0042
     70  CD2       57.3700   35.0670  -26.6630 C.ar  140  PHE140     -0.0042
     71  CE1       57.1040   34.6920  -23.9490 C.ar  140  PHE140     -0.0003
     72  CE2       57.8330   36.0300  -25.7920 C.ar  140  PHE140     -0.0003
     73  CZ        57.7030   35.8480  -24.4310 C.ar  140  PHE140     -0.0000
     74  N         55.2640   34.8470  -29.1700 N.am  141  LEU141     -0.1980
     75  CA        55.3420   36.2430  -29.6110 C.3   141  LEU141      0.1596
     76  C         54.0000   36.9530  -29.8150 C.2   141  LEU141      0.2287
     77  O         53.9310   38.1710  -29.5730 O.2   141  LEU141     -0.2864
     78  CB        56.1480   36.3190  -30.9100 C.3   141  LEU141      0.0297
     79  CG        57.6400   36.0240  -30.8540 C.3   141  LEU141      0.0022
     80  CD1       58.2050   36.1780  -32.2390 C.3   141  LEU141      0.0001
     81  CD2       58.3510   36.9310  -29.8960 C.3   141  LEU141      0.0001
     82  N         52.0090   43.4550  -24.3090 N.3   148  PHE148     -0.1241
     83  CA        52.7270   44.7250  -24.4110 C.3   148  PHE148      0.1605
     84  C         51.8000   45.8600  -24.8370 C.2   148  PHE148      0.2264
     85  O         51.8330   46.9590  -24.2640 O.2   148  PHE148     -0.2867
     86  CB        53.8800   44.5930  -25.3950 C.3   148  PHE148      0.0534
     87  CG        54.5220   45.8980  -25.7500 C.ar  148  PHE148     -0.0203
     88  CD1       55.4010   46.5060  -24.8790 C.ar  148  PHE148     -0.0042
     89  CD2       54.2490   46.5150  -26.9620 C.ar  148  PHE148     -0.0042
     90  CE1       55.9930   47.7060  -25.2050 C.ar  148  PHE148     -0.0003
     91  CE2       54.8440   47.7160  -27.2950 C.ar  148  PHE148     -0.0003
     92  CZ        55.7180   48.3110  -26.4180 C.ar  148  PHE148     -0.0000
     93  N         52.0140   39.6350  -17.6350 N.3   164  TRP164     -0.1241
     94  CA        53.3250   39.4150  -18.2350 C.3   164  TRP164      0.1605
     95  C         54.1190   38.3920  -17.4390 C.2   164  TRP164      0.2264
     96  O         54.5880   37.3900  -17.9900 O.2   164  TRP164     -0.2867
     97  CB        54.0960   40.7240  -18.3290 C.3   164  TRP164      0.0550
     98  CG        55.3850   40.5540  -19.0410 C.ar  164  TRP164      0.0003
     99  CD1       56.5770   40.2210  -18.4830 C.ar  164  TRP164      0.0946
    100  CD2       55.6230   40.6880  -20.4470 C.ar  164  TRP164      0.0152
    101  NE1       57.5480   40.1420  -19.4470 N.ar  164  TRP164     -0.2442
    102  CE2       56.9860   40.4270  -20.6620 C.ar  164  TRP164      0.0810
    103  CE3       54.8170   41.0110  -21.5410 C.ar  164  TRP164      0.0012
    104  CZ2       57.5610   40.4760  -21.9200 C.ar  164  TRP164      0.0191
    105  CZ3       55.3940   41.0620  -22.7930 C.ar  164  TRP164      0.0001
    106  CH2       56.7520   40.8000  -22.9700 C.ar  164  TRP164      0.0015
    107  N         55.6410   30.0990  -20.0540 N.3   171  MET171     -0.1245
    108  CA        56.4530   29.8360  -21.2390 C.3   171  MET171      0.1570
    109  C         57.7500   29.1150  -20.8790 C.2   171  MET171      0.2261
    110  O         58.2760   28.3430  -21.6870 O.2   171  MET171     -0.2867
    111  CB        56.7560   31.1330  -21.9890 C.3   171  MET171      0.0387
    112  CG        57.2910   30.8720  -23.4110 C.3   171  MET171      0.0595
    113  SD        56.0650   30.2410  -24.6040 S.3   171  MET171     -0.1393
    114  CE        57.1970   29.5320  -25.8220 C.3   171  MET171      0.0692
    115  N         58.6350   25.8310  -22.9410 N.3   175  GLN175     -0.1245
    116  CA        59.8980   25.7290  -23.6610 C.3   175  GLN175      0.1566
    117  C         60.6870   24.5180  -23.2170 C.2   175  GLN175      0.2260
    118  O         61.1650   23.7510  -24.0540 O.2   175  GLN175     -0.2867
    119  CB        60.7450   26.9790  -23.4330 C.3   175  GLN175      0.0367
    120  CG        62.0530   26.9810  -24.1550 C.3   175  GLN175      0.0905
    121  CD        61.9890   27.7550  -25.4360 C.2   175  GLN175      0.2608
    122  OE1       61.1050   28.5980  -25.6430 O.2   175  GLN175     -0.2717
    123  NE2       62.9310   27.4770  -26.3200 N.am  175  GLN175     -0.0878
@<TRIPOS>BOND
     1    37    35    1
     2    35    34    1
     3    35    36    1
     4    61    60    1
     5    34    31    1
     6    48    49    2
     7    48    47    1
     8    80    79    1
     9    46    47    1
    10    32    33    2
    11    32    31    1
    12    59    60    1
    13    59    56    1
    14    47    50    1
    15    60    62    1
    16    31    30    1
    17    50    51    1
    18    57    58    2
    19    57    56    1
    20    53    52   ar
    21    56    55    1
    22    14    15    2
    23    14    13    1
    24    78    79    1
    25    78    75    1
    26    79    81    1
    27    30    25   am
    28    51    52    1
    29     1     2    1
    30    40    41    2
    31    40    39    1
    32    52    54   ar
    33    16    13    1
    34    16    17    1
    35    13    12    1
    36    76    75    1
    37    76    77    2
    38    23    24    1
    39    38    39    1
    40    12     3   am
    41    75    74    1
    42    25    26    2
    43    25    24    1
    44     4     3    2
    45     3     2    1
    46    19    17   ar
    47    19    21   ar
    48    39    42    1
    49    74    65   am
    50     2     5    1
    51    17    18   ar
    52    24    27    1
    53    42    43    1
    54    63    64    1
    55    21    22   ar
    56    65    66    2
    57    65    64    1
    58     5     6    1
    59    27    28    1
    60    27    29    1
    61    18    20   ar
    62    43    44    2
    63    43    45   am
    64    64    67    1
    65    91    89   ar
    66    91    92   ar
    67    67    68    1
    68    89    87   ar
    69    22    20   ar
    70     6     8   ar
    71     6     7   ar
    72    70    68   ar
    73    70    72   ar
    74    92    90   ar
    75     8    10   ar
    76   123   121   am
    77    68    69   ar
    78     7     9   ar
    79   114   113    1
    80    72    73   ar
    81    87    86    1
    82    87    88   ar
    83   122   121    2
    84   121   120    1
    85    86    83    1
    86    10    11   ar
    87    90    88   ar
    88    84    83    1
    89    84    85    2
    90    69    71   ar
    91     9    11   ar
    92   113   112    1
    93    73    71   ar
    94    83    82    1
    95   120   119    1
    96   118   117    2
    97   116   119    1
    98   116   117    1
    99   116   115    1
   100   112   111    1
   101   106   105   ar
   102   106   104   ar
   103   105   103   ar
   104   111   108    1
   105   104   102   ar
   106   110   109    2
   107   103   100   ar
   108   108   109    1
   109   108   107    1
   110   102   100   ar
   111   102   101   ar
   112   100    98   ar
   113   101    99   ar
   114    98    99   ar
   115    98    97    1
   116    97    94    1
   117    94    93    1
   118    94    95    1
   119    96    95    2
