@<TRIPOS>MOLECULE
tmp/6d9zD00.pdb
 115 110 0 0 0
SMALL
GASTEIGER

@<TRIPOS>ATOM
      1  N         76.8380   30.6840  -28.0120 N.3    32  ASN32      -0.1240
      2  CA        76.8240   32.1350  -27.8680 C.3    32  ASN32       0.1653
      3  C         78.1780   32.7390  -28.1950 C.2    32  ASN32       0.2266
      4  O         78.2460   33.8710  -28.6840 O.2    32  ASN32      -0.2867
      5  CB        76.3820   32.5210  -26.4520 C.3    32  ASN32       0.1155
      6  CG        74.8980   32.2130  -26.1990 C.2    32  ASN32       0.2627
      7  OD1       74.0820   32.2310  -27.1350 O.2    32  ASN32      -0.2716
      8  ND2       74.5430   31.9280  -24.9340 N.am   32  ASN32      -0.0877
      9  N         78.4580   35.0270  -31.6410 N.3    36  PHE36      -0.1241
     10  CA        79.0220   36.3550  -31.4250 C.3    36  PHE36       0.1605
     11  C         80.2450   36.5950  -32.3120 C.2    36  PHE36       0.2264
     12  O         80.2790   37.5480  -33.0960 O.2    36  PHE36      -0.2867
     13  CB        79.3770   36.5250  -29.9500 C.3    36  PHE36       0.0534
     14  CG        80.1240   37.7790  -29.6540 C.ar   36  PHE36      -0.0203
     15  CD1       79.4450   38.9630  -29.4350 C.ar   36  PHE36      -0.0042
     16  CD2       81.5080   37.7780  -29.5960 C.ar   36  PHE36      -0.0042
     17  CE1       80.1330   40.1230  -29.1660 C.ar   36  PHE36      -0.0003
     18  CE2       82.2020   38.9350  -29.3220 C.ar   36  PHE36      -0.0003
     19  CZ        81.5140   40.1120  -29.1040 C.ar   36  PHE36      -0.0000
     20  N         79.3560   37.2630  -35.8590 N.3    39  LEU39      -0.1231
     21  CA        78.5030   38.4310  -36.0890 C.3    39  LEU39       0.1693
     22  C         79.1330   39.7400  -35.6120 C.2    39  LEU39       0.2591
     23  O         78.9670   40.7760  -36.2690 O.2    39  LEU39      -0.2718
     24  CB        77.1550   38.2300  -35.3950 C.3    39  LEU39       0.0284
     25  CG        76.0130   37.6350  -36.2070 C.3    39  LEU39       0.0019
     26  CD1       76.4680   36.4280  -36.9860 C.3    39  LEU39       0.0001
     27  CD2       74.8820   37.2670  -35.2410 C.3    39  LEU39       0.0001
     28  N         79.8630   39.7170  -34.4880 N.am   40  ILE40      -0.1980
     29  CA        80.2490   40.9630  -33.8190 C.3    40  ILE40       0.1595
     30  C         80.8400   41.9430  -34.8220 C.2    40  ILE40       0.2287
     31  O         80.2910   43.0300  -35.0540 O.2    40  ILE40      -0.2864
     32  CB        81.2160   40.6820  -32.6490 C.3    40  ILE40       0.0276
     33  CG1       81.6860   41.9830  -31.9930 C.3    40  ILE40       0.0022
     34  CG2       82.4350   39.8840  -33.0700 C.3    40  ILE40       0.0022
     35  CD1       80.5680   42.8060  -31.4040 C.3    40  ILE40       0.0001
     36  N         78.3920   43.4650  -37.3220 N.3    43  ALA43      -0.1245
     37  CA        77.5080   44.4400  -36.7010 C.3    43  ALA43       0.1562
     38  C         78.2150   45.7650  -36.5360 C.2    43  ALA43       0.2260
     39  O         77.7150   46.8030  -36.9800 O.2    43  ALA43      -0.2867
     40  CB        77.0490   43.9370  -35.3410 C.3    43  ALA43       0.0290
     41  N         68.9170   44.3250  -32.6010 N.3    81  VAL81      -0.1231
     42  CA        70.1400   43.5320  -32.6380 C.3    81  VAL81       0.1692
     43  C         70.1360   42.5140  -31.5050 C.2    81  VAL81       0.2592
     44  O         70.3690   41.3220  -31.7190 O.2    81  VAL81      -0.2718
     45  CB        71.3640   44.4650  -32.5840 C.3    81  VAL81       0.0266
     46  CG1       72.6330   43.7100  -32.3020 C.3    81  VAL81       0.0020
     47  CG2       71.4840   45.2470  -33.9140 C.3    81  VAL81       0.0020
     48  N         69.8190   42.9570  -30.2920 N.am   82  PHE82      -0.1976
     49  CA        69.7700   42.0290  -29.1700 C.3    82  PHE82       0.1639
     50  C         68.7340   40.9380  -29.4230 C.2    82  PHE82       0.2290
     51  O         69.0670   39.7500  -29.4430 O.2    82  PHE82      -0.2864
     52  CB        69.4800   42.7870  -27.8760 C.3    82  PHE82       0.0560
     53  CG        69.2690   41.8880  -26.6770 C.ar   82  PHE82      -0.0200
     54  CD1       70.3410   41.4680  -25.8920 C.ar   82  PHE82      -0.0042
     55  CD2       67.9870   41.4440  -26.3370 C.ar   82  PHE82      -0.0042
     56  CE1       70.1420   40.6380  -24.7780 C.ar   82  PHE82      -0.0003
     57  CE2       67.7740   40.6180  -25.2330 C.ar   82  PHE82      -0.0003
     58  CZ        68.8530   40.2100  -24.4520 C.ar   82  PHE82      -0.0000
     59  N         69.6730   38.6140  -32.1700 N.3    85  PHE85      -0.1227
     60  CA        70.7450   37.7370  -31.7080 C.3    85  PHE85       0.1736
     61  C         70.1980   36.6370  -30.8110 C.2    85  PHE85       0.2596
     62  O         70.3860   35.4470  -31.0740 O.2    85  PHE85      -0.2718
     63  CB        71.7960   38.5330  -30.9530 C.3    85  PHE85       0.0547
     64  CG        72.9310   37.7060  -30.4780 C.ar   85  PHE85      -0.0202
     65  CD1       73.9610   37.3960  -31.3250 C.ar   85  PHE85      -0.0042
     66  CD2       72.9650   37.2370  -29.1860 C.ar   85  PHE85      -0.0042
     67  CE1       75.0130   36.6330  -30.8900 C.ar   85  PHE85      -0.0003
     68  CE2       74.0220   36.4760  -28.7450 C.ar   85  PHE85      -0.0003
     69  CZ        75.0420   36.1710  -29.6020 C.ar   85  PHE85      -0.0000
     70  N         69.5210   37.0340  -29.7310 N.am   86  THR86      -0.1953
     71  CA        68.9100   36.0710  -28.8230 C.3    86  THR86       0.1897
     72  C         67.9310   35.1740  -29.5590 C.2    86  THR86       0.2313
     73  O         67.7930   33.9970  -29.2120 O.2    86  THR86      -0.2863
     74  CB        68.1990   36.7850  -27.6850 C.3    86  THR86       0.1794
     75  OG1       69.1240   37.6590  -27.0150 O.3    86  THR86      -0.2208
     76  CG2       67.6150   35.7470  -26.7030 C.3    86  THR86       0.0378
     77  N         67.3720   32.2710  -14.9150 N.3   213  LEU213     -0.1231
     78  CA        67.7690   32.7640  -16.2360 C.3   213  LEU213      0.1693
     79  C         67.8410   34.2850  -16.3010 C.2   213  LEU213      0.2591
     80  O         68.4000   34.8200  -17.2660 O.2   213  LEU213     -0.2718
     81  CB        66.8010   32.2430  -17.3030 C.3   213  LEU213      0.0284
     82  CG        67.0690   30.8040  -17.7060 C.3   213  LEU213      0.0019
     83  CD1       65.7770   30.1000  -17.9310 C.3   213  LEU213      0.0001
     84  CD2       67.8870   30.7640  -18.9750 C.3   213  LEU213      0.0001
     85  N         67.3250   34.9880  -15.2900 N.am  214  LEU214     -0.1980
     86  CA        67.5350   36.4370  -15.2240 C.3   214  LEU214      0.1596
     87  C         68.9650   36.8180  -14.8230 C.2   214  LEU214      0.2287
     88  O         69.4340   37.9080  -15.1720 O.2   214  LEU214     -0.2864
     89  CB        66.5250   37.0610  -14.2590 C.3   214  LEU214      0.0297
     90  CG        65.0630   36.8520  -14.6420 C.3   214  LEU214      0.0022
     91  CD1       64.2300   37.9090  -13.9760 C.3   214  LEU214      0.0001
     92  CD2       64.8690   36.8660  -16.1630 C.3   214  LEU214      0.0001
     93  N         72.7100   36.9600  -15.4980 N.3   216  PRO216     -0.2116
     94  CA        73.3550   36.8000  -16.8150 C.3   216  PRO216      0.1372
     95  C         74.4590   35.7530  -16.8620 C.2   216  PRO216      0.2244
     96  O         74.3960   34.8250  -17.6740 O.2   216  PRO216     -0.2868
     97  CB        73.9100   38.2030  -17.1080 C.3   216  PRO216      0.0268
     98  CG        74.0300   38.8590  -15.7910 C.3   216  PRO216      0.0207
     99  CD        72.9390   38.3010  -14.9330 C.3   216  PRO216      0.0892
    100  N         73.0310   32.0830  -16.0560 N.3   219  ASN219     -0.1225
    101  CA        72.1800   31.4180  -17.0430 C.3   219  ASN219      0.1785
    102  C         72.9250   30.4190  -17.9220 C.2   219  ASN219      0.2597
    103  O         72.3010   29.5130  -18.4880 O.2   219  ASN219     -0.2718
    104  CB        71.5260   32.4360  -17.9620 C.3   219  ASN219      0.1169
    105  CG        72.3970   32.7610  -19.1720 C.2   219  ASN219      0.2627
    106  OD1       73.6370   32.7340  -19.0830 O.2   219  ASN219     -0.2716
    107  ND2       71.7620   33.0580  -20.3120 N.am  219  ASN219     -0.0877
    108  N         74.2310   30.6200  -18.1400 N.am  220  LEU220     -0.1980
    109  CA        74.9850   29.6830  -18.9700 C.3   220  LEU220      0.1596
    110  C         75.0830   28.3100  -18.3270 C.2   220  LEU220      0.2287
    111  O         75.1410   27.3000  -19.0360 O.2   220  LEU220     -0.2864
    112  CB        76.3840   30.2180  -19.2480 C.3   220  LEU220      0.0297
    113  CG        76.5260   31.5020  -20.0660 C.3   220  LEU220      0.0022
    114  CD1       78.0110   31.7680  -20.2940 C.3   220  LEU220      0.0001
    115  CD2       75.7770   31.3810  -21.3960 C.3   220  LEU220      0.0001
@<TRIPOS>BOND
     1    36    37    1
     2    26    25    1
     3    39    38    2
     4    37    38    1
     5    37    40    1
     6    23    22    2
     7    25    24    1
     8    25    27    1
     9    21    20    1
    10    21    22    1
    11    21    24    1
    12    22    28   am
    13    31    30    2
    14    30    29    1
    15    28    29    1
    16    47    45    1
    17    29    32    1
    18    12    11    2
    19    34    32    1
    20    32    33    1
    21    42    41    1
    22    42    45    1
    23    42    43    1
    24    45    46    1
    25    11    10    1
    26    59    60    1
    27    33    35    1
    28    44    43    2
    29    60    63    1
    30    60    61    1
    31     9    10    1
    32    43    48   am
    33    10    13    1
    34    65    67   ar
    35    65    64   ar
    36    62    61    2
    37    63    64    1
    38    67    69   ar
    39    61    70   am
    40    64    66   ar
    41    48    49    1
    42    13    14    1
    43    70    71    1
    44    14    16   ar
    45    14    15   ar
    46    69    68   ar
    47    16    18   ar
    48    72    73    2
    49    72    71    1
    50    51    50    2
    51    15    17   ar
    52    50    49    1
    53    18    19   ar
    54    66    68   ar
    55    49    52    1
    56    17    19   ar
    57    71    74    1
    58     4     3    2
    59     3     2    1
    60     1     2    1
    61    52    53    1
    62     2     5    1
    63    74    75    1
    64    74    76    1
    65     7     6    2
    66    53    55   ar
    67    53    54   ar
    68     5     6    1
    69    55    57   ar
    70     6     8   am
    71    54    56   ar
    72    57    58   ar
    73    56    58   ar
    74   115   113    1
    75   107   105   am
    76   114   113    1
    77   113   112    1
    78   112   109    1
    79   105   106    2
    80   105   104    1
    81   111   110    2
    82    84    82    1
    83   109   110    1
    84   109   108    1
    85   103   102    2
    86   108   102   am
    87   104   101    1
    88    83    82    1
    89   102   101    1
    90    82    81    1
    91    96    95    2
    92    81    78    1
    93    80    79    2
    94    97    94    1
    95    97    98    1
    96   101   100    1
    97    95    94    1
    98    94    93    1
    99    79    78    1
   100    79    85   am
   101    78    77    1
   102    92    90    1
   103    98    99    1
   104    93    99    1
   105    85    86    1
   106    86    87    1
   107    86    89    1
   108    88    87    2
   109    90    89    1
   110    90    91    1
