@<TRIPOS>MOLECULE
tmp/6da0A01.pdb
 175 167 0 0 0
SMALL
GASTEIGER

@<TRIPOS>ATOM
      1  N         79.1240   52.0100   13.9110 N.3    34  GLY34      -0.1210
      2  CA        78.0100   51.2750   13.3510 C.3    34  GLY34       0.1956
      3  C         77.0650   50.7800   14.4370 C.2    34  GLY34       0.2612
      4  O         77.3210   50.9220   15.6380 O.2    34  GLY34      -0.2717
      5  N         75.9700   50.1600   13.9900 N.am   35  ALA35      -0.1965
      6  CA        74.9560   49.6950   14.9250 C.3    35  ALA35       0.1728
      7  C         75.4710   48.5720   15.8210 C.2    35  ALA35       0.2617
      8  O         74.9580   48.3820   16.9270 O.2    35  ALA35      -0.2715
      9  CB        73.7120   49.2360   14.1560 C.3    35  ALA35       0.0334
     10  N         76.4640   47.8110   15.3730 N.am   36  THR36      -0.1937
     11  CA        76.9530   46.6980   16.1670 C.3    36  THR36       0.2028
     12  C         78.4420   46.7670   16.4730 C.2    36  THR36       0.2642
     13  O         78.8880   46.0890   17.4050 O.2    36  THR36      -0.2714
     14  CB        76.6520   45.3530   15.4740 C.3    36  THR36       0.1808
     15  OG1       77.4640   45.2220   14.3090 O.3    36  THR36      -0.2208
     16  CG2       75.1830   45.2580   15.0620 C.3    36  THR36       0.0379
     17  N         79.2130   47.5660   15.7330 N.am   37  ASN37      -0.1971
     18  CA        80.6440   47.7230   15.9610 C.3    37  ASN37       0.1688
     19  C         81.0480   49.1700   15.7470 C.2    37  ASN37       0.2292
     20  O         80.4600   49.8790   14.9200 O.2    37  ASN37      -0.2864
     21  CB        81.4930   46.8630   15.0120 C.3    37  ASN37       0.1181
     22  CG        81.2100   45.4080   15.1580 C.2    37  ASN37       0.2629
     23  OD1       81.6270   44.7810   16.1300 O.2    37  ASN37      -0.2716
     24  ND2       80.4870   44.8490   14.1970 N.am   37  ASN37      -0.0877
     25  N         84.6340   51.4920   14.9710 N.3    39  ARG39      -0.1245
     26  CA        86.0240   51.4880   14.5260 C.3    39  ARG39       0.1563
     27  C         86.6730   52.8140   14.8930 C.2    39  ARG39       0.2260
     28  O         86.0760   53.8800   14.6900 O.2    39  ARG39      -0.2867
     29  CB        86.1120   51.2700   13.0150 C.3    39  ARG39       0.0307
     30  CG        85.7260   49.8710   12.5950 C.3    39  ARG39       0.0489
     31  CD        85.3430   49.8030   11.1290 C.3    39  ARG39       0.2205
     32  NE        85.3610   48.4220   10.6570 N.pl3  39  ARG39      -0.0865
     33  CZ        84.3250   47.5900   10.7330 C.cat  39  ARG39       0.5346
     34  NH1       83.1730   48.0040   11.2530 N.pl3  39  ARG39       0.1354
     35  NH2       84.4420   46.3440   10.2850 N.pl3  39  ARG39       0.1354
     36  N         76.6780   58.3780    9.5050 N.3   134  ASP134     -0.1239
     37  CA        77.6070   57.3980    8.9370 C.3   134  ASP134      0.1674
     38  C         77.6070   57.4660    7.4110 C.2   134  ASP134      0.2266
     39  O         78.6690   57.4890    6.7780 O.2   134  ASP134     -0.2867
     40  CB        77.2840   55.9790    9.4140 C.3   134  ASP134      0.1410
     41  CG        75.9150   55.4890    8.9380 C.2   134  ASP134      0.3668
     42  OD1       74.9930   56.3250    8.8520 O.co2 134  ASP134     -0.2456
     43  OD2       75.7640   54.2790    8.6400 O.co2 134  ASP134     -0.2456
     44  N         73.1800   49.3860    1.9050 N.3   183  MET183     -0.1230
     45  CA        72.4080   48.4380    2.7100 C.3   183  MET183      0.1702
     46  C         73.3290   47.6260    3.6090 C.2   183  MET183      0.2593
     47  O         74.1590   46.8550    3.1140 O.2   183  MET183     -0.2718
     48  CB        71.6310   47.4540    1.8330 C.3   183  MET183      0.0401
     49  CG        70.3670   47.9450    1.2190 C.3   183  MET183      0.0596
     50  SD        69.3640   46.5250    0.7070 S.3   183  MET183     -0.1393
     51  CE        70.4900   45.6570   -0.4080 C.3   183  MET183      0.0692
     52  N         73.1500   47.7500    4.9180 N.am  184  GLY184     -0.1942
     53  CA        73.8820   46.9070    5.8500 C.3   184  GLY184      0.2014
     54  C         72.9560   46.5440    6.9900 C.2   184  GLY184      0.2640
     55  O         71.8600   46.0160    6.7630 O.2   184  GLY184     -0.2714
     56  N         73.3520   46.8480    8.2220 N.am  185  THR185     -0.1936
     57  CA        72.4020   46.7090    9.3150 C.3   185  THR185      0.2028
     58  C         71.2010   47.6180    9.0920 C.2   185  THR185      0.2642
     59  O         70.0690   47.2530    9.4220 O.2   185  THR185     -0.2714
     60  CB        73.0880   47.0010   10.6510 C.3   185  THR185      0.1808
     61  OG1       74.1410   46.0520   10.8410 O.3   185  THR185     -0.2208
     62  CG2       72.1000   46.8720   11.8120 C.3   185  THR185      0.0379
     63  N         71.4320   48.8000    8.5070 N.am  186  GLY186     -0.1954
     64  CA        70.3630   49.6980    8.1210 C.3   186  GLY186      0.1869
     65  C         70.4800   50.0780    6.6540 C.2   186  GLY186      0.2309
     66  O         71.3830   49.6310    5.9480 O.2   186  GLY186     -0.2863
     67  N         69.9400   43.8670    6.8080 N.3   251  GLY251     -0.1210
     68  CA        70.1940   42.5000    7.2240 C.3   251  GLY251      0.1956
     69  C         68.9500   41.8280    7.7840 C.2   251  GLY251      0.2611
     70  O         68.5360   40.7610    7.3170 O.2   251  GLY251     -0.2717
     71  N         68.3240   42.4600    8.7780 N.am  252  ARG252     -0.1979
     72  CA        67.1070   41.8950    9.3440 C.3   252  ARG252      0.1597
     73  C         65.9830   41.8800    8.3180 C.2   252  ARG252      0.2287
     74  O         65.1390   40.9740    8.3360 O.2   252  ARG252     -0.2864
     75  CB        66.6930   42.6650   10.6010 C.3   252  ARG252      0.0334
     76  CG        66.1230   44.0810   10.3500 C.3   252  ARG252      0.0492
     77  CD        65.9170   44.8380   11.6820 C.3   252  ARG252      0.2205
     78  NE        65.3330   46.1710   11.4900 N.pl3 252  ARG252     -0.0865
     79  CZ        66.0270   47.2440   11.0980 C.cat 252  ARG252      0.5346
     80  NH1       67.3390   47.1560   10.8390 N.pl3 252  ARG252      0.1354
     81  NH2       65.4060   48.4020   10.9460 N.pl3 252  ARG252      0.1354
     82  N         66.3490   41.3290    5.0520 N.3   254  LEU254     -0.1231
     83  CA        66.5540   40.1760    4.1910 C.3   254  LEU254      0.1693
     84  C         66.0010   38.9350    4.8650 C.2   254  LEU254      0.2591
     85  O         65.3570   38.1010    4.2190 O.2   254  LEU254     -0.2718
     86  CB        68.0460   40.0160    3.8660 C.3   254  LEU254      0.0284
     87  CG        68.4610   38.8610    2.9500 C.3   254  LEU254      0.0019
     88  CD1       67.6520   38.8900    1.6480 C.3   254  LEU254      0.0001
     89  CD2       69.9800   38.8760    2.6510 C.3   254  LEU254      0.0001
     90  N         66.1970   38.8310    6.1830 N.am  255  GLU255     -0.1979
     91  CA        65.6700   37.6990    6.9300 C.3   255  GLU255      0.1602
     92  C         64.1470   37.7130    6.9540 C.2   255  GLU255      0.2287
     93  O         63.5130   36.6550    6.8280 O.2   255  GLU255     -0.2864
     94  CB        66.2380   37.7080    8.3420 C.3   255  GLU255      0.0415
     95  CG        67.7400   37.4910    8.3590 C.3   255  GLU255      0.1163
     96  CD        68.3480   37.7590    9.7190 C.2   255  GLU255      0.3649
     97  OE1       67.6190   38.2420   10.6210 O.co2 255  GLU255     -0.2457
     98  OE2       69.5610   37.5010    9.8780 O.co2 255  GLU255     -0.2457
     99  N         70.7460   36.4510    7.5320 N.3   273  ALA273     -0.1231
    100  CA        71.0720   37.2440    6.3490 C.3   273  ALA273      0.1694
    101  C         72.2700   36.6630    5.6110 C.2   273  ALA273      0.2592
    102  O         72.2520   36.5490    4.3790 O.2   273  ALA273     -0.2718
    103  CB        71.3350   38.7000    6.7500 C.3   273  ALA273      0.0304
    104  N         73.3020   36.2520    6.3580 N.am  274  SER274     -0.1952
    105  CA        74.4980   35.6830    5.7420 C.3   274  SER274      0.1924
    106  C         74.1760   34.4000    4.9910 C.2   274  SER274      0.2314
    107  O         74.5980   34.2190    3.8410 O.2   274  SER274     -0.2863
    108  CB        75.5650   35.4170    6.8050 C.3   274  SER274      0.2116
    109  OG        76.2120   36.6180    7.1720 O.3   274  SER274     -0.2180
    110  N         72.3550   35.1630    1.7160 N.3   277  ALA277     -0.1245
    111  CA        73.2450   35.6900    0.6880 C.3   277  ALA277      0.1562
    112  C         74.1670   34.6180    0.1160 C.2   277  ALA277      0.2260
    113  O         74.5840   34.7190   -1.0420 O.2   277  ALA277     -0.2867
    114  CB        74.0730   36.8370    1.2580 C.3   277  ALA277      0.0290
    115  N         64.9080   41.9750   -1.6980 N.3   293  HIS293     -0.1226
    116  CA        65.8670   42.8250   -0.9940 C.3   293  HIS293      0.1752
    117  C         66.4930   43.8620   -1.9340 C.2   293  HIS293      0.2596
    118  O         66.4970   45.0660   -1.6430 O.2   293  HIS293     -0.2718
    119  CB        66.9070   41.8530   -0.3840 C.3   293  HIS293      0.0759
    120  CG        67.9690   42.4630    0.4770 C.ar  293  HIS293      0.0818
    121  ND1       67.6990   43.1380    1.6450 N.ar  293  HIS293     -0.2268
    122  CD2       69.3200   42.3950    0.3900 C.ar  293  HIS293      0.1154
    123  CE1       68.8330   43.5060    2.2150 C.ar  293  HIS293      0.1986
    124  NE2       69.8310   43.0660    1.4720 N.ar  293  HIS293     -0.2212
    125  N         67.0100   43.4120   -3.0870 N.am  294  TYR294     -0.1976
    126  CA        67.6230   44.3550   -4.0160 C.3   294  TYR294      0.1639
    127  C         66.6000   45.1040   -4.8650 C.2   294  TYR294      0.2290
    128  O         66.8550   46.2600   -5.2180 O.2   294  TYR294     -0.2864
    129  CB        68.6770   43.6450   -4.8840 C.3   294  TYR294      0.0560
    130  CG        69.9970   43.6450   -4.1510 C.ar  294  TYR294     -0.0198
    131  CD1       70.4130   42.5290   -3.4220 C.ar  294  TYR294     -0.0009
    132  CD2       70.7940   44.7980   -4.1110 C.ar  294  TYR294     -0.0009
    133  CE1       71.6110   42.5480   -2.6940 C.ar  294  TYR294      0.0417
    134  CE2       72.0040   44.8190   -3.4030 C.ar  294  TYR294      0.0417
    135  CZ        72.3920   43.6990   -2.6900 C.ar  294  TYR294      0.1957
    136  OH        73.5560   43.7160   -1.9770 O.3   294  TYR294     -0.2866
    137  N         78.8060   50.1900   -0.1310 N.3   318  GLY318     -0.1210
    138  CA        78.8590   49.3620    1.0530 C.3   318  GLY318      0.1956
    139  C         79.5140   48.0180    0.7810 C.2   318  GLY318      0.2612
    140  O         79.4950   47.4980   -0.3430 O.2   318  GLY318     -0.2717
    141  N         80.1030   47.4440    1.8370 N.am  319  ASP319     -0.1959
    142  CA        80.7470   46.1420    1.7160 C.3   319  ASP319      0.1840
    143  C         79.7630   45.0580    1.3030 C.2   319  ASP319      0.2622
    144  O         80.1260   44.1480    0.5470 O.2   319  ASP319     -0.2715
    145  CB        81.4180   45.7680    3.0310 C.3   319  ASP319      0.1450
    146  CG        82.6820   46.5630    3.2850 C.2   319  ASP319      0.3671
    147  OD1       83.1930   47.2440    2.3500 O.co2 319  ASP319     -0.2456
    148  OD2       83.1570   46.5070    4.4350 O.co2 319  ASP319     -0.2456
    149  N         78.5160   45.1250    1.7930 N.am  320  ASN320     -0.1972
    150  CA        77.5290   44.1240    1.3990 C.3   320  ASN320      0.1688
    151  C         77.2710   44.1710   -0.0980 C.2   320  ASN320      0.2292
    152  O         77.1230   43.1260   -0.7460 O.2   320  ASN320     -0.2864
    153  CB        76.2200   44.3150    2.1630 C.3   320  ASN320      0.1181
    154  CG        76.2260   43.6110    3.4910 C.2   320  ASN320      0.2629
    155  OD1       77.0340   42.7160    3.7220 O.2   320  ASN320     -0.2716
    156  ND2       75.3250   44.0080    4.3790 N.am  320  ASN320     -0.0877
    157  N         79.9690   42.3020   -1.6120 N.3   323  PHE323     -0.1227
    158  CA        79.8650   40.8690   -1.3590 C.3   323  PHE323      0.1736
    159  C         78.8000   40.2260   -2.2480 C.2   323  PHE323      0.2595
    160  O         78.9760   39.0940   -2.7090 O.2   323  PHE323     -0.2718
    161  CB        79.5700   40.6080    0.1210 C.3   323  PHE323      0.0547
    162  CG        79.6300   39.1410    0.5010 C.ar  323  PHE323     -0.0202
    163  CD1       78.4960   38.3390    0.4320 C.ar  323  PHE323     -0.0042
    164  CD2       80.8260   38.5620    0.9150 C.ar  323  PHE323     -0.0042
    165  CE1       78.5520   36.9910    0.7730 C.ar  323  PHE323     -0.0003
    166  CE2       80.8880   37.2120    1.2570 C.ar  323  PHE323     -0.0003
    167  CZ        79.7490   36.4290    1.1840 C.ar  323  PHE323     -0.0000
    168  N         77.7030   40.9400   -2.5260 N.am  324  ASN324     -0.1974
    169  CA        76.5980   40.3770   -3.2960 C.3   324  ASN324      0.1688
    170  C         76.7110   40.6550   -4.7980 C.2   324  ASN324      0.2292
    171  O         75.6990   40.5800   -5.5100 O.2   324  ASN324     -0.2864
    172  CB        75.2530   40.9010   -2.7600 C.3   324  ASN324      0.1181
    173  CG        74.9910   40.4880   -1.3160 C.2   324  ASN324      0.2629
    174  OD1       75.4190   39.4160   -0.8680 O.2   324  ASN324     -0.2716
    175  ND2       74.3040   41.3480   -0.5740 N.am  324  ASN324     -0.0877
@<TRIPOS>BOND
     1   171   170    2
     2   128   127    2
     3   129   130    1
     4   129   126    1
     5   127   126    1
     6   170   169    1
     7   130   132   ar
     8   130   131   ar
     9   132   134   ar
    10   126   125    1
    11   131   133   ar
    12   134   135   ar
    13   169   172    1
    14   169   168    1
    15   125   117   am
    16   172   173    1
    17   160   159    2
    18   133   135   ar
    19   135   136    1
    20   168   159   am
    21   159   158    1
    22   117   118    2
    23   117   116    1
    24   115   116    1
    25   157   158    1
    26   158   161    1
    27   173   174    2
    28   173   175   am
    29   113   112    2
    30   116   119    1
    31   152   151    2
    32    51    50    1
    33   119   120    1
    34   140   139    2
    35   137   138    1
    36   151   150    1
    37   112   111    1
    38   161   162    1
    39   122   120   ar
    40   122   124   ar
    41   163   162   ar
    42   163   165   ar
    43   120   121   ar
    44   162   164   ar
    45   144   143    2
    46   111   114    1
    47   111   110    1
    48    50    49    1
    49   165   167   ar
    50   139   138    1
    51   139   141   am
    52   164   166   ar
    53   167   166   ar
    54    49    48    1
    55   143   142    1
    56   143   149   am
    57   150   149    1
    58   150   153    1
    59   124   123   ar
    60   121   123   ar
    61    88    87    1
    62   142   141    1
    63   142   145    1
    64    48    45    1
    65    44    45    1
    66   153   154    1
    67   147   146   ar
    68    89    87    1
    69    45    46    1
    70    87    86    1
    71   145   146    1
    72    47    46    2
    73   146   148   ar
    74   154   155    2
    75   154   156   am
    76    46    52   am
    77   107   106    2
    78    86    83    1
    79    83    84    1
    80    83    82    1
    81    85    84    2
    82   102   101    2
    83    84    90   am
    84    52    53    1
    85   106   105    1
    86   101   100    1
    87   101   104   am
    88   105   104    1
    89   105   108    1
    90    53    54    1
    91    66    65    2
    92    90    91    1
    93   100   103    1
    94   100    99    1
    95    65    64    1
    96    55    54    2
    97    39    38    2
    98   108   109    1
    99    67    68    1
   100    93    92    2
   101    91    92    1
   102    91    94    1
   103    54    56   am
   104    68    69    1
   105    70    69    2
   106    38    37    1
   107    69    71   am
   108    64    63    1
   109    56    57    1
   110    73    74    2
   111    73    72    1
   112    94    95    1
   113    95    96    1
   114    63    58   am
   115    43    41   ar
   116    71    72    1
   117    42    41   ar
   118    37    40    1
   119    37    36    1
   120    41    40    1
   121    58    57    1
   122    58    59    2
   123    57    60    1
   124    72    75    1
   125    96    98   ar
   126    96    97   ar
   127    35    33    1
   128    76    75    1
   129    76    77    1
   130    60    61    1
   131    60    62    1
   132    32    33    2
   133    32    31    1
   134    33    34    1
   135    80    79    1
   136    81    79    1
   137    79    78    2
   138    31    30    1
   139    78    77    1
   140    30    29    1
   141    29    26    1
   142     2     1    1
   143     2     3    1
   144     5     3   am
   145     5     6    1
   146     9     6    1
   147    24    22   am
   148    15    14    1
   149     3     4    2
   150    26    27    1
   151    26    25    1
   152    28    27    2
   153    20    19    2
   154     6     7    1
   155    21    22    1
   156    21    18    1
   157    16    14    1
   158    22    23    2
   159    10     7   am
   160    10    11    1
   161    14    11    1
   162    17    18    1
   163    17    12   am
   164    19    18    1
   165     7     8    2
   166    11    12    1
   167    12    13    2
