@<TRIPOS>MOLECULE
tmp/6da0A00.pdb
 112 105 0 0 0
SMALL
GASTEIGER

@<TRIPOS>ATOM
      1  N         75.5880   55.9510   13.0510 N.3    94  ALA94      -0.1231
      2  CA        74.5080   55.3620   12.2580 C.3    94  ALA94       0.1694
      3  C         73.1520   55.8080   12.8110 C.2    94  ALA94       0.2592
      4  O         72.3480   55.0220   13.3280 O.2    94  ALA94      -0.2718
      5  CB        74.6350   53.8440   12.2420 C.3    94  ALA94       0.0304
      6  N         72.9070   57.1140   12.6970 N.am   95  GLY95      -0.1957
      7  CA        71.6170   57.6790   13.0030 C.3    95  GLY95       0.1869
      8  C         71.5140   59.1160   12.5360 C.2    95  GLY95       0.2309
      9  O         72.4910   59.7130   12.0680 O.2    95  GLY95      -0.2863
     10  N         69.9940   54.6200   15.3890 N.3   105  THR105     -0.1203
     11  CA        68.6750   54.0310   15.1510 C.3   105  THR105      0.1994
     12  C         68.6110   52.5650   15.5650 C.2   105  THR105      0.2617
     13  O         67.6050   52.1170   16.1220 O.2   105  THR105     -0.2717
     14  CB        68.3030   54.1850   13.6730 C.3   105  THR105      0.1784
     15  OG1       68.3520   55.5710   13.3130 O.3   105  THR105     -0.2211
     16  CG2       66.8820   53.6370   13.3860 C.3   105  THR105      0.0376
     17  N         69.6620   51.7970   15.2910 N.am  106  ASN106     -0.1974
     18  CA        69.6360   50.3660   15.5660 C.3   106  ASN106      0.1688
     19  C         70.5060   49.9580   16.7550 C.2   106  ASN106      0.2292
     20  O         70.7210   48.7630   16.9640 O.2   106  ASN106     -0.2864
     21  CB        70.0120   49.5970   14.2950 C.3   106  ASN106      0.1181
     22  CG        68.9040   49.6740   13.2460 C.2   106  ASN106      0.2629
     23  OD1       67.7620   49.2780   13.5170 O.2   106  ASN106     -0.2716
     24  ND2       69.2160   50.2230   12.0660 N.am  106  ASN106     -0.0877
     25  N         76.7740   61.8900   10.3530 N.3   133  ASN133     -0.1225
     26  CA        76.0260   60.6630   10.0970 C.3   133  ASN133      0.1785
     27  C         76.9130   59.6860    9.3190 C.2   133  ASN133      0.2597
     28  O         77.8190   60.0990    8.5870 O.2   133  ASN133     -0.2718
     29  CB        74.7420   60.9810    9.3220 C.3   133  ASN133      0.1169
     30  CG        74.1080   59.7420    8.6990 C.2   133  ASN133      0.2627
     31  OD1       74.3820   59.4050    7.5420 O.2   133  ASN133     -0.2716
     32  ND2       73.2680   59.0510    9.4700 N.am  133  ASN133     -0.0877
     33  N         76.6780   58.3780    9.5050 N.am  134  ASP134     -0.1960
     34  CA        77.6070   57.3980    8.9370 C.3   134  ASP134      0.1840
     35  C         77.6070   57.4660    7.4110 C.2   134  ASP134      0.2621
     36  O         78.6690   57.4890    6.7780 O.2   134  ASP134     -0.2715
     37  CB        77.2840   55.9790    9.4140 C.3   134  ASP134      0.1450
     38  CG        75.9150   55.4890    8.9380 C.2   134  ASP134      0.3671
     39  OD1       74.9930   56.3250    8.8520 O.co2 134  ASP134     -0.2456
     40  OD2       75.7640   54.2790    8.6400 O.co2 134  ASP134     -0.2456
     41  N         76.4250   57.5230    6.7970 N.am  135  LEU135     -0.1977
     42  CA        76.3960   57.5830    5.3400 C.3   135  LEU135      0.1596
     43  C         76.8760   58.9520    4.8480 C.2   135  LEU135      0.2287
     44  O         77.5120   59.0530    3.7930 O.2   135  LEU135     -0.2864
     45  CB        74.9820   57.2490    4.8440 C.3   135  LEU135      0.0297
     46  CG        74.7050   56.8630    3.3810 C.3   135  LEU135      0.0022
     47  CD1       74.9320   58.0140    2.3880 C.3   135  LEU135      0.0001
     48  CD2       75.5150   55.6470    2.9780 C.3   135  LEU135      0.0001
     49  N         73.4000   52.6280    0.8510 N.3   182  ALA182     -0.1245
     50  CA        74.2130   51.5020    1.3090 C.3   182  ALA182      0.1562
     51  C         73.3920   50.6520    2.2650 C.2   182  ALA182      0.2260
     52  O         72.9820   51.1420    3.3230 O.2   182  ALA182     -0.2867
     53  CB        75.5040   51.9920    2.0000 C.3   182  ALA182      0.0290
     54  N         71.4320   48.8000    8.5070 N.3   186  GLY186     -0.1210
     55  CA        70.3630   49.6980    8.1210 C.3   186  GLY186      0.1956
     56  C         70.4800   50.0780    6.6540 C.2   186  GLY186      0.2612
     57  O         71.3830   49.6310    5.9480 O.2   186  GLY186     -0.2717
     58  N         69.5300   50.8900    6.2050 N.am  187  LEU187     -0.1965
     59  CA        69.5990   51.4590    4.8640 C.3   187  LEU187      0.1728
     60  C         70.0610   52.9090    4.9840 C.2   187  LEU187      0.2617
     61  O         69.2900   53.7870    5.3890 O.2   187  LEU187     -0.2715
     62  CB        68.2580   51.3660    4.1430 C.3   187  LEU187      0.0311
     63  CG        68.2440   52.0670    2.7740 C.3   187  LEU187      0.0022
     64  CD1       69.3240   51.5050    1.8770 C.3   187  LEU187      0.0001
     65  CD2       66.8770   51.9510    2.0900 C.3   187  LEU187      0.0001
     66  N         71.3170   53.1580    4.6360 N.am  188  GLY188     -0.1940
     67  CA        71.8450   54.5110    4.6430 C.3   188  GLY188      0.2014
     68  C         71.5950   55.1820    3.3030 C.2   188  GLY188      0.2639
     69  O         71.6610   54.5450    2.2530 O.2   188  GLY188     -0.2714
     70  N         71.3080   56.4820    3.3570 N.am  189  THR189     -0.1950
     71  CA        71.0040   57.2440    2.1580 C.3   189  THR189      0.1897
     72  C         71.5530   58.6490    2.3470 C.2   189  THR189      0.2313
     73  O         71.6170   59.1500    3.4730 O.2   189  THR189     -0.2863
     74  CB        69.4910   57.3070    1.8710 C.3   189  THR189      0.1794
     75  OG1       68.8080   57.9030    2.9880 O.3   189  THR189     -0.2208
     76  CG2       68.8890   55.9060    1.5840 C.3   189  THR189      0.0378
     77  N         70.3660   62.1480    4.6300 N.3   205  LEU205     -0.1231
     78  CA        68.9760   61.7510    4.4560 C.3   205  LEU205      0.1693
     79  C         68.6470   60.5980    5.3870 C.2   205  LEU205      0.2591
     80  O         69.5280   59.8730    5.8480 O.2   205  LEU205     -0.2718
     81  CB        68.6690   61.3190    3.0190 C.3   205  LEU205      0.0284
     82  CG        68.8530   62.3560    1.9140 C.3   205  LEU205      0.0019
     83  CD1       68.7060   61.6630    0.5620 C.3   205  LEU205      0.0001
     84  CD2       67.8640   63.5280    2.0580 C.3   205  LEU205      0.0001
     85  N         67.3530   60.4300    5.6490 N.am  206  GLU206     -0.1979
     86  CA        66.8540   59.2510    6.3400 C.3   206  GLU206      0.1602
     87  C         65.8130   58.5510    5.4830 C.2   206  GLU206      0.2287
     88  O         64.7930   58.0800    5.9810 O.2   206  GLU206     -0.2864
     89  CB        66.2870   59.6080    7.7170 C.3   206  GLU206      0.0415
     90  CG        67.3440   60.0510    8.7390 C.3   206  GLU206      0.1163
     91  CD        68.2820   58.9280    9.1510 C.2   206  GLU206      0.3649
     92  OE1       67.8280   57.7660    9.2230 O.co2 206  GLU206     -0.2457
     93  OE2       69.4780   59.1960    9.4060 O.co2 206  GLU206     -0.2457
     94  N         63.8290   55.2830    6.1310 N.3   209  HIS209     -0.1241
     95  CA        62.7150   55.1980    7.0640 C.3   209  HIS209      0.1621
     96  C         61.4250   55.7830    6.5170 C.2   209  HIS209      0.2264
     97  O         60.4660   55.9450    7.2760 O.2   209  HIS209     -0.2867
     98  CB        63.1070   55.8630    8.3790 C.3   209  HIS209      0.0745
     99  CG        64.2780   55.1980    9.0160 C.ar  209  HIS209      0.0817
    100  ND1       64.1990   53.9270    9.5450 N.ar  209  HIS209     -0.2268
    101  CD2       65.5760   55.5760    9.1210 C.ar  209  HIS209      0.1154
    102  CE1       65.3930   53.5640    9.9800 C.ar  209  HIS209      0.1986
    103  NE2       66.2440   54.5460    9.7330 N.ar  209  HIS209     -0.2212
    104  N         63.7610   50.3220    5.1630 N.3   246  GLU246     -0.1245
    105  CA        64.7660   49.5580    5.9060 C.3   246  GLU246      0.1567
    106  C         64.2370   48.2040    6.3770 C.2   246  GLU246      0.2260
    107  O         65.0310   47.2870    6.6270 O.2   246  GLU246     -0.2867
    108  CB        65.2600   50.3610    7.1100 C.3   246  GLU246      0.0388
    109  CG        66.4190   49.6890    7.8410 C.3   246  GLU246      0.1160
    110  CD        67.1240   50.6120    8.7860 C.2   246  GLU246      0.3649
    111  OE1       67.1060   50.3420   10.0070 O.co2 246  GLU246     -0.2457
    112  OE2       67.7120   51.6030    8.2950 O.co2 246  GLU246     -0.2457
@<TRIPOS>BOND
     1    83    82    1
     2    49    50    1
     3    50    53    1
     4    50    51    1
     5    76    74    1
     6    74    71    1
     7    74    75    1
     8    64    63    1
     9    82    84    1
    10    82    81    1
    11    65    63    1
    12    71    72    1
    13    71    70    1
    14    69    68    2
    15    51    52    2
    16    72    73    2
    17    47    46    1
    18    63    62    1
    19    48    46    1
    20    81    78    1
    21    68    70   am
    22    68    67    1
    23    46    45    1
    24    44    43    2
    25    62    59    1
    26    78    77    1
    27    78    79    1
    28    66    67    1
    29    66    60   am
    30    45    42    1
    31    43    42    1
    32    59    60    1
    33    59    58    1
    34    60    61    2
    35   104   105    1
    36    42    41    1
    37    79    85   am
    38    79    80    2
    39    87    88    2
    40    87    86    1
    41    85    86    1
    42   105   106    1
    43   105   108    1
    44    57    56    2
    45    94    95    1
    46    58    56   am
    47    86    89    1
    48   106   107    2
    49    96    95    1
    50    96    97    2
    51    56    55    1
    52    36    35    2
    53    41    35   am
    54    95    98    1
    55   108   109    1
    56    35    34    1
    57    31    30    2
    58    89    90    1
    59   109   110    1
    60    55    54    1
    61   112   110   ar
    62    98    99    1
    63    28    27    2
    64    40    38   ar
    65    30    29    1
    66    30    32   am
    67    90    91    1
    68   110   111   ar
    69    39    38   ar
    70    34    37    1
    71    34    33    1
    72    38    37    1
    73    99   101   ar
    74    99   100   ar
    75   101   103   ar
    76    91    92   ar
    77    91    93   ar
    78    27    33   am
    79    27    26    1
    80    29    26    1
    81   100   102   ar
    82   103   102   ar
    83    26    25    1
    84    24    22   am
    85     9     8    2
    86     5     2    1
    87     2     3    1
    88     2     1    1
    89     8     7    1
    90     6     3   am
    91     6     7    1
    92     3     4    2
    93    22    23    2
    94    22    21    1
    95    15    14    1
    96    16    14    1
    97    14    11    1
    98    21    18    1
    99    11    10    1
   100    11    12    1
   101    17    12   am
   102    17    18    1
   103    12    13    2
   104    18    19    1
   105    19    20    2
