@<TRIPOS>MOLECULE
tmp/6da4A00.pdb
 153 145 0 0 0
SMALL
GASTEIGER

@<TRIPOS>ATOM
      1  N          1.8520   18.8430   -0.9810 N.3    14  LEU14      -0.1231
      2  CA         1.0390   18.8500    0.2340 C.3    14  LEU14       0.1693
      3  C          1.7880   19.4070    1.4170 C.2    14  LEU14       0.2593
      4  O          1.1800   19.7790    2.4200 O.2    14  LEU14      -0.2718
      5  CB         0.4610   17.4660    0.5380 C.3    14  LEU14       0.0284
      6  CG        -0.6160   16.9970   -0.4260 C.3    14  LEU14       0.0019
      7  CD1       -0.9940   15.5580   -0.1450 C.3    14  LEU14       0.0001
      8  CD2       -1.8320   17.9320   -0.4230 C.3    14  LEU14       0.0001
      9  N          3.0980   19.4910    1.2620 N.am   15  GLY15      -0.1942
     10  CA         4.0070   19.9950    2.2720 C.3    15  GLY15       0.2014
     11  C          5.3560   19.3470    2.1380 C.2    15  GLY15       0.2638
     12  O          5.4920   18.3290    1.4580 O.2    15  GLY15      -0.2714
     13  N          6.3540   19.9550    2.7800 N.am   16  LYS16      -0.1977
     14  CA         7.7510   19.5220    2.7940 C.3    16  LYS16       0.1596
     15  C          8.2270   19.2520    4.2490 C.2    16  LYS16       0.2287
     16  O          7.5440   19.6410    5.2010 O.2    16  LYS16      -0.2864
     17  CB         8.6350   20.5670    2.0640 C.3    16  LYS16       0.0298
     18  CG         8.7850   21.9220    2.7690 C.3    16  LYS16       0.0038
     19  CD         7.7550   22.9590    2.3150 C.3    16  LYS16       0.0206
     20  CE         7.7380   24.1970    3.1940 C.3    16  LYS16       0.1093
     21  NZ         7.0320   23.9700    4.4870 N.3    16  LYS16      -0.1314
     22  N          5.7820   15.5670    0.5380 N.3    22  VAL22      -0.1245
     23  CA         4.5450   14.8530    0.2480 C.3    22  VAL22       0.1561
     24  C          3.8740   15.5910   -0.9020 C.2    22  VAL22       0.2260
     25  O          3.8620   16.8280   -0.9340 O.2    22  VAL22      -0.2867
     26  CB         3.6090   14.6520    1.4700 C.3    22  VAL22       0.0252
     27  CG1        2.4720   13.6910    1.1450 C.3    22  VAL22       0.0019
     28  CG2        4.3860   14.1520    2.6810 C.3    22  VAL22       0.0019
     29  N         -1.7460   10.5620   -1.2120 N.3    39  ALA39      -0.1245
     30  CA        -0.6450   11.3660   -0.6700 C.3    39  ALA39       0.1562
     31  C          0.6400   10.5610   -0.9470 C.2    39  ALA39       0.2260
     32  O          0.7160    9.3760   -0.5850 O.2    39  ALA39      -0.2867
     33  CB        -0.8320   11.5780    0.8130 C.3    39  ALA39       0.0290
     34  N         -2.7610    7.1190    9.8820 N.3    70  VAL70      -0.1245
     35  CA        -2.8980    7.2950    8.4240 C.3    70  VAL70       0.1561
     36  C         -2.5910    5.9650    7.6800 C.2    70  VAL70       0.2260
     37  O         -1.5490    5.3420    7.9380 O.2    70  VAL70      -0.2867
     38  CB        -2.0730    8.5070    7.8700 C.3    70  VAL70       0.0252
     39  CG1       -0.5620    8.3000    8.0250 C.3    70  VAL70       0.0019
     40  CG2       -2.4300    8.8170    6.4170 C.3    70  VAL70       0.0019
     41  N          0.1850    6.8620    0.5080 N.3    88  MET88      -0.1230
     42  CA        -0.7280    6.8520    1.6420 C.3    88  MET88       0.1702
     43  C         -2.0930    7.3630    1.1880 C.2    88  MET88       0.2592
     44  O         -2.2280    7.8640    0.0590 O.2    88  MET88      -0.2718
     45  CB        -0.1870    7.7340    2.7790 C.3    88  MET88       0.0401
     46  CG         1.1800    7.3410    3.2540 C.3    88  MET88       0.0596
     47  SD         1.8970    8.6460    4.2560 S.3    88  MET88      -0.1393
     48  CE         2.8390    9.5190    3.0670 C.3    88  MET88       0.0692
     49  N         -3.1000    7.2630    2.0720 N.am   89  GLU89      -0.1966
     50  CA        -4.4230    7.7990    1.7860 C.3    89  GLU89       0.1733
     51  C         -4.3450    9.3350    1.8590 C.2    89  GLU89       0.2616
     52  O         -3.5180    9.8780    2.6080 O.2    89  GLU89      -0.2715
     53  CB        -5.4700    7.2450    2.7750 C.3    89  GLU89       0.0429
     54  CG        -5.4750    7.9480    4.1190 C.3    89  GLU89       0.1163
     55  CD        -6.3020    7.2810    5.1820 C.2    89  GLU89       0.3649
     56  OE1       -7.4430    6.8570    4.8880 O.co2  89  GLU89      -0.2457
     57  OE2       -5.8130    7.2100    6.3290 O.co2  89  GLU89      -0.2457
     58  N         -5.1890   10.0250    1.0760 N.am   90  TYR90      -0.1960
     59  CA        -5.2400   11.4790    1.0730 C.3    90  TYR90       0.1771
     60  C         -6.3820   11.9540    1.9590 C.2    90  TYR90       0.2619
     61  O         -7.5330   11.5470    1.7750 O.2    90  TYR90      -0.2715
     62  CB        -5.3500   12.0080   -0.3540 C.3    90  TYR90       0.0574
     63  CG        -5.5810   13.4980   -0.4560 C.ar   90  TYR90      -0.0198
     64  CD1       -4.6010   14.4060   -0.0610 C.ar   90  TYR90      -0.0009
     65  CD2       -6.7610   14.0050   -0.9900 C.ar   90  TYR90      -0.0009
     66  CE1       -4.8070   15.7800   -0.1630 C.ar   90  TYR90       0.0417
     67  CE2       -6.9690   15.3760   -1.1160 C.ar   90  TYR90       0.0417
     68  CZ        -5.9920   16.2620   -0.6940 C.ar   90  TYR90       0.1957
     69  OH        -6.2040   17.6180   -0.8040 O.3    90  TYR90      -0.2866
     70  N         -6.0460   12.7480    2.9790 N.am   91  LEU91      -0.1964
     71  CA        -7.0330   13.3010    3.8990 C.3    91  LEU91       0.1713
     72  C         -7.1640   14.7670    3.5060 C.2    91  LEU91       0.2458
     73  O         -6.2650   15.5470    3.8010 O.2    91  LEU91      -0.2730
     74  CB        -6.6180   13.0870    5.3690 C.3    91  LEU91       0.0310
     75  CG        -6.5560   11.6140    5.8530 C.3    91  LEU91       0.0022
     76  CD1       -6.2860   11.5340    7.3370 C.3    91  LEU91       0.0001
     77  CD2       -7.8550   10.8620    5.5640 C.3    91  LEU91       0.0001
     78  N         -8.2000   15.1260    2.6980 N.am   92  PRO92      -0.2727
     79  CA        -8.2740   16.4920    2.1490 C.3    92  PRO92       0.1402
     80  C         -8.1890   17.6290    3.1610 C.2    92  PRO92       0.2269
     81  O         -7.5480   18.6420    2.8430 O.2    92  PRO92      -0.2865
     82  CB        -9.5930   16.4960    1.3830 C.3    92  PRO92       0.0296
     83  CG        -9.8130   15.0750    1.0240 C.3    92  PRO92       0.0237
     84  CD        -9.3120   14.2940    2.1910 C.3    92  PRO92       0.0939
     85  N         -6.3480   17.9690    5.5970 N.3    94  GLY94      -0.1210
     86  CA        -4.9390   18.1460    5.9250 C.3    94  GLY94       0.1956
     87  C         -4.5920   18.0900    7.3910 C.2    94  GLY94       0.2612
     88  O         -5.0650   17.2090    8.1140 O.2    94  GLY94      -0.2717
     89  N         -3.7430   19.0330    7.8290 N.am   95  CYS95      -0.1970
     90  CA        -3.2580   19.0980    9.2070 C.3    95  CYS95       0.1712
     91  C         -4.2600   19.5790   10.1710 C.2    95  CYS95       0.2296
     92  O         -5.0620   20.4440    9.8340 O.2    95  CYS95      -0.2864
     93  CB        -1.9870   19.9250    9.3080 C.3    95  CYS95       0.0983
     94  SG        -0.6810   19.3790    8.1960 S.3    95  CYS95      -0.0798
     95  N         -3.2840   21.3190   12.8270 N.3    97  ARG97      -0.1231
     96  CA        -2.7970   22.6800   13.0790 C.3    97  ARG97       0.1694
     97  C         -3.5950   23.7080   12.2750 C.2    97  ARG97       0.2592
     98  O         -4.2590   24.5620   12.8580 O.2    97  ARG97      -0.2718
     99  CB        -1.2910   22.7720   12.7560 C.3    97  ARG97       0.0321
    100  CG        -0.5830   24.1000   13.1050 C.3    97  ARG97       0.0489
    101  CD         0.8120   24.1710   12.4960 C.3    97  ARG97       0.2205
    102  NE         0.8070   23.7810   11.0750 N.pl3  97  ARG97      -0.0865
    103  CZ         1.8960   23.5300   10.3490 C.cat  97  ARG97       0.5346
    104  NH1        3.1050   23.6370   10.8860 N.pl3  97  ARG97       0.1354
    105  NH2        1.7790   23.1760    9.0730 N.pl3  97  ARG97       0.1354
    106  N         -3.6030   23.5510   10.9460 N.am   98  ASP98      -0.1974
    107  CA        -4.2970   24.4320   10.0080 C.3    98  ASP98       0.1709
    108  C         -5.8370   24.2900   10.1050 C.2    98  ASP98       0.2293
    109  O         -6.5340   25.3020   10.1030 O.2    98  ASP98      -0.2864
    110  CB        -3.7360   24.2430    8.5810 C.3    98  ASP98       0.1436
    111  CG        -2.2280   24.5690    8.4860 C.2    98  ASP98       0.3671
    112  OD1       -1.4050   23.7690    9.0060 O.co2  98  ASP98      -0.2456
    113  OD2       -1.8780   25.6290    7.9140 O.co2  98  ASP98      -0.2456
    114  N          1.0580   19.5320   13.8630 N.3   139  ARG139     -0.1231
    115  CA         1.4790   19.6800   12.4710 C.3   139  ARG139      0.1694
    116  C          1.5520   18.2770   11.7910 C.2   139  ARG139      0.2592
    117  O          1.4090   18.1770   10.5670 O.2   139  ARG139     -0.2718
    118  CB         2.8270   20.4650   12.3720 C.3   139  ARG139      0.0321
    119  CG         4.1030   19.6310   12.5680 C.3   139  ARG139      0.0489
    120  CD         5.3460   20.4800   12.6110 C.3   139  ARG139      0.2205
    121  NE         5.7640   20.7850   13.9850 N.pl3 139  ARG139     -0.0865
    122  CZ         6.7280   20.1430   14.6460 C.cat 139  ARG139      0.5346
    123  NH1        7.0390   20.4960   15.8860 N.pl3 139  ARG139      0.1354
    124  NH2        7.3900   19.1450   14.0670 N.pl3 139  ARG139      0.1354
    125  N          1.7670   17.2160   12.6070 N.am  140  ASN140     -0.1974
    126  CA         1.9340   15.8200   12.1970 C.3   140  ASN140      0.1688
    127  C          0.7010   14.9570   12.3870 C.2   140  ASN140      0.2292
    128  O          0.7810   13.7350   12.2830 O.2   140  ASN140     -0.2864
    129  CB         3.1370   15.2130   12.9030 C.3   140  ASN140      0.1181
    130  CG         4.4350   15.7740   12.3940 C.2   140  ASN140      0.2629
    131  OD1        4.6200   16.0350   11.1930 O.2   140  ASN140     -0.2716
    132  ND2        5.3520   15.9870   13.3030 N.am  140  ASN140     -0.0877
    133  N         -3.4210   14.4550   11.0850 N.3   142  LEU142     -0.1245
    134  CA        -4.3290   14.6910    9.9650 C.3   142  LEU142      0.1561
    135  C         -5.8120   14.5270   10.3300 C.2   142  LEU142      0.2260
    136  O         -6.1490   13.7960   11.2580 O.2   142  LEU142     -0.2867
    137  CB        -3.9760   13.7590    8.7810 C.3   142  LEU142      0.0270
    138  CG        -2.5970   13.8510    8.1630 C.3   142  LEU142      0.0019
    139  CD1       -2.4130   12.7350    7.1870 C.3   142  LEU142      0.0001
    140  CD2       -2.3710   15.1910    7.5030 C.3   142  LEU142      0.0001
    141  N          0.1220   10.9720   11.7230 N.3   152  ALA152     -0.1231
    142  CA         0.9150   10.8110   10.5040 C.3   152  ALA152      0.1694
    143  C          2.4070   11.0460   10.7560 C.2   152  ALA152      0.2592
    144  O          2.8380   11.0550   11.9090 O.2   152  ALA152     -0.2718
    145  CB         0.3930   11.7420    9.4120 C.3   152  ALA152      0.0304
    146  N          3.1850   11.2000    9.6700 N.am  153  ASP153     -0.1974
    147  CA         4.6270   11.4070    9.6460 C.3   153  ASP153      0.1709
    148  C          5.4180   10.4540   10.5750 C.2   153  ASP153      0.2293
    149  O          5.6230   10.7400   11.7600 O.2   153  ASP153     -0.2864
    150  CB         4.9740   12.8770    9.9110 C.3   153  ASP153      0.1436
    151  CG         6.4520   13.1570    9.8290 C.2   153  ASP153      0.3671
    152  OD1        7.0570   12.8470    8.7770 O.co2 153  ASP153     -0.2456
    153  OD2        7.0190   13.6190   10.8390 O.co2 153  ASP153     -0.2456
@<TRIPOS>BOND
     1    29    30    1
     2    67    65   ar
     3    67    68   ar
     4    65    63   ar
     5     1     2    1
     6    31    30    1
     7    31    32    2
     8    25    24    2
     9    24    23    1
    10    69    68    1
    11    68    66   ar
    12    30    33    1
    13    63    62    1
    14    63    64   ar
    15     6     8    1
    16     6     7    1
    17     6     5    1
    18    62    59    1
    19    66    64   ar
    20    44    43    2
    21     2     5    1
    22     2     3    1
    23    23    22    1
    24    23    26    1
    25    41    42    1
    26    83    82    1
    27    83    84    1
    28    59    58    1
    29    59    60    1
    30    58    51   am
    31    27    26    1
    32    43    42    1
    33    43    49   am
    34     9     3   am
    35     9    10    1
    36    82    79    1
    37     3     4    2
    38    12    11    2
    39    26    28    1
    40    42    45    1
    41    61    60    2
    42    50    51    1
    43    50    49    1
    44    50    53    1
    45    51    52    2
    46    60    70   am
    47    17    18    1
    48    17    14    1
    49    11    10    1
    50    11    13   am
    51    79    78    1
    52    79    80    1
    53    84    78    1
    54    19    18    1
    55    19    20    1
    56    78    72   am
    57    53    54    1
    58    45    46    1
    59    13    14    1
    60    14    15    1
    61    81    80    2
    62    70    71    1
    63    48    47    1
    64    20    21    1
    65    46    47    1
    66    72    73    2
    67    72    71    1
    68    71    74    1
    69    54    55    1
    70    15    16    2
    71    56    55   ar
    72    55    57   ar
    73    74    75    1
    74    77    75    1
    75    85    86    1
    76    75    76    1
    77    86    87    1
    78    40    38    1
    79   139   138    1
    80    87    89   am
    81    87    88    2
    82   140   138    1
    83    36    37    2
    84    36    35    1
    85    89    90    1
    86    38    39    1
    87    38    35    1
    88   113   111   ar
    89   138   137    1
    90    94    93    1
    91    35    34    1
    92   111   110    1
    93   111   112   ar
    94   110   107    1
    95   152   151   ar
    96   137   134    1
    97   105   103    1
    98    90    93    1
    99    90    91    1
   100   145   142    1
   101   147   146    1
   102   147   150    1
   103   147   148    1
   104   146   143   am
   105   151   150    1
   106   151   153   ar
   107    92    91    2
   108   134   135    1
   109   134   133    1
   110   107   108    1
   111   107   106    1
   112   109   108    2
   113   135   136    2
   114   103   104    1
   115   103   102    2
   116   142   143    1
   117   142   141    1
   118   117   116    2
   119   148   149    2
   120   143   144    2
   121   106    97   am
   122   102   101    1
   123   131   130    2
   124   116   115    1
   125   116   125   am
   126   126   127    1
   127   126   125    1
   128   126   129    1
   129    97    98    2
   130    97    96    1
   131   128   127    2
   132   118   115    1
   133   118   119    1
   134   130   129    1
   135   130   132   am
   136   115   114    1
   137   101   100    1
   138   119   120    1
   139   120   121    1
   140    99    96    1
   141    99   100    1
   142    95    96    1
   143   121   122    2
   144   124   122    1
   145   122   123    1
