@<TRIPOS>MOLECULE
tmp/6da7A00.pdb
 162 160 0 0 0
SMALL
GASTEIGER

@<TRIPOS>ATOM
      1  N          3.5310   36.8690   20.9010 N.3   165  ASN165     -0.1225
      2  CA         3.4830   35.4100   20.9610 C.3   165  ASN165      0.1785
      3  C          4.3080   34.9380   22.1580 C.2   165  ASN165      0.2597
      4  O          5.3400   35.5180   22.4880 O.2   165  ASN165     -0.2718
      5  CB         4.0010   34.7320   19.6820 C.3   165  ASN165      0.1169
      6  CG         2.9620   34.5400   18.5950 C.2   165  ASN165      0.2627
      7  OD1        3.1910   34.9040   17.4480 O.2   165  ASN165     -0.2716
      8  ND2        1.8100   33.9380   18.8930 N.am  165  ASN165     -0.0877
      9  N          3.7970   33.9040   22.8250 N.am  166  TRP166     -0.1962
     10  CA         4.3890   33.2290   23.9720 C.3   166  TRP166      0.1771
     11  C          4.6650   31.8090   23.4830 C.2   166  TRP166      0.2619
     12  O          3.7480   31.1650   22.9820 O.2   166  TRP166     -0.2715
     13  CB         3.3750   33.1750   25.1240 C.3   166  TRP166      0.0590
     14  CG         3.1360   34.4700   25.8540 C.ar  166  TRP166      0.0006
     15  CD1        3.5940   35.7060   25.5180 C.ar  166  TRP166      0.0946
     16  CD2        2.3700   34.6430   27.0550 C.ar  166  TRP166      0.0152
     17  NE1        3.1660   36.6360   26.4350 N.ar  166  TRP166     -0.2442
     18  CE2        2.4110   36.0120   27.3860 C.ar  166  TRP166      0.0810
     19  CE3        1.6550   33.7710   27.8860 C.ar  166  TRP166      0.0012
     20  CZ2        1.7780   36.5270   28.5160 C.ar  166  TRP166      0.0191
     21  CZ3        0.9880   34.2930   28.9860 C.ar  166  TRP166      0.0001
     22  CH2        1.0530   35.6510   29.2900 C.ar  166  TRP166      0.0015
     23  N          5.8940   31.3170   23.5820 N.am  167  ALA167     -0.1963
     24  CA         6.2000   29.9700   23.0920 C.3   167  ALA167      0.1728
     25  C          7.3130   29.2870   23.8750 C.2   167  ALA167      0.2616
     26  O          8.2380   29.9440   24.3360 O.2   167  ALA167     -0.2715
     27  CB         6.5800   30.0320   21.6100 C.3   167  ALA167      0.0334
     28  N          7.2200   27.9590   24.0300 N.am  168  ILE168     -0.1963
     29  CA         8.2880   27.1950   24.6490 C.3   168  ILE168      0.1727
     30  C          9.1400   26.7380   23.4790 C.2   168  ILE168      0.2616
     31  O          8.6440   26.0580   22.5880 O.2   168  ILE168     -0.2715
     32  CB         7.8070   25.9340   25.4300 C.3   168  ILE168      0.0290
     33  CG1        6.7710   26.3240   26.4810 C.3   168  ILE168      0.0022
     34  CG2        9.0400   25.1710   26.0890 C.3   168  ILE168      0.0023
     35  CD1        6.5340   25.2510   27.4800 C.3   168  ILE168      0.0001
     36  N         10.4080   27.0980   23.4900 N.am  169  ALA169     -0.1963
     37  CA        11.3950   26.5890   22.5290 C.3   169  ALA169      0.1728
     38  C         12.6550   26.3320   23.3390 C.2   169  ALA169      0.2616
     39  O         12.8830   26.9930   24.3670 O.2   169  ALA169     -0.2715
     40  CB        11.6670   27.5930   21.4120 C.3   169  ALA169      0.0334
     41  N         13.4550   25.3680   22.8970 N.am  170  ARG170     -0.1977
     42  CA        14.6920   25.0260   23.5860 C.3   170  ARG170      0.1597
     43  C         15.6860   26.1520   23.4330 C.2   170  ARG170      0.2287
     44  O         15.8300   26.6940   22.3400 O.2   170  ARG170     -0.2864
     45  CB        15.3040   23.7380   23.0070 C.3   170  ARG170      0.0334
     46  CG        14.5090   22.4770   23.3230 C.3   170  ARG170      0.0492
     47  CD        14.6530   22.1610   24.7870 C.3   170  ARG170      0.2205
     48  NE        13.9940   20.9300   25.2250 N.pl3 170  ARG170     -0.0865
     49  CZ        12.7000   20.7940   25.5160 C.cat 170  ARG170      0.5346
     50  NH1       11.8530   21.8060   25.3320 N.pl3 170  ARG170      0.1354
     51  NH2       12.2360   19.6350   25.9580 N.pl3 170  ARG170      0.1354
     52  N          7.5120   28.7090   12.3620 N.3   187  GLN187     -0.1231
     53  CA         6.9940   28.9370   13.7150 C.3   187  GLN187      0.1698
     54  C          6.8780   30.4410   13.9690 C.2   187  GLN187      0.2592
     55  O          7.4650   31.2350   13.2280 O.2   187  GLN187     -0.2718
     56  CB         7.8920   28.2640   14.7580 C.3   187  GLN187      0.0381
     57  CG         7.7850   26.7440   14.7290 C.3   187  GLN187      0.0905
     58  CD         8.6900   26.0740   15.7370 C.2   187  GLN187      0.2608
     59  OE1        9.3400   26.7170   16.5780 O.2   187  GLN187     -0.2717
     60  NE2        8.7490   24.7520   15.6760 N.am  187  GLN187     -0.0878
     61  N          6.1800   30.8340   15.0470 N.am  188  HIS188     -0.1962
     62  CA         5.8740   32.2340   15.3150 C.3   188  HIS188      0.1787
     63  C          7.0340   33.0540   15.8210 C.2   188  HIS188      0.2620
     64  O          7.1010   34.2340   15.4710 O.2   188  HIS188     -0.2715
     65  CB         4.6770   32.3640   16.2540 C.3   188  HIS188      0.0785
     66  CG         3.4010   31.8490   15.6630 C.ar  188  HIS188      0.0821
     67  ND1        2.3400   31.4680   16.4580 N.ar  188  HIS188     -0.2267
     68  CD2        3.0740   31.6220   14.3680 C.ar  188  HIS188      0.1154
     69  CE1        1.3950   31.0490   15.6230 C.ar  188  HIS188      0.1986
     70  NE2        1.7910   31.1430   14.3580 N.ar  188  HIS188     -0.2212
     71  N          7.9490   32.4790   16.6210 N.am  189  LEU189     -0.1977
     72  CA         9.1180   33.2470   17.0760 C.3   189  LEU189      0.1596
     73  C          9.9570   33.7190   15.8650 C.2   189  LEU189      0.2287
     74  O         10.4320   34.8590   15.8490 O.2   189  LEU189     -0.2864
     75  CB        10.0130   32.4150   18.0070 C.3   189  LEU189      0.0297
     76  CG         9.5020   32.1380   19.4050 C.3   189  LEU189      0.0022
     77  CD1       10.4790   31.2370   20.1510 C.3   189  LEU189      0.0001
     78  CD2        9.2670   33.4070   20.1690 C.3   189  LEU189      0.0001
     79  N          1.6130   27.8770   25.9390 N.3   219  ALA219     -0.1231
     80  CA         2.8200   28.2300   25.1600 C.3   219  ALA219      0.1694
     81  C          3.3040   27.0520   24.2810 C.2   219  ALA219      0.2593
     82  O          4.0850   27.2680   23.3630 O.2   219  ALA219     -0.2718
     83  CB         3.9410   28.6730   26.0670 C.3   219  ALA219      0.0304
     84  N          2.8700   25.8250   24.5750 N.am  220  SER220     -0.1938
     85  CA         3.1720   24.6590   23.7350 C.3   220  SER220      0.2055
     86  C          2.1320   24.4570   22.6390 C.2   220  SER220      0.2643
     87  O          2.3250   23.5970   21.7730 O.2   220  SER220     -0.2714
     88  CB         3.1700   23.3990   24.5950 C.3   220  SER220      0.2130
     89  OG         4.1200   23.5450   25.6470 O.3   220  SER220     -0.2179
     90  N          0.9930   25.1620   22.7090 N.am  221  MET221     -0.1963
     91  CA        -0.1470   24.8980   21.8230 C.3   221  MET221      0.1722
     92  C         -0.0040   25.5250   20.4510 C.2   221  MET221      0.2458
     93  O          0.1790   26.7260   20.3500 O.2   221  MET221     -0.2730
     94  CB        -1.4270   25.4010   22.5060 C.3   221  MET221      0.0427
     95  CG        -2.7000   24.8650   21.8380 C.3   221  MET221      0.0599
     96  SD        -4.0910   25.2990   22.9140 S.3   221  MET221     -0.1393
     97  CE        -5.4350   24.4590   22.0070 C.3   221  MET221      0.0692
     98  N         -0.1530   24.7630   19.3700 N.am  222  PRO222     -0.2716
     99  CA         0.0640   25.3510   18.0240 C.3   222  PRO222      0.1536
    100  C         -1.1760   26.0820   17.5480 C.2   222  PRO222      0.2598
    101  O         -1.8720   25.6250   16.6540 O.2   222  PRO222     -0.2715
    102  CB         0.3810   24.1300   17.1760 C.3   222  PRO222      0.0310
    103  CG        -0.4660   23.0330   17.8070 C.3   222  PRO222      0.0237
    104  CD        -0.3230   23.2910   19.2940 C.3   222  PRO222      0.0939
    105  N         -1.4360   27.2340   18.1410 N.am  223  LEU223     -0.1978
    106  CA        -2.6020   28.0560   17.8090 C.3   223  LEU223      0.1596
    107  C         -2.4470   28.6880   16.4230 C.2   223  LEU223      0.2287
    108  O         -1.3190   28.8660   15.9520 O.2   223  LEU223     -0.2864
    109  CB        -2.7620   29.1950   18.8530 C.3   223  LEU223      0.0297
    110  CG        -3.0730   28.7600   20.2800 C.3   223  LEU223      0.0022
    111  CD1       -2.8930   29.9030   21.2660 C.3   223  LEU223      0.0001
    112  CD2       -4.4720   28.2110   20.3810 C.3   223  LEU223      0.0001
    113  N         -1.4280   33.7970   22.7420 N.3   229  GLU229     -0.1245
    114  CA        -1.5470   32.8260   23.8400 C.3   229  GLU229      0.1567
    115  C         -2.1930   33.4880   25.0780 C.2   229  GLU229      0.2260
    116  O         -3.0510   32.8800   25.7030 O.2   229  GLU229     -0.2867
    117  CB        -0.1680   32.2810   24.2380 C.3   229  GLU229      0.0388
    118  CG         0.4450   31.3030   23.2350 C.3   229  GLU229      0.1160
    119  CD         0.9630   31.8890   21.9330 C.2   229  GLU229      0.3649
    120  OE1        1.1630   33.1220   21.8650 O.co2 229  GLU229     -0.2457
    121  OE2        1.1740   31.1220   20.9740 O.co2 229  GLU229     -0.2457
    122  N          2.8440   19.1050   25.2130 N.3   299  TRP299     -0.1241
    123  CA         2.8610   19.4160   23.7780 C.3   299  TRP299      0.1605
    124  C          1.9110   18.5390   22.9260 C.2   299  TRP299      0.2264
    125  O          1.1020   19.0750   22.1820 O.2   299  TRP299     -0.2867
    126  CB         4.3040   19.3540   23.2680 C.3   299  TRP299      0.0550
    127  CG         4.5310   19.7930   21.8600 C.ar  299  TRP299      0.0003
    128  CD1        3.7490   20.6190   21.1030 C.ar  299  TRP299      0.0946
    129  CD2        5.7530   19.6240   21.1380 C.ar  299  TRP299      0.0152
    130  NE1        4.3510   20.8430   19.8840 N.ar  299  TRP299     -0.2442
    131  CE2        5.6120   20.2980   19.9060 C.ar  299  TRP299      0.0810
    132  CE3        6.9900   19.0260   21.4470 C.ar  299  TRP299      0.0012
    133  CZ2        6.6330   20.3100   18.9410 C.ar  299  TRP299      0.0191
    134  CZ3        7.9960   19.0200   20.4830 C.ar  299  TRP299      0.0001
    135  CH2        7.8200   19.6730   19.2580 C.ar  299  TRP299      0.0015
    136  N         -1.9880   23.9850   10.3230 N.3   364  ARG364     -0.1245
    137  CA        -0.5850   24.1340   10.7440 C.3   364  ARG364      0.1563
    138  C         -0.0230   22.8540   11.3470 C.2   364  ARG364      0.2260
    139  O          1.1870   22.7830   11.5210 O.2   364  ARG364     -0.2867
    140  CB        -0.4920   25.1410   11.9340 C.3   364  ARG364      0.0307
    141  CG        -0.8470   26.5980   11.6930 C.3   364  ARG364      0.0489
    142  CD        -0.4340   27.4000   12.9280 C.3   364  ARG364      0.2205
    143  NE         1.0230   27.5040   12.9780 N.pl3 364  ARG364     -0.0865
    144  CZ         1.7940   27.4600   14.0630 C.cat 364  ARG364      0.5346
    145  NH1        1.2560   27.3280   15.2730 N.pl3 364  ARG364      0.1354
    146  NH2        3.1100   27.5570   13.9490 N.pl3 364  ARG364      0.1354
    147  N          2.9520   17.1920   11.9470 N.3   368  MET368     -0.1245
    148  CA         3.2110   16.4860   13.2120 C.3   368  MET368      0.1570
    149  C          2.5170   15.1130   13.2430 C.2   368  MET368      0.2261
    150  O          2.9010   14.2250   14.0060 O.2   368  MET368     -0.2867
    151  CB         2.6640   17.3180   14.4130 C.3   368  MET368      0.0387
    152  CG         3.2560   18.7430   14.5470 C.3   368  MET368      0.0595
    153  SD         2.1580   19.9240   15.4420 S.3   368  MET368     -0.1393
    154  CE         3.2930   21.2200   15.8000 C.3   368  MET368      0.0692
    155  N         11.7240   15.9330   14.0380 N.3   411  LEU411     -0.1245
    156  CA        12.0410   15.2200   15.2770 C.3   411  LEU411      0.1561
    157  C         11.3940   13.8320   15.3220 C.2   411  LEU411      0.2260
    158  O         11.6860   13.0810   16.2500 O.2   411  LEU411     -0.2867
    159  CB        11.5210   16.0260   16.4810 C.3   411  LEU411      0.0270
    160  CG        12.0010   17.4800   16.6100 C.3   411  LEU411      0.0019
    161  CD1       11.2830   18.1760   17.7660 C.3   411  LEU411      0.0001
    162  CD2       13.5130   17.5510   16.7850 C.3   411  LEU411      0.0001
@<TRIPOS>BOND
     1   136   137    1
     2   137   138    1
     3   137   140    1
     4   138   139    2
     5   141   140    1
     6   141   142    1
     7   147   148    1
     8    52    53    1
     9   142   143    1
    10   143   144    2
    11   148   149    1
    12   148   151    1
    13    55    54    2
    14   149   150    2
    15    53    54    1
    16    53    56    1
    17   146   144    1
    18    54    61   am
    19   155   156    1
    20   144   145    1
    21    70    68   ar
    22    70    69   ar
    23    68    66   ar
    24   151   152    1
    25   152   153    1
    26    57    56    1
    27    57    58    1
    28    61    62    1
    29   156   157    1
    30   156   159    1
    31    62    63    1
    32    62    65    1
    33   157   158    2
    34   153   154    1
    35    64    63    2
    36    69    67   ar
    37    66    65    1
    38    66    67   ar
    39    60    58   am
    40    58    59    2
    41    63    71   am
    42    74    73    2
    43    73    72    1
    44   108   107    2
    45   107   106    1
    46   159   160    1
    47   160   162    1
    48   160   161    1
    49    71    72    1
    50   101   100    2
    51    72    75    1
    52   102   103    1
    53   102    99    1
    54     7     6    2
    55   100    99    1
    56   100   105   am
    57   103   104    1
    58   106   105    1
    59   106   109    1
    60    75    76    1
    61    99    98    1
    62     6     8   am
    63     6     5    1
    64   109   110    1
    65   133   135   ar
    66   133   131   ar
    67   135   134   ar
    68   104    98    1
    69    98    92   am
    70    76    77    1
    71    76    78    1
    72     5     2    1
    73   130   131   ar
    74   130   128   ar
    75   131   129   ar
    76   110   112    1
    77   110   111    1
    78    93    92    2
    79    92    91    1
    80   134   132   ar
    81     1     2    1
    82     2     3    1
    83   121   119   ar
    84   128   127   ar
    85   129   132   ar
    86   129   127   ar
    87    40    37    1
    88    27    24    1
    89    87    86    2
    90    91    94    1
    91    91    90    1
    92    95    94    1
    93    95    96    1
    94   127   126    1
    95   120   119   ar
    96   119   118    1
    97    97    96    1
    98     3     4    2
    99     3     9   am
   100   125   124    2
   101    44    43    2
   102    37    38    1
   103    37    36    1
   104    31    30    2
   105    86    90   am
   106    86    85    1
   107   113   114    1
   108     9    10    1
   109    41    38   am
   110    41    42    1
   111   124   123    1
   112    12    11    2
   113    45    46    1
   114    45    42    1
   115    24    23    1
   116    24    25    1
   117   118   117    1
   118   126   123    1
   119    46    47    1
   120    38    39    2
   121    82    81    2
   122    43    42    1
   123    30    36   am
   124    30    29    1
   125    11    23   am
   126    11    10    1
   127    85    84    1
   128    85    88    1
   129   123   122    1
   130   114   117    1
   131   114   115    1
   132    25    28   am
   133    25    26    2
   134    10    13    1
   135    28    29    1
   136    81    84   am
   137    81    80    1
   138    88    89    1
   139    29    32    1
   140    47    48    1
   141   115   116    2
   142    13    14    1
   143    80    79    1
   144    80    83    1
   145    48    49    2
   146    50    49    1
   147    32    34    1
   148    32    33    1
   149    49    51    1
   150    15    14   ar
   151    15    17   ar
   152    14    16   ar
   153    17    18   ar
   154    33    35    1
   155    16    18   ar
   156    16    19   ar
   157    18    20   ar
   158    19    21   ar
   159    20    22   ar
   160    21    22   ar
