@<TRIPOS>MOLECULE
tmp/6da9A00.pdb
 217 212 0 0 0
SMALL
GASTEIGER

@<TRIPOS>ATOM
      1  N         13.6540   24.9510   28.7380 N.3   150  THR150     -0.1203
      2  CA        12.9660   23.7200   28.3340 C.3   150  THR150      0.1994
      3  C         11.4690   23.7850   28.6910 C.2   150  THR150      0.2617
      4  O         10.6760   23.0670   28.0800 O.2   150  THR150     -0.2717
      5  CB        13.6540   22.5090   28.9620 C.3   150  THR150      0.1784
      6  OG1       13.6800   22.6820   30.3770 O.3   150  THR150     -0.2211
      7  CG2       15.0840   22.2810   28.4450 C.3   150  THR150      0.0376
      8  N         11.0970   24.5660   29.7270 N.am  151  TRP151     -0.1975
      9  CA         9.7190   24.6840   30.1910 C.3   151  TRP151      0.1640
     10  C          9.2480   26.1400   30.3460 C.2   151  TRP151      0.2290
     11  O          8.0680   26.3570   30.6190 O.2   151  TRP151     -0.2864
     12  CB         9.6040   23.9260   31.5530 C.3   151  TRP151      0.0576
     13  CG         8.1820   23.7270   32.0630 C.ar  151  TRP151      0.0006
     14  CD1        7.6650   24.1710   33.2470 C.ar  151  TRP151      0.0946
     15  CD2        7.1040   23.0710   31.3740 C.ar  151  TRP151      0.0152
     16  NE1        6.3470   23.7650   33.3740 N.ar  151  TRP151     -0.2442
     17  CE2        5.9740   23.1030   32.2260 C.ar  151  TRP151      0.0810
     18  CE3        6.9880   22.4430   30.1150 C.ar  151  TRP151      0.0012
     19  CZ2        4.7420   22.5530   31.8650 C.ar  151  TRP151      0.0191
     20  CZ3        5.7490   21.9390   29.7340 C.ar  151  TRP151      0.0001
     21  CH2        4.6550   21.9630   30.6080 C.ar  151  TRP151      0.0015
     22  N          3.5620   36.9030   20.5820 N.3   165  ASN165     -0.1225
     23  CA         3.5700   35.4630   20.6100 C.3   165  ASN165      0.1785
     24  C          4.3400   34.9560   21.8370 C.2   165  ASN165      0.2597
     25  O          5.3940   35.4930   22.1900 O.2   165  ASN165     -0.2718
     26  CB         4.2040   34.9420   19.3280 C.3   165  ASN165      0.1169
     27  CG         3.9450   33.4890   19.1270 C.2   165  ASN165      0.2627
     28  OD1        2.8380   33.1030   18.7080 O.2   165  ASN165     -0.2716
     29  ND2        4.9360   32.6450   19.4440 N.am  165  ASN165     -0.0877
     30  N          3.7860   33.9440   22.4950 N.am  166  TRP166     -0.1962
     31  CA         4.3860   33.2670   23.6500 C.3   166  TRP166      0.1771
     32  C          4.6580   31.8210   23.1610 C.2   166  TRP166      0.2619
     33  O          3.7440   31.1830   22.6260 O.2   166  TRP166     -0.2715
     34  CB         3.3960   33.2430   24.8380 C.3   166  TRP166      0.0590
     35  CG         3.1720   34.5420   25.5490 C.ar  166  TRP166      0.0006
     36  CD1        3.5980   35.7760   25.1620 C.ar  166  TRP166      0.0946
     37  CD2        2.4040   34.7450   26.7550 C.ar  166  TRP166      0.0152
     38  NE1        3.2190   36.7180   26.0870 N.ar  166  TRP166     -0.2442
     39  CE2        2.4590   36.1190   27.0560 C.ar  166  TRP166      0.0810
     40  CE3        1.6580   33.9020   27.5970 C.ar  166  TRP166      0.0012
     41  CZ2        1.8220   36.6660   28.1720 C.ar  166  TRP166      0.0191
     42  CZ3        1.0130   34.4530   28.6970 C.ar  166  TRP166      0.0001
     43  CH2        1.1020   35.8150   28.9750 C.ar  166  TRP166      0.0015
     44  N          5.8900   31.3090   23.2980 N.am  167  ALA167     -0.1963
     45  CA         6.1970   29.9350   22.8520 C.3   167  ALA167      0.1728
     46  C          7.2570   29.2550   23.6980 C.2   167  ALA167      0.2616
     47  O          8.1470   29.9050   24.2050 O.2   167  ALA167     -0.2715
     48  CB         6.6460   29.9280   21.3930 C.3   167  ALA167      0.0334
     49  N          7.1550   27.9220   23.8420 N.am  168  ILE168     -0.1963
     50  CA         8.2400   27.1720   24.4720 C.3   168  ILE168      0.1727
     51  C          9.1330   26.6840   23.3570 C.2   168  ILE168      0.2616
     52  O          8.6880   25.9600   22.4740 O.2   168  ILE168     -0.2715
     53  CB         7.7640   25.9660   25.3030 C.3   168  ILE168      0.0290
     54  CG1        6.6890   26.4030   26.3280 C.3   168  ILE168      0.0022
     55  CG2        8.9980   25.2810   26.0390 C.3   168  ILE168      0.0023
     56  CD1        6.3990   25.3770   27.2830 C.3   168  ILE168      0.0001
     57  N         10.4060   27.0510   23.4030 N.am  169  ALA169     -0.1963
     58  CA        11.4020   26.4670   22.4880 C.3   169  ALA169      0.1728
     59  C         12.6600   26.2830   23.3180 C.2   169  ALA169      0.2616
     60  O         12.8730   27.0080   24.3050 O.2   169  ALA169     -0.2715
     61  CB        11.6800   27.3760   21.2750 C.3   169  ALA169      0.0334
     62  N         13.4820   25.3110   22.9320 N.am  170  ARG170     -0.1977
     63  CA        14.7340   25.0460   23.6340 C.3   170  ARG170      0.1597
     64  C         15.7450   26.1430   23.3440 C.2   170  ARG170      0.2287
     65  O         15.8190   26.6440   22.2190 O.2   170  ARG170     -0.2864
     66  CB        15.2810   23.6650   23.3020 C.3   170  ARG170      0.0334
     67  CG        14.5400   22.5780   24.1300 C.3   170  ARG170      0.0492
     68  CD        14.9490   21.1740   23.6980 C.3   170  ARG170      0.2205
     69  NE        14.0130   20.5780   22.7350 N.pl3 170  ARG170     -0.0865
     70  CZ        12.8660   19.9780   23.0490 C.cat 170  ARG170      0.5346
     71  NH1       12.4780   19.8870   24.3190 N.pl3 170  ARG170      0.1354
     72  NH2       12.0980   19.4610   22.0970 N.pl3 170  ARG170      0.1354
     73  N         17.2640   27.3210   17.7850 N.3   182  THR182     -0.1218
     74  CA        16.9780   27.2300   16.3370 C.3   182  THR182      0.1862
     75  C         15.6830   27.9750   16.0760 C.2   182  THR182      0.2287
     76  O         14.7200   27.6860   16.7540 O.2   182  THR182     -0.2866
     77  CB        16.8580   25.7600   15.8870 C.3   182  THR182      0.1770
     78  OG1       17.9320   24.9960   16.4380 O.3   182  THR182     -0.2211
     79  CG2       16.8470   25.6090   14.3750 C.3   182  THR182      0.0375
     80  N         12.8760   28.0630   13.6020 N.3   184  ILE184     -0.1245
     81  CA        12.1600   27.3230   12.5510 C.3   184  ILE184      0.1561
     82  C         11.1850   28.2650   11.8000 C.2   184  ILE184      0.2260
     83  O         10.3720   28.9100   12.4460 O.2   184  ILE184     -0.2867
     84  CB        11.4000   26.1140   13.2190 C.3   184  ILE184      0.0252
     85  CG1       12.3880   25.0690   13.8040 C.3   184  ILE184      0.0019
     86  CG2       10.4170   25.4440   12.2680 C.3   184  ILE184      0.0019
     87  CD1       11.8190   24.2800   14.9600 C.3   184  ILE184      0.0001
     88  N          7.3230   28.1130   12.6790 N.3   187  GLN187     -0.1231
     89  CA         6.9210   28.5180   14.0180 C.3   187  GLN187      0.1698
     90  C          6.7750   30.0210   14.0910 C.2   187  GLN187      0.2592
     91  O          7.4510   30.7490   13.3570 O.2   187  GLN187     -0.2718
     92  CB         7.9450   28.0130   15.0650 C.3   187  GLN187      0.0381
     93  CG         8.0310   26.5130   15.2150 C.3   187  GLN187      0.0905
     94  CD         6.8610   25.8680   15.9010 C.2   187  GLN187      0.2608
     95  OE1        5.7040   26.1530   15.5940 O.2   187  GLN187     -0.2717
     96  NE2        7.1360   24.9510   16.8280 N.am  187  GLN187     -0.0878
     97  N          5.9120   30.4920   15.0020 N.am  188  HIS188     -0.1962
     98  CA         5.6800   31.9220   15.1750 C.3   188  HIS188      0.1787
     99  C          6.8920   32.7030   15.6800 C.2   188  HIS188      0.2620
    100  O          7.0460   33.8410   15.2400 O.2   188  HIS188     -0.2715
    101  CB         4.4790   32.1790   16.0610 C.3   188  HIS188      0.0785
    102  CG         3.1820   31.7440   15.4620 C.ar  188  HIS188      0.0821
    103  ND1        2.0790   31.5000   16.2530 N.ar  188  HIS188     -0.2267
    104  CD2        2.8540   31.4990   14.1760 C.ar  188  HIS188      0.1154
    105  CE1        1.1240   31.1080   15.4290 C.ar  188  HIS188      0.1986
    106  NE2        1.5360   31.1310   14.1690 N.ar  188  HIS188     -0.2212
    107  N          7.7720   32.1290   16.5280 N.am  189  LEU189     -0.1977
    108  CA         9.0390   32.8080   16.9130 C.3   189  LEU189      0.1596
    109  C          9.8830   33.1650   15.6750 C.2   189  LEU189      0.2287
    110  O         10.4450   34.2630   15.6120 O.2   189  LEU189     -0.2864
    111  CB         9.9570   31.8910   17.7600 C.3   189  LEU189      0.0297
    112  CG         9.9620   32.0920   19.1960 C.3   189  LEU189      0.0022
    113  CD1       10.7680   30.9790   19.9040 C.3   189  LEU189      0.0001
    114  CD2       10.5150   33.4920   19.5160 C.3   189  LEU189      0.0001
    115  N          1.5610   28.0670   25.8060 N.3   219  ALA219     -0.1231
    116  CA         2.7570   28.3900   25.0170 C.3   219  ALA219      0.1694
    117  C          3.2270   27.2030   24.1230 C.2   219  ALA219      0.2593
    118  O          3.8580   27.4430   23.0960 O.2   219  ALA219     -0.2718
    119  CB         3.8870   28.8550   25.9140 C.3   219  ALA219      0.0304
    120  N          2.8560   25.9540   24.4580 N.am  220  SER220     -0.1938
    121  CA         3.1650   24.8060   23.5830 C.3   220  SER220      0.2055
    122  C          2.0620   24.5550   22.5620 C.2   220  SER220      0.2643
    123  O          2.2290   23.6770   21.7110 O.2   220  SER220     -0.2714
    124  CB         3.4390   23.5260   24.3630 C.3   220  SER220      0.2130
    125  OG         2.9120   23.5160   25.6680 O.3   220  SER220     -0.2179
    126  N          0.9320   25.2960   22.6440 N.am  221  MET221     -0.1963
    127  CA        -0.2170   25.0290   21.7950 C.3   221  MET221      0.1722
    128  C         -0.0960   25.6330   20.4040 C.2   221  MET221      0.2458
    129  O          0.0640   26.8440   20.2790 O.2   221  MET221     -0.2730
    130  CB        -1.4810   25.5290   22.4780 C.3   221  MET221      0.0427
    131  CG        -2.7590   25.0000   21.8460 C.3   221  MET221      0.0599
    132  SD        -4.1470   25.3830   22.9370 S.3   221  MET221     -0.1393
    133  CE        -5.4940   24.5660   22.0080 C.3   221  MET221      0.0692
    134  N         -0.2560   24.8200   19.3410 N.am  222  PRO222     -0.2716
    135  CA        -0.1180   25.3630   17.9800 C.3   222  PRO222      0.1536
    136  C         -1.3720   26.0810   17.5050 C.2   222  PRO222      0.2598
    137  O         -2.0240   25.6490   16.5660 O.2   222  PRO222     -0.2715
    138  CB         0.2050   24.1260   17.1480 C.3   222  PRO222      0.0310
    139  CG        -0.5650   23.0260   17.8700 C.3   222  PRO222      0.0237
    140  CD        -0.4180   23.3490   19.3220 C.3   222  PRO222      0.0939
    141  N         -1.6190   27.2660   18.0900 N.am  223  LEU223     -0.1978
    142  CA        -2.7620   28.0900   17.7600 C.3   223  LEU223      0.1596
    143  C         -2.5850   28.7020   16.3890 C.2   223  LEU223      0.2287
    144  O         -1.4480   28.8390   15.9290 O.2   223  LEU223     -0.2864
    145  CB        -2.9370   29.2270   18.8020 C.3   223  LEU223      0.0297
    146  CG        -3.2470   28.7860   20.1990 C.3   223  LEU223      0.0022
    147  CD1       -3.0570   29.9190   21.1640 C.3   223  LEU223      0.0001
    148  CD2       -4.6590   28.2490   20.2990 C.3   223  LEU223      0.0001
    149  N         -1.5190   33.8750   22.4750 N.3   229  GLU229     -0.1245
    150  CA        -1.6280   32.9130   23.5700 C.3   229  GLU229      0.1567
    151  C         -2.2640   33.5800   24.8150 C.2   229  GLU229      0.2260
    152  O         -3.0730   32.9450   25.4840 O.2   229  GLU229     -0.2867
    153  CB        -0.2310   32.3830   23.9540 C.3   229  GLU229      0.0388
    154  CG         0.3820   31.3990   22.9540 C.3   229  GLU229      0.1160
    155  CD         0.8840   31.9560   21.6230 C.2   229  GLU229      0.3649
    156  OE1        1.1230   33.1840   21.5290 O.co2 229  GLU229     -0.2457
    157  OE2        1.0800   31.1570   20.6820 O.co2 229  GLU229     -0.2457
    158  N         12.3870   20.6930   31.8900 N.3   286  SER286     -0.1217
    159  CA        11.7060   19.5980   31.1890 C.3   286  SER286      0.1889
    160  C         12.7940   18.8320   30.4260 C.2   286  SER286      0.2288
    161  O         13.5660   19.4260   29.6800 O.2   286  SER286     -0.2866
    162  CB        10.6120   20.1240   30.2490 C.3   286  SER286      0.2089
    163  OG         9.9800   19.0630   29.5590 O.3   286  SER286     -0.2183
    164  N         13.3550   16.2080   27.8480 N.3   288  ALA288     -0.1245
    165  CA        12.7330   15.4500   26.7450 C.3   288  ALA288      0.1562
    166  C         13.4250   14.1220   26.4770 C.2   288  ALA288      0.2260
    167  O         14.6160   13.9790   26.6890 O.2   288  ALA288     -0.2867
    168  CB        12.7210   16.2740   25.4570 C.3   288  ALA288      0.0290
    169  N          6.9020   16.0610   29.3600 N.3   294  GLU294     -0.1231
    170  CA         6.0770   17.1780   28.8920 C.3   294  GLU294      0.1699
    171  C          6.0020   17.3200   27.3890 C.2   294  GLU294      0.2592
    172  O          5.1150   18.0110   26.8960 O.2   294  GLU294     -0.2718
    173  CB         6.4970   18.5090   29.5330 C.3   294  GLU294      0.0402
    174  CG         6.3270   18.5290   31.0610 C.3   294  GLU294      0.1161
    175  CD         7.4640   17.9560   31.8850 C.2   294  GLU294      0.3649
    176  OE1        8.5250   17.6260   31.3030 O.co2 294  GLU294     -0.2457
    177  OE2        7.2910   17.8370   33.1200 O.co2 294  GLU294     -0.2457
    178  N          6.9140   16.6980   26.6390 N.am  295  THR295     -0.1953
    179  CA         6.7510   16.6130   25.1790 C.3   295  THR295      0.1897
    180  C          5.3960   15.9590   24.9180 C.2   295  THR295      0.2313
    181  O          4.7180   16.3620   24.0130 O.2   295  THR295     -0.2863
    182  CB         7.8420   15.6920   24.5580 C.3   295  THR295      0.1794
    183  OG1        9.1030   16.2030   24.9400 O.3   295  THR295     -0.2208
    184  CG2        7.7500   15.6170   23.0410 C.3   295  THR295      0.0378
    185  N          2.8670   19.2350   25.1050 N.3   299  TRP299     -0.1241
    186  CA         2.8480   19.4940   23.6670 C.3   299  TRP299      0.1605
    187  C          1.8920   18.5990   22.8650 C.2   299  TRP299      0.2264
    188  O          1.0590   19.1050   22.1010 O.2   299  TRP299     -0.2867
    189  CB         4.2550   19.4210   23.0870 C.3   299  TRP299      0.0550
    190  CG         4.3390   19.7560   21.6350 C.ar  299  TRP299      0.0003
    191  CD1        3.7340   20.7910   20.9960 C.ar  299  TRP299      0.0946
    192  CD2        5.0220   19.0080   20.6290 C.ar  299  TRP299      0.0152
    193  NE1        4.1000   20.8060   19.6750 N.ar  299  TRP299     -0.2442
    194  CE2        4.8660   19.7020   19.4130 C.ar  299  TRP299      0.0810
    195  CE3        5.8220   17.8570   20.6510 C.ar  299  TRP299      0.0012
    196  CZ2        5.4800   19.2800   18.2310 C.ar  299  TRP299      0.0191
    197  CZ3        6.4150   17.4280   19.4760 C.ar  299  TRP299      0.0001
    198  CH2        6.2380   18.1320   18.2820 C.ar  299  TRP299      0.0015
    199  N         -1.9090   23.9580   10.4680 N.3   364  ARG364     -0.1245
    200  CA        -0.4730   24.0240   10.7820 C.3   364  ARG364      0.1563
    201  C          0.0310   22.8180   11.5880 C.2   364  ARG364      0.2260
    202  O          1.2340   22.6950   11.7900 O.2   364  ARG364     -0.2867
    203  CB        -0.0540   25.3540   11.4340 C.3   364  ARG364      0.0307
    204  CG        -0.7120   25.7760   12.7060 C.3   364  ARG364      0.0489
    205  CD        -0.4030   27.2550   12.9680 C.3   364  ARG364      0.2205
    206  NE         1.0360   27.4980   13.1210 N.pl3 364  ARG364     -0.0865
    207  CZ         1.6970   27.5680   14.2880 C.cat 364  ARG364      0.5346
    208  NH1        1.0480   27.4620   15.4380 N.pl3 364  ARG364      0.1354
    209  NH2        3.0080   27.7720   14.3100 N.pl3 364  ARG364      0.1354
    210  N         12.0250   15.6880   13.8940 N.3   411  LEU411     -0.1245
    211  CA        12.3430   14.9510   15.1210 C.3   411  LEU411      0.1561
    212  C         11.6530   13.5880   15.1880 C.2   411  LEU411      0.2260
    213  O         11.9640   12.8170   16.0970 O.2   411  LEU411     -0.2867
    214  CB        11.8910   15.7560   16.3500 C.3   411  LEU411      0.0270
    215  CG        12.4300   17.1770   16.4930 C.3   411  LEU411      0.0019
    216  CD1       11.7940   17.8690   17.6880 C.3   411  LEU411      0.0001
    217  CD2       13.9450   17.1910   16.6190 C.3   411  LEU411      0.0001
@<TRIPOS>BOND
     1   199   200    1
     2   200   203    1
     3   200   201    1
     4   203   204    1
     5   201   202    2
     6    82    83    2
     7    82    81    1
     8    86    84    1
     9    81    84    1
    10    81    80    1
    11    88    89    1
    12   204   205    1
    13   205   206    1
    14   206   207    2
    15    84    85    1
    16    91    90    2
    17    85    87    1
    18   210   211    1
    19    89    90    1
    20    89    92    1
    21    90    97   am
    22   106   104   ar
    23   106   105   ar
    24   104   102   ar
    25   207   209    1
    26   207   208    1
    27    79    77    1
    28    97    98    1
    29    92    93    1
    30   211   212    1
    31   211   214    1
    32    98    99    1
    33    98   101    1
    34   212   213    2
    35    93    94    1
    36   100    99    2
    37   105   103   ar
    38   102   101    1
    39   102   103   ar
    40    95    94    2
    41   110   109    2
    42   109   108    1
    43    99   107   am
    44    77    74    1
    45    77    78    1
    46    94    96   am
    47   144   143    2
    48    75    74    1
    49    75    76    2
    50    74    73    1
    51   214   215    1
    52   143   142    1
    53   215   217    1
    54   215   216    1
    55   107   108    1
    56   137   136    2
    57   108   111    1
    58   138   139    1
    59   138   135    1
    60   136   135    1
    61   136   141   am
    62   142   141    1
    63   142   145    1
    64   111   112    1
    65   139   140    1
    66   135   134    1
    67   196   198   ar
    68   196   194   ar
    69   198   197   ar
    70    28    27    2
    71   145   146    1
    72    27    26    1
    73    27    29   am
    74   112   114    1
    75   112   113    1
    76   140   134    1
    77    26    23    1
    78   134   128   am
    79   194   193   ar
    80   194   192   ar
    81   197   195   ar
    82   193   191   ar
    83   146   148    1
    84   146   147    1
    85   129   128    2
    86   128   127    1
    87    22    23    1
    88    23    24    1
    89   192   195   ar
    90   192   190   ar
    91   157   155   ar
    92   191   190   ar
    93    61    58    1
    94    48    45    1
    95   156   155   ar
    96   155   154    1
    97   190   189    1
    98   123   122    2
    99   127   130    1
   100   127   126    1
   101    24    25    2
   102    24    30   am
   103   131   130    1
   104   131   132    1
   105   133   132    1
   106    72    70    1
   107   188   187    2
   108    65    64    2
   109    52    51    2
   110   149   150    1
   111    58    59    1
   112    58    57    1
   113    30    31    1
   114   122   126   am
   115   122   121    1
   116    33    32    2
   117    69    70    2
   118    69    68    1
   119    45    44    1
   120    45    46    1
   121   187   186    1
   122    62    59   am
   123    62    63    1
   124   154   153    1
   125   184   182    1
   126    70    71    1
   127   189   186    1
   128   118   117    2
   129    32    44   am
   130    32    31    1
   131    66    63    1
   132    66    67    1
   133    59    60    2
   134    64    63    1
   135    51    57   am
   136    51    50    1
   137   150   153    1
   138   150   151    1
   139   121   124    1
   140   121   120    1
   141    31    34    1
   142   186   185    1
   143    68    67    1
   144    46    49   am
   145    46    47    2
   146    49    50    1
   147   181   180    2
   148   117   120   am
   149   117   116    1
   150   124   125    1
   151    50    53    1
   152   182   183    1
   153   182   179    1
   154   151   152    2
   155    34    35    1
   156   180   179    1
   157   116   115    1
   158   116   119    1
   159    36    35   ar
   160    36    38   ar
   161   179   178    1
   162    53    55    1
   163    53    54    1
   164   168   165    1
   165    35    37   ar
   166    38    39   ar
   167    54    56    1
   168   166   167    2
   169   166   165    1
   170   178   171   am
   171   165   164    1
   172    37    39   ar
   173    37    40   ar
   174   172   171    2
   175    39    41   ar
   176   171   170    1
   177    40    42   ar
   178     4     3    2
   179    41    43   ar
   180     2     3    1
   181     2     1    1
   182     2     5    1
   183     7     5    1
   184     3     8   am
   185    42    43   ar
   186   170   169    1
   187   170   173    1
   188     5     6    1
   189   173   174    1
   190   163   162    1
   191   161   160    2
   192     8     9    1
   193    20    18   ar
   194    20    21   ar
   195    18    15   ar
   196     9    10    1
   197     9    12    1
   198   162   159    1
   199    10    11    2
   200   160   159    1
   201    21    19   ar
   202   174   175    1
   203   159   158    1
   204   176   175   ar
   205    15    13   ar
   206    15    17   ar
   207    12    13    1
   208    19    17   ar
   209   175   177   ar
   210    13    14   ar
   211    17    16   ar
   212    14    16   ar
