@<TRIPOS>MOLECULE
tmp/6daiA01.pdb
 86 83 0 0 0
SMALL
GASTEIGER

@<TRIPOS>ATOM
      1  N         -9.8480   31.6890   -1.8940 N.3    62  SER62      -0.1217
      2  CA       -10.2530   30.2860   -1.8050 C.3    62  SER62       0.1889
      3  C        -10.3870   29.5810   -3.1490 C.2    62  SER62       0.2288
      4  O        -10.3610   28.3590   -3.2070 O.2    62  SER62      -0.2866
      5  CB       -11.5880   30.1650   -1.0630 C.3    62  SER62       0.2089
      6  OG       -11.4400   30.4480    0.3240 O.3    62  SER62      -0.2183
      7  N        -11.7390   35.6270    1.0530 N.3    78  ASP78      -0.1239
      8  CA       -12.2160   35.8440    2.4140 C.3    78  ASP78       0.1674
      9  C        -12.5940   37.3020    2.6680 C.2    78  ASP78       0.2266
     10  O        -13.2750   37.6000    3.6470 O.2    78  ASP78      -0.2867
     11  CB       -11.1570   35.4160    3.4400 C.3    78  ASP78       0.1410
     12  CG       -10.9970   33.9130    3.5290 C.2    78  ASP78       0.3668
     13  OD1      -11.8720   33.1830    3.0240 O.co2  78  ASP78      -0.2456
     14  OD2       -9.9960   33.4610    4.1230 O.co2  78  ASP78      -0.2456
     15  N        -17.2380   35.2140    3.7250 N.3   102  TYR102     -0.1241
     16  CA       -16.2070   34.6550    2.8350 C.3   102  TYR102      0.1605
     17  C        -16.7970   34.0850    1.5510 C.2   102  TYR102      0.2264
     18  O        -17.7700   33.3300    1.5930 O.2   102  TYR102     -0.2867
     19  CB       -15.4120   33.5360    3.5240 C.3   102  TYR102      0.0534
     20  CG       -15.1180   33.7590    4.9880 C.ar  102  TYR102     -0.0201
     21  CD1      -14.3510   34.8340    5.4100 C.ar  102  TYR102     -0.0009
     22  CD2      -15.6020   32.8800    5.9470 C.ar  102  TYR102     -0.0009
     23  CE1      -14.0830   35.0350    6.7570 C.ar  102  TYR102      0.0417
     24  CE2      -15.3440   33.0740    7.2950 C.ar  102  TYR102      0.0417
     25  CZ       -14.5840   34.1500    7.6930 C.ar  102  TYR102      0.1957
     26  OH       -14.3310   34.3410    9.0370 O.3   102  TYR102     -0.2866
     27  N        -16.2380   31.4460   -1.2620 N.3   104  PHE104     -0.1241
     28  CA       -15.4820   30.1920   -1.2310 C.3   104  PHE104      0.1605
     29  C        -15.2510   29.5460   -2.5900 C.2   104  PHE104      0.2264
     30  O        -14.2690   28.8190   -2.7970 O.2   104  PHE104     -0.2867
     31  CB       -16.2110   29.2050   -0.3190 C.3   104  PHE104      0.0534
     32  CG       -15.3880   28.0170    0.0840 C.ar  104  PHE104     -0.0203
     33  CD1      -14.2780   28.1740    0.9060 C.ar  104  PHE104     -0.0042
     34  CD2      -15.7380   26.7420   -0.3310 C.ar  104  PHE104     -0.0042
     35  CE1      -13.5270   27.0770    1.3020 C.ar  104  PHE104     -0.0003
     36  CE2      -14.9930   25.6430    0.0580 C.ar  104  PHE104     -0.0003
     37  CZ       -13.8870   25.8140    0.8880 C.ar  104  PHE104     -0.0000
     38  N        -19.8080   31.4800    2.3600 N.3   120  PHE120     -0.1241
     39  CA       -20.0730   31.1160    3.7420 C.3   120  PHE120      0.1605
     40  C        -21.4100   31.7120    4.1810 C.2   120  PHE120      0.2264
     41  O        -22.0380   31.2200    5.1230 O.2   120  PHE120     -0.2867
     42  CB       -18.9130   31.6100    4.6190 C.3   120  PHE120      0.0534
     43  CG       -18.9240   31.0920    6.0280 C.ar  120  PHE120     -0.0203
     44  CD1      -18.1930   29.9640    6.3670 C.ar  120  PHE120     -0.0042
     45  CD2      -19.6140   31.7630    7.0190 C.ar  120  PHE120     -0.0042
     46  CE1      -18.1780   29.4990    7.6680 C.ar  120  PHE120     -0.0003
     47  CE2      -19.6000   31.3090    8.3260 C.ar  120  PHE120     -0.0003
     48  CZ       -18.8820   30.1710    8.6470 C.ar  120  PHE120     -0.0000
     49  N        -22.7950   26.9560    4.9140 N.3   144  PRO144     -0.2102
     50  CA       -21.8610   27.4670    3.9070 C.3   144  PRO144      0.1504
     51  C        -21.8800   26.6720    2.6000 C.2   144  PRO144      0.2576
     52  O        -22.0530   25.4450    2.6100 O.2   144  PRO144     -0.2718
     53  CB       -20.5030   27.3460    4.6070 C.3   144  PRO144      0.0282
     54  CG       -20.8300   27.5500    6.0510 C.3   144  PRO144      0.0208
     55  CD       -22.1830   26.9050    6.2550 C.3   144  PRO144      0.0893
     56  N        -21.7300   27.3840    1.4870 N.am  145  VAL145     -0.1966
     57  CA       -21.7260   26.7660    0.1660 C.3   145  VAL145      0.1727
     58  C        -20.3070   26.3450   -0.2110 C.2   145  VAL145      0.2616
     59  O        -19.3830   27.1750   -0.2310 O.2   145  VAL145     -0.2715
     60  CB       -22.2910   27.7240   -0.9070 C.3   145  VAL145      0.0290
     61  CG1      -22.3010   27.0500   -2.2830 C.3   145  VAL145      0.0023
     62  CG2      -23.6920   28.2090   -0.5070 C.3   145  VAL145      0.0023
     63  N        -20.1240   25.0600   -0.5000 N.am  146  SER146     -0.1950
     64  CA       -18.7780   24.5380   -0.7460 C.3   146  SER146      0.1924
     65  C        -18.3550   24.5570   -2.2060 C.2   146  SER146      0.2314
     66  O        -17.1570   24.5980   -2.4980 O.2   146  SER146     -0.2863
     67  CB       -18.6620   23.1090   -0.2160 C.3   146  SER146      0.2116
     68  OG       -19.7150   22.3050   -0.7300 O.3   146  SER146     -0.2180
     69  N        -22.5020   22.3290    3.1950 N.3   162  TYR162     -0.1241
     70  CA       -22.3600   21.5830    4.4310 C.3   162  TYR162      0.1605
     71  C        -23.7150   21.1800    4.9980 C.2   162  TYR162      0.2264
     72  O        -23.7850   20.3880    5.9420 O.2   162  TYR162     -0.2867
     73  CB       -21.5760   22.4030    5.4560 C.3   162  TYR162      0.0534
     74  CG       -20.0910   22.1480    5.3830 C.ar  162  TYR162     -0.0201
     75  CD1      -19.4680   21.9360    4.1640 C.ar  162  TYR162     -0.0009
     76  CD2      -19.3200   22.1030    6.5330 C.ar  162  TYR162     -0.0009
     77  CE1      -18.1000   21.6950    4.0910 C.ar  162  TYR162      0.0417
     78  CE2      -17.9570   21.8610    6.4730 C.ar  162  TYR162      0.0417
     79  CZ       -17.3570   21.6570    5.2520 C.ar  162  TYR162      0.1957
     80  OH       -15.9980   21.4230    5.1980 O.3   162  TYR162     -0.2866
     81  N        -12.6450   20.7840    2.0660 N.3   232  CYS232     -0.1235
     82  CA       -13.3370   20.7990    0.7930 C.3   232  CYS232      0.1677
     83  C        -12.3060   20.6070   -0.3080 C.2   232  CYS232      0.2270
     84  O        -11.5740   21.5310   -0.6630 O.2   232  CYS232     -0.2867
     85  CB       -14.1180   22.1010    0.6110 C.3   232  CYS232      0.0956
     86  SG       -15.5050   22.2610    1.7590 S.3   232  CYS232     -0.0801
@<TRIPOS>BOND
     1     4     3    2
     2     3     2    1
     3    30    29    2
     4    29    28    1
     5    66    65    2
     6    61    60    1
     7    65    64    1
     8     1     2    1
     9     2     5    1
    10    27    28    1
    11    28    31    1
    12     5     6    1
    13    60    62    1
    14    60    57    1
    15    64    63    1
    16    64    67    1
    17    68    67    1
    18    84    83    2
    19    63    58   am
    20    34    36   ar
    21    34    32   ar
    22    31    32    1
    23    83    82    1
    24    59    58    2
    25    58    57    1
    26    36    37   ar
    27    32    33   ar
    28    57    56    1
    29    85    82    1
    30    85    86    1
    31    82    81    1
    32    37    35   ar
    33    33    35   ar
    34     7     8    1
    35    56    51   am
    36    17    18    2
    37    17    16    1
    38    38    39    1
    39     8     9    1
    40     8    11    1
    41    51    52    2
    42    51    50    1
    43     9    10    2
    44    16    19    1
    45    16    15    1
    46    13    12   ar
    47    69    70    1
    48    11    12    1
    49    19    20    1
    50    12    14   ar
    51    39    40    1
    52    39    42    1
    53    50    53    1
    54    50    49    1
    55    77    75   ar
    56    77    79   ar
    57    75    74   ar
    58    40    41    2
    59    70    71    1
    60    70    73    1
    61    53    54    1
    62    42    43    1
    63    49    55    1
    64    20    21   ar
    65    20    22   ar
    66    71    72    2
    67    80    79    1
    68    79    78   ar
    69    74    73    1
    70    74    76   ar
    71    21    23   ar
    72    22    24   ar
    73    43    44   ar
    74    43    45   ar
    75    54    55    1
    76    44    46   ar
    77    78    76   ar
    78    23    25   ar
    79    45    47   ar
    80    24    25   ar
    81    46    48   ar
    82    25    26    1
    83    47    48   ar
