@<TRIPOS>MOLECULE
tmp/6daiA00.pdb
 128 121 0 0 0
SMALL
GASTEIGER

@<TRIPOS>ATOM
      1  N         -0.8210   28.1970    2.4480 N.3    18  ALA18      -0.1245
      2  CA        -1.5680   27.1210    1.7980 C.3    18  ALA18       0.1562
      3  C         -2.0950   27.5090    0.4260 C.2    18  ALA18       0.2260
      4  O         -2.6130   28.6060    0.2410 O.2    18  ALA18      -0.2867
      5  CB        -2.7270   26.6910    2.6820 C.3    18  ALA18       0.0290
      6  N         -4.8970   27.0830   -2.3790 N.3    20  SER20      -0.1217
      7  CA        -6.3050   26.7380   -2.2410 C.3    20  SER20       0.1889
      8  C         -6.8920   26.0850   -3.4830 C.2    20  SER20       0.2288
      9  O         -7.7540   25.2190   -3.3810 O.2    20  SER20      -0.2866
     10  CB        -7.1180   27.9830   -1.8780 C.3    20  SER20       0.2089
     11  OG        -6.8620   29.0500   -2.7670 O.3    20  SER20      -0.2183
     12  N         -3.9740   31.1430    0.2930 N.3    36  ALA36      -0.1245
     13  CA        -4.1990   31.8880    1.5210 C.3    36  ALA36       0.1562
     14  C         -3.2620   33.0970    1.6680 C.2    36  ALA36       0.2260
     15  O         -3.4810   33.9410    2.5420 O.2    36  ALA36      -0.2867
     16  CB        -4.0530   30.9640    2.7200 C.3    36  ALA36       0.0290
     17  N         -7.4010   33.9170   -0.6580 N.3    61  ILE61      -0.1231
     18  CA        -8.2400   33.5350   -1.7980 C.3    61  ILE61       0.1692
     19  C         -8.5770   32.0480   -1.7070 C.2    61  ILE61       0.2593
     20  O         -7.6910   31.2340   -1.4570 O.2    61  ILE61      -0.2718
     21  CB        -7.5250   33.8350   -3.1420 C.3    61  ILE61       0.0266
     22  CG1       -7.1360   35.3130   -3.2140 C.3    61  ILE61       0.0019
     23  CG2       -8.4070   33.4700   -4.3340 C.3    61  ILE61       0.0020
     24  CD1       -6.3320   35.6540   -4.4530 C.3    61  ILE61       0.0001
     25  N         -9.8480   31.6890   -1.8940 N.am   62  SER62      -0.1938
     26  CA       -10.2530   30.2860   -1.8050 C.3    62  SER62       0.2055
     27  C        -10.3870   29.5810   -3.1490 C.2    62  SER62       0.2643
     28  O        -10.3610   28.3590   -3.2070 O.2    62  SER62      -0.2714
     29  CB       -11.5880   30.1650   -1.0630 C.3    62  SER62       0.2130
     30  OG       -11.4400   30.4480    0.3240 O.3    62  SER62      -0.2179
     31  N        -10.5440   30.3440   -4.2250 N.am   63  ASP63      -0.1971
     32  CA       -10.8030   29.7490   -5.5320 C.3    63  ASP63       0.1709
     33  C        -10.4790   30.7250   -6.6480 C.2    63  ASP63       0.2293
     34  O        -10.4950   31.9390   -6.4470 O.2    63  ASP63      -0.2864
     35  CB       -12.2790   29.3060   -5.6170 C.3    63  ASP63       0.1436
     36  CG       -12.5350   28.2240   -6.6530 C.2    63  ASP63       0.3671
     37  OD1      -11.5880   27.6800   -7.2570 O.co2  63  ASP63      -0.2456
     38  OD2      -13.7300   27.8770   -6.8430 O.co2  63  ASP63      -0.2456
     39  N        -16.2380   31.4460   -1.2620 N.3   104  PHE104     -0.1227
     40  CA       -15.4820   30.1920   -1.2310 C.3   104  PHE104      0.1736
     41  C        -15.2510   29.5460   -2.5900 C.2   104  PHE104      0.2595
     42  O        -14.2690   28.8190   -2.7970 O.2   104  PHE104     -0.2718
     43  CB       -16.2110   29.2050   -0.3190 C.3   104  PHE104      0.0547
     44  CG       -15.3880   28.0170    0.0840 C.ar  104  PHE104     -0.0202
     45  CD1      -14.2780   28.1740    0.9060 C.ar  104  PHE104     -0.0042
     46  CD2      -15.7380   26.7420   -0.3310 C.ar  104  PHE104     -0.0042
     47  CE1      -13.5270   27.0770    1.3020 C.ar  104  PHE104     -0.0003
     48  CE2      -14.9930   25.6430    0.0580 C.ar  104  PHE104     -0.0003
     49  CZ       -13.8870   25.8140    0.8880 C.ar  104  PHE104     -0.0000
     50  N        -16.1410   29.8130   -3.5300 N.am  105  CYS105     -0.1970
     51  CA       -16.0930   29.1190   -4.8050 C.3   105  CYS105      0.1712
     52  C        -16.6200   29.9960   -5.9280 C.2   105  CYS105      0.2296
     53  O        -17.5000   30.8300   -5.7070 O.2   105  CYS105     -0.2864
     54  CB       -16.9030   27.8170   -4.7300 C.3   105  CYS105      0.0983
     55  SG       -18.5930   27.9640   -4.0100 S.3   105  CYS105     -0.0798
     56  N        -20.1240   25.0600   -0.5000 N.3   146  SER146     -0.1202
     57  CA       -18.7780   24.5380   -0.7460 C.3   146  SER146      0.2020
     58  C        -18.3550   24.5570   -2.2060 C.2   146  SER146      0.2618
     59  O        -17.1570   24.5980   -2.4980 O.2   146  SER146     -0.2717
     60  CB       -18.6620   23.1090   -0.2160 C.3   146  SER146      0.2103
     61  OG       -19.7150   22.3050   -0.7300 O.3   146  SER146     -0.2182
     62  N        -19.3090   24.5250   -3.1310 N.am  147  ALA147     -0.1979
     63  CA       -18.9530   24.5370   -4.5480 C.3   147  ALA147      0.1597
     64  C        -20.1150   25.0110   -5.4200 C.2   147  ALA147      0.2287
     65  O        -21.2820   24.8670   -5.0450 O.2   147  ALA147     -0.2864
     66  CB       -18.4860   23.1510   -4.9930 C.3   147  ALA147      0.0319
     67  N        -18.8580   18.5400    0.3560 N.3   189  SER189     -0.1202
     68  CA       -17.6840   19.4010    0.3250 C.3   189  SER189      0.2020
     69  C        -17.2440   19.7900   -1.0840 C.2   189  SER189      0.2618
     70  O        -16.3790   20.6410   -1.2430 O.2   189  SER189     -0.2717
     71  CB       -16.5330   18.7080    1.0460 C.3   189  SER189      0.2103
     72  OG       -16.3960   17.3800    0.5700 O.3   189  SER189     -0.2182
     73  N        -17.8400   19.1770   -2.1030 N.am  190  PHE190     -0.1975
     74  CA       -17.5340   19.5380   -3.4860 C.3   190  PHE190      0.1639
     75  C        -18.5900   18.9740   -4.4250 C.2   190  PHE190      0.2290
     76  O        -19.1640   17.9190   -4.1570 O.2   190  PHE190     -0.2864
     77  CB       -16.1450   19.0380   -3.9150 C.3   190  PHE190      0.0560
     78  CG       -15.7840   19.4340   -5.3150 C.ar  190  PHE190     -0.0200
     79  CD1      -15.3840   20.7310   -5.5930 C.ar  190  PHE190     -0.0042
     80  CD2      -15.8880   18.5250   -6.3570 C.ar  190  PHE190     -0.0042
     81  CE1      -15.0790   21.1180   -6.8820 C.ar  190  PHE190     -0.0003
     82  CE2      -15.5850   18.9070   -7.6570 C.ar  190  PHE190     -0.0003
     83  CZ       -15.1770   20.2000   -7.9110 C.ar  190  PHE190     -0.0000
     84  N        -11.7560   18.6950    4.9190 N.3   231  TYR231     -0.1227
     85  CA       -11.5540   19.7660    3.9530 C.3   231  TYR231      0.1736
     86  C        -12.3940   19.6430    2.6930 C.2   231  TYR231      0.2595
     87  O        -12.7950   18.5530    2.2890 O.2   231  TYR231     -0.2718
     88  CB       -10.0770   19.8360    3.5500 C.3   231  TYR231      0.0548
     89  CG        -9.1570   20.2220    4.6800 C.ar  231  TYR231     -0.0200
     90  CD1       -9.0770   21.5400    5.1170 C.ar  231  TYR231     -0.0009
     91  CD2       -8.3640   19.2730    5.3070 C.ar  231  TYR231     -0.0009
     92  CE1       -8.2300   21.8980    6.1480 C.ar  231  TYR231      0.0417
     93  CE2       -7.5260   19.6220    6.3270 C.ar  231  TYR231      0.0417
     94  CZ        -7.4570   20.9310    6.7480 C.ar  231  TYR231      0.1957
     95  OH        -6.5990   21.2540    7.7800 O.3   231  TYR231     -0.2866
     96  N        -12.6450   20.7840    2.0660 N.am  232  CYS232     -0.1970
     97  CA       -13.3370   20.7990    0.7930 C.3   232  CYS232      0.1712
     98  C        -12.3060   20.6070   -0.3080 C.2   232  CYS232      0.2296
     99  O        -11.5740   21.5310   -0.6630 O.2   232  CYS232     -0.2864
    100  CB       -14.1180   22.1010    0.6110 C.3   232  CYS232      0.0983
    101  SG       -15.5050   22.2610    1.7590 S.3   232  CYS232     -0.0798
    102  N        -11.1990   19.5790   -4.1570 N.3   234  PHE234     -0.1241
    103  CA       -11.6510   19.5170   -5.5340 C.3   234  PHE234      0.1605
    104  C        -11.5550   18.0910   -6.0790 C.2   234  PHE234      0.2264
    105  O        -10.6450   17.3420   -5.7170 O.2   234  PHE234     -0.2867
    106  CB       -10.8080   20.4460   -6.4090 C.3   234  PHE234      0.0534
    107  CG       -11.0090   21.9100   -6.1380 C.ar  234  PHE234     -0.0203
    108  CD1      -10.3110   22.5580   -5.1200 C.ar  234  PHE234     -0.0042
    109  CD2      -11.8620   22.6550   -6.9390 C.ar  234  PHE234     -0.0042
    110  CE1      -10.4900   23.9140   -4.9000 C.ar  234  PHE234     -0.0003
    111  CE2      -12.0290   24.0100   -6.7330 C.ar  234  PHE234     -0.0003
    112  CZ       -11.3510   24.6460   -5.7180 C.ar  234  PHE234     -0.0000
    113  N         -5.3360   19.5660   -1.4840 N.3   276  ILE276     -0.1245
    114  CA        -6.6290   20.2390   -1.4160 C.3   276  ILE276      0.1561
    115  C         -7.2430   20.4160   -2.8070 C.2   276  ILE276      0.2260
    116  O         -8.4570   20.5420   -2.9590 O.2   276  ILE276     -0.2867
    117  CB        -6.4730   21.6060   -0.7280 C.3   276  ILE276      0.0252
    118  CG1       -7.8320   22.1830   -0.3350 C.3   276  ILE276      0.0019
    119  CG2       -5.6370   22.5780   -1.5860 C.3   276  ILE276      0.0019
    120  CD1       -8.5100   21.3780    0.7610 C.3   276  ILE276      0.0001
    121  N         -1.7380   21.9950    1.2350 N.3   292  LEU292     -0.1245
    122  CA        -1.9730   22.9900    2.2800 C.3   292  LEU292      0.1561
    123  C         -0.6740   23.4960    2.9280 C.2   292  LEU292      0.2260
    124  O          0.4160   23.2950    2.3950 O.2   292  LEU292     -0.2867
    125  CB        -2.9240   22.4230    3.3390 C.3   292  LEU292      0.0270
    126  CG        -4.3380   22.1650    2.7990 C.3   292  LEU292      0.0019
    127  CD1       -5.2770   21.7280    3.9170 C.3   292  LEU292      0.0001
    128  CD2       -4.8810   23.4060    2.1280 C.3   292  LEU292      0.0001
@<TRIPOS>BOND
     1    83    82   ar
     2    83    81   ar
     3    82    80   ar
     4    37    36   ar
     5   109   111   ar
     6   109   107   ar
     7    81    79   ar
     8    38    36   ar
     9   111   112   ar
    10    36    35    1
    11    33    34    2
    12    33    32    1
    13   106   107    1
    14   106   103    1
    15    80    78   ar
    16   107   108   ar
    17   104   105    2
    18   104   103    1
    19    52    53    2
    20    52    51    1
    21   112   110   ar
    22    35    32    1
    23    79    78   ar
    24   103   102    1
    25    32    31    1
    26    64    65    2
    27    64    63    1
    28    78    77    1
    29   108   110   ar
    30    66    63    1
    31    51    54    1
    32    51    50    1
    33    54    55    1
    34    63    62    1
    35    24    22    1
    36    75    76    2
    37    75    74    1
    38    23    21    1
    39    31    27   am
    40    77    74    1
    41    50    41   am
    42    74    73    1
    43     8     9    2
    44     8     7    1
    45    22    21    1
    46    28    27    2
    47    27    26    1
    48    21    18    1
    49    62    58   am
    50   116   115    2
    51   115   114    1
    52    42    41    2
    53    11    10    1
    54    41    40    1
    55    59    58    2
    56     6     7    1
    57     7    10    1
    58    58    57    1
    59    73    69   am
    60    25    26    1
    61    25    19   am
    62    26    29    1
    63    18    19    1
    64    18    17    1
    65    19    20    2
    66   119   117    1
    67   113   114    1
    68   114   117    1
    69    39    40    1
    70    70    69    2
    71    40    43    1
    72    69    68    1
    73    29    30    1
    74    57    56    1
    75    57    60    1
    76    61    60    1
    77   117   118    1
    78    99    98    2
    79   118   120    1
    80    46    48   ar
    81    46    44   ar
    82    43    44    1
    83    98    97    1
    84    48    49   ar
    85    44    45   ar
    86     4     3    2
    87    12    13    1
    88    68    67    1
    89    68    71    1
    90     3     2    1
    91    72    71    1
    92   100    97    1
    93   100   101    1
    94    97    96    1
    95    49    47   ar
    96    45    47   ar
    97   121   122    1
    98    13    14    1
    99    13    16    1
   100    14    15    2
   101     2     1    1
   102     2     5    1
   103    96    86   am
   104   128   126    1
   105   122   123    1
   106   122   125    1
   107    87    86    2
   108   124   123    2
   109    86    85    1
   110   126   125    1
   111   126   127    1
   112    88    85    1
   113    88    89    1
   114    85    84    1
   115    89    90   ar
   116    89    91   ar
   117    90    92   ar
   118    91    93   ar
   119    92    94   ar
   120    93    94   ar
   121    94    95    1
