@<TRIPOS>MOLECULE
tmp/6dakA00.pdb
 167 161 0 0 0
SMALL
GASTEIGER

@<TRIPOS>ATOM
      1  N         -0.7420   28.0030    2.3610 N.3    17  ALA17      -0.1231
      2  CA        -1.5210   26.9420    1.7180 C.3    17  ALA17       0.1694
      3  C         -2.0260   27.3320    0.3410 C.2    17  ALA17       0.2592
      4  O         -2.5170   28.4480    0.1510 O.2    17  ALA17      -0.2718
      5  CB        -2.7080   26.5740    2.6070 C.3    17  ALA17       0.0304
      6  N         -1.9170   26.4180   -0.6130 N.am   18  VAL18      -0.1966
      7  CA        -2.5390   26.6260   -1.9030 C.3    18  VAL18       0.1727
      8  C         -4.0150   26.2660   -1.7250 C.2    18  VAL18       0.2616
      9  O         -4.3520   25.4130   -0.9020 O.2    18  VAL18      -0.2715
     10  CB        -1.8600   25.7900   -3.0060 C.3    18  VAL18       0.0290
     11  CG1       -2.4320   26.1570   -4.3770 C.3    18  VAL18       0.0023
     12  CG2       -0.3330   26.0370   -2.9850 C.3    18  VAL18       0.0023
     13  N         -4.8930   26.9210   -2.4780 N.am   19  SER19      -0.1950
     14  CA        -6.3180   26.6570   -2.3480 C.3    19  SER19       0.1924
     15  C         -6.9240   25.9940   -3.5830 C.2    19  SER19       0.2314
     16  O         -7.7320   25.0730   -3.4610 O.2    19  SER19      -0.2863
     17  CB        -7.0610   27.9560   -2.0440 C.3    19  SER19       0.2116
     18  OG        -6.8350   28.9230   -3.0460 O.3    19  SER19      -0.2180
     19  N         -3.9540   30.9320    0.2230 N.3    35  ALA35      -0.1245
     20  CA        -4.1460   31.6380    1.4810 C.3    35  ALA35       0.1562
     21  C         -3.2060   32.8300    1.6360 C.2    35  ALA35       0.2260
     22  O         -3.4280   33.6690    2.5110 O.2    35  ALA35      -0.2867
     23  CB        -3.9590   30.6830    2.6420 C.3    35  ALA35       0.0290
     24  N         -7.3480   33.7790   -0.7070 N.3    60  ILE60      -0.1231
     25  CA        -8.2020   33.3950   -1.8370 C.3    60  ILE60       0.1692
     26  C         -8.5250   31.9100   -1.7380 C.2    60  ILE60       0.2593
     27  O         -7.6390   31.0970   -1.4940 O.2    60  ILE60      -0.2718
     28  CB        -7.5110   33.6950   -3.1790 C.3    60  ILE60       0.0266
     29  CG1       -7.1870   35.1840   -3.2780 C.3    60  ILE60       0.0019
     30  CG2       -8.3740   33.2550   -4.3570 C.3    60  ILE60       0.0020
     31  CD1       -6.2380   35.4940   -4.4050 C.3    60  ILE60       0.0001
     32  N         -9.7950   31.5550   -1.9310 N.am   61  SER61      -0.1938
     33  CA       -10.2110   30.1610   -1.8240 C.3    61  SER61       0.2055
     34  C        -10.4230   29.4810   -3.1710 C.2    61  SER61       0.2643
     35  O        -10.3860   28.2670   -3.2430 O.2    61  SER61      -0.2714
     36  CB       -11.5120   30.0460   -1.0190 C.3    61  SER61       0.2130
     37  OG       -11.2900   30.3570    0.3470 O.3    61  SER61      -0.2179
     38  N        -10.6510   30.2540   -4.2280 N.am   62  ASP62      -0.1971
     39  CA       -10.9250   29.6590   -5.5330 C.3    62  ASP62       0.1709
     40  C        -10.5800   30.6260   -6.6550 C.2    62  ASP62       0.2293
     41  O        -10.5350   31.8420   -6.4550 O.2    62  ASP62      -0.2864
     42  CB       -12.4120   29.2470   -5.6290 C.3    62  ASP62       0.1436
     43  CG       -12.6630   28.1430   -6.6460 C.2    62  ASP62       0.3671
     44  OD1      -11.7030   27.6030   -7.2230 O.co2  62  ASP62      -0.2456
     45  OD2      -13.8510   27.7740   -6.8450 O.co2  62  ASP62      -0.2456
     46  N        -16.2410   31.3260   -1.2010 N.3   103  PHE103     -0.1227
     47  CA       -15.4970   30.0560   -1.1770 C.3   103  PHE103      0.1736
     48  C        -15.2800   29.4060   -2.5410 C.2   103  PHE103      0.2595
     49  O        -14.3220   28.6500   -2.7320 O.2   103  PHE103     -0.2718
     50  CB       -16.2370   29.0770   -0.2700 C.3   103  PHE103      0.0547
     51  CG       -15.4320   27.8710    0.1500 C.ar  103  PHE103     -0.0202
     52  CD1      -14.3510   28.0040    1.0140 C.ar  103  PHE103     -0.0042
     53  CD2      -15.8080   26.5940   -0.2560 C.ar  103  PHE103     -0.0042
     54  CE1      -13.6400   26.8800    1.4330 C.ar  103  PHE103     -0.0003
     55  CE2      -15.1070   25.4740    0.1610 C.ar  103  PHE103     -0.0003
     56  CZ       -14.0260   25.6150    1.0090 C.ar  103  PHE103     -0.0000
     57  N        -16.1600   29.6910   -3.4910 N.am  104  CYS104     -0.1970
     58  CA       -16.1400   28.9970   -4.7710 C.3   104  CYS104      0.1712
     59  C        -16.6330   29.9100   -5.8910 C.2   104  CYS104      0.2296
     60  O        -17.4930   30.7750   -5.6640 O.2   104  CYS104     -0.2864
     61  CB       -17.0110   27.7270   -4.6870 C.3   104  CYS104      0.0983
     62  SG       -18.6810   27.9430   -3.9530 S.3   104  CYS104     -0.0798
     63  N        -19.9090   31.4610    2.5030 N.3   119  PHE119     -0.1241
     64  CA       -20.2370   31.0560    3.8610 C.3   119  PHE119      0.1605
     65  C        -21.5410   31.6900    4.3120 C.2   119  PHE119      0.2264
     66  O        -22.1190   31.2550    5.3010 O.2   119  PHE119     -0.2867
     67  CB       -19.1190   31.4390    4.8390 C.3   119  PHE119      0.0534
     68  CG       -17.9920   30.4450    4.9040 C.ar  119  PHE119     -0.0203
     69  CD1      -17.0220   30.4090    3.9120 C.ar  119  PHE119     -0.0042
     70  CD2      -17.8850   29.5660    5.9720 C.ar  119  PHE119     -0.0042
     71  CE1      -15.9690   29.5050    3.9760 C.ar  119  PHE119     -0.0003
     72  CE2      -16.8380   28.6520    6.0420 C.ar  119  PHE119     -0.0003
     73  CZ       -15.8780   28.6250    5.0430 C.ar  119  PHE119     -0.0000
     74  N        -20.2320   25.0160   -0.5150 N.3   145  SER145     -0.1202
     75  CA       -18.8810   24.4980   -0.7520 C.3   145  SER145      0.2020
     76  C        -18.4570   24.5190   -2.2150 C.2   145  SER145      0.2618
     77  O        -17.2580   24.5230   -2.5010 O.2   145  SER145     -0.2717
     78  CB       -18.7650   23.0700   -0.2240 C.3   145  SER145      0.2103
     79  OG       -19.8260   22.2680   -0.7180 O.3   145  SER145     -0.2182
     80  N        -19.4090   24.5100   -3.1450 N.am  146  ALA146     -0.1979
     81  CA       -19.0640   24.5190   -4.5650 C.3   146  ALA146      0.1597
     82  C        -20.2030   25.0120   -5.4420 C.2   146  ALA146      0.2287
     83  O        -21.3800   24.8720   -5.0810 O.2   146  ALA146     -0.2864
     84  CB       -18.6260   23.1270   -5.0220 C.3   146  ALA146      0.0319
     85  N        -22.6240   22.1640    3.1750 N.3   161  TYR161     -0.1241
     86  CA       -22.5270   21.4220    4.4130 C.3   161  TYR161      0.1605
     87  C        -23.9030   21.0190    4.9640 C.2   161  TYR161      0.2264
     88  O        -23.9920   20.2130    5.8910 O.2   161  TYR161     -0.2867
     89  CB       -21.7670   22.2570    5.4420 C.3   161  TYR161      0.0534
     90  CG       -20.2690   22.0990    5.3540 C.ar  161  TYR161     -0.0201
     91  CD1      -19.5630   22.5610    4.2570 C.ar  161  TYR161     -0.0009
     92  CD2      -19.5720   21.4720    6.3710 C.ar  161  TYR161     -0.0009
     93  CE1      -18.1770   22.4040    4.1790 C.ar  161  TYR161      0.0417
     94  CE2      -18.1910   21.3160    6.3070 C.ar  161  TYR161      0.0417
     95  CZ       -17.5100   21.7720    5.2090 C.ar  161  TYR161      0.1957
     96  OH       -16.1390   21.6030    5.1660 O.3   161  TYR161     -0.2866
     97  N        -19.0730   18.4550    0.1850 N.3   188  SER188     -0.1202
     98  CA       -17.9050   19.3230    0.1930 C.3   188  SER188      0.2020
     99  C        -17.4480   19.7420   -1.1920 C.2   188  SER188      0.2618
    100  O        -16.5730   20.5910   -1.3240 O.2   188  SER188     -0.2717
    101  CB       -16.7560   18.6210    0.9100 C.3   188  SER188      0.2103
    102  OG       -16.5930   17.3090    0.4020 O.3   188  SER188     -0.2182
    103  N        -18.0120   19.1310   -2.2240 N.am  189  PHE189     -0.1975
    104  CA       -17.7000   19.5020   -3.5990 C.3   189  PHE189      0.1639
    105  C        -18.7260   18.9150   -4.5570 C.2   189  PHE189      0.2290
    106  O        -19.2480   17.8310   -4.3100 O.2   189  PHE189     -0.2864
    107  CB       -16.3020   19.0160   -4.0020 C.3   189  PHE189      0.0560
    108  CG       -15.9180   19.4070   -5.3990 C.ar  189  PHE189     -0.0200
    109  CD1      -15.4970   20.7010   -5.6710 C.ar  189  PHE189     -0.0042
    110  CD2      -16.0180   18.5000   -6.4480 C.ar  189  PHE189     -0.0042
    111  CE1      -15.1670   21.0850   -6.9690 C.ar  189  PHE189     -0.0003
    112  CE2      -15.6960   18.8720   -7.7410 C.ar  189  PHE189     -0.0003
    113  CZ       -15.2620   20.1640   -7.9990 C.ar  189  PHE189     -0.0000
    114  N        -12.7220   16.2810    6.5070 N.3   229  LYS229     -0.1231
    115  CA       -12.5800   17.6150    7.0800 C.3   229  LYS229      0.1693
    116  C        -12.5550   18.7500    6.0560 C.2   229  LYS229      0.2592
    117  O        -13.0930   19.8290    6.3110 O.2   229  LYS229     -0.2718
    118  CB       -11.3050   17.6920    7.9310 C.3   229  LYS229      0.0285
    119  CG       -11.2040   18.9930    8.7170 C.3   229  LYS229      0.0035
    120  CD        -9.8150   19.2390    9.2820 C.3   229  LYS229      0.0206
    121  CE        -9.7430   20.6250    9.9150 C.3   229  LYS229      0.1093
    122  NZ        -8.3400   21.0770   10.1360 N.3   229  LYS229     -0.1314
    123  N        -11.9200   18.5190    4.9120 N.am  230  TYR230     -0.1962
    124  CA       -11.6970   19.5910    3.9510 C.3   230  TYR230      0.1771
    125  C        -12.5070   19.4630    2.6730 C.2   230  TYR230      0.2619
    126  O        -12.8870   18.3670    2.2510 O.2   230  TYR230     -0.2715
    127  CB       -10.2100   19.6540    3.5770 C.3   230  TYR230      0.0574
    128  CG        -9.2910   20.0040    4.7220 C.ar  230  TYR230     -0.0198
    129  CD1       -9.1940   21.3080    5.1750 C.ar  230  TYR230     -0.0009
    130  CD2       -8.5190   19.0310    5.3450 C.ar  230  TYR230     -0.0009
    131  CE1       -8.3560   21.6440    6.2150 C.ar  230  TYR230      0.0417
    132  CE2       -7.6750   19.3560    6.3870 C.ar  230  TYR230      0.0417
    133  CZ        -7.5990   20.6650    6.8190 C.ar  230  TYR230      0.1957
    134  OH        -6.7650   20.9940    7.8600 O.3   230  TYR230     -0.2866
    135  N        -12.7660   20.6040    2.0490 N.am  231  CYS231     -0.1968
    136  CA       -13.4740   20.6190    0.7770 C.3   231  CYS231      0.1712
    137  C        -12.4460   20.4760   -0.3300 C.2   231  CYS231      0.2296
    138  O        -11.7560   21.4290   -0.6800 O.2   231  CYS231     -0.2864
    139  CB       -14.2840   21.9000    0.6170 C.3   231  CYS231      0.0983
    140  SG       -15.6290   22.0500    1.8160 S.3   231  CYS231     -0.0798
    141  N        -11.2800   19.5170   -4.1860 N.3   233  PHE233     -0.1241
    142  CA       -11.7180   19.4860   -5.5750 C.3   233  PHE233      0.1605
    143  C        -11.5920   18.0790   -6.1550 C.2   233  PHE233      0.2264
    144  O        -10.6500   17.3570   -5.8480 O.2   233  PHE233     -0.2867
    145  CB       -10.8960   20.4490   -6.4340 C.3   233  PHE233      0.0534
    146  CG       -11.1070   21.9120   -6.1270 C.ar  233  PHE233     -0.0203
    147  CD1      -10.4500   22.5180   -5.0600 C.ar  233  PHE233     -0.0042
    148  CD2      -11.9030   22.6990   -6.9520 C.ar  233  PHE233     -0.0042
    149  CE1      -10.6160   23.8820   -4.8050 C.ar  233  PHE233     -0.0003
    150  CE2      -12.0760   24.0560   -6.7110 C.ar  233  PHE233     -0.0003
    151  CZ       -11.4380   24.6520   -5.6370 C.ar  233  PHE233     -0.0000
    152  N         -5.5380   19.4800   -1.5260 N.3   275  ILE275     -0.1245
    153  CA        -6.8360   20.1590   -1.5070 C.3   275  ILE275      0.1561
    154  C         -7.4100   20.3340   -2.9070 C.2   275  ILE275      0.2260
    155  O         -8.6280   20.4210   -3.0750 O.2   275  ILE275     -0.2867
    156  CB        -6.7240   21.5460   -0.8210 C.3   275  ILE275      0.0252
    157  CG1       -8.1090   22.0680   -0.3770 C.3   275  ILE275      0.0019
    158  CG2       -5.9600   22.5440   -1.7110 C.3   275  ILE275      0.0019
    159  CD1       -8.7030   21.2430    0.7640 C.3   275  ILE275      0.0001
    160  N         -1.9330   21.9060    1.1770 N.3   291  LEU291     -0.1245
    161  CA        -2.1810   22.9000    2.2120 C.3   291  LEU291      0.1561
    162  C         -0.8880   23.3840    2.8750 C.2   291  LEU291      0.2260
    163  O          0.1950   23.1960    2.3250 O.2   291  LEU291     -0.2867
    164  CB        -3.1560   22.3370    3.2560 C.3   291  LEU291      0.0270
    165  CG        -4.5600   22.1010    2.6890 C.3   291  LEU291      0.0019
    166  CD1       -5.5020   21.5760    3.7770 C.3   291  LEU291      0.0001
    167  CD2       -5.1400   23.3800    2.0620 C.3   291  LEU291      0.0001
@<TRIPOS>BOND
     1   113   112   ar
     2   113   111   ar
     3   112   110   ar
     4    44    43   ar
     5   111   109   ar
     6   148   150   ar
     7   148   146   ar
     8    45    43   ar
     9   150   151   ar
    10    40    41    2
    11    40    39    1
    12    43    42    1
    13   110   108   ar
    14   145   146    1
    15   145   142    1
    16   143   144    2
    17   143   142    1
    18   146   147   ar
    19    59    60    2
    20    59    58    1
    21   109   108   ar
    22   151   149   ar
    23    42    39    1
    24   142   141    1
    25    39    38    1
    26    82    83    2
    27    82    81    1
    28   108   107    1
    29   147   149   ar
    30    84    81    1
    31    58    61    1
    32    58    57    1
    33    61    62    1
    34    81    80    1
    35   105   106    2
    36   105   104    1
    37    31    29    1
    38    11    10    1
    39    30    28    1
    40    38    34   am
    41   107   104    1
    42   104   103    1
    43    15    16    2
    44    15    14    1
    45    57    48   am
    46    29    28    1
    47    35    34    2
    48    28    25    1
    49    34    33    1
    50    80    76   am
    51   155   154    2
    52    18    17    1
    53    10    12    1
    54    10     7    1
    55   154   153    1
    56    49    48    2
    57    48    47    1
    58    77    76    2
    59    13    14    1
    60    13     8   am
    61    14    17    1
    62   103    99   am
    63    76    75    1
    64    32    33    1
    65    32    26   am
    66     7     8    1
    67     7     6    1
    68    25    26    1
    69    25    24    1
    70    33    36    1
    71    26    27    2
    72     8     9    2
    73   158   156    1
    74   152   153    1
    75   153   156    1
    76   100    99    2
    77    46    47    1
    78    99    98    1
    79    47    50    1
    80    36    37    1
    81   156   157    1
    82    75    74    1
    83    75    78    1
    84    79    78    1
    85   138   137    2
    86     6     3   am
    87   157   159    1
    88   137   136    1
    89    50    51    1
    90    53    51   ar
    91    53    55   ar
    92    51    52   ar
    93     4     3    2
    94    55    56   ar
    95    97    98    1
    96    98   101    1
    97    19    20    1
    98     3     2    1
    99   102   101    1
   100   139   136    1
   101   139   140    1
   102   136   135    1
   103    56    54   ar
   104    52    54   ar
   105   160   161    1
   106    20    21    1
   107    20    23    1
   108    21    22    2
   109     2     1    1
   110     2     5    1
   111   135   125   am
   112   167   165    1
   113   161   162    1
   114   161   164    1
   115   126   125    2
   116   163   162    2
   117    63    64    1
   118   125   124    1
   119   165   164    1
   120   165   166    1
   121    85    86    1
   122   127   124    1
   123   127   128    1
   124    64    65    1
   125    64    67    1
   126    69    71   ar
   127    69    68   ar
   128   124   123    1
   129    71    73   ar
   130    93    91   ar
   131    93    95   ar
   132    91    90   ar
   133    65    66    2
   134    86    87    1
   135    86    89    1
   136   128   129   ar
   137   128   130   ar
   138    67    68    1
   139    68    70   ar
   140   123   116   am
   141    87    88    2
   142    73    72   ar
   143    96    95    1
   144   129   131   ar
   145    95    94   ar
   146   130   132   ar
   147    90    89    1
   148    90    92   ar
   149    70    72   ar
   150   116   117    2
   151   116   115    1
   152   131   133   ar
   153    94    92   ar
   154   132   133   ar
   155   114   115    1
   156   133   134    1
   157   115   118    1
   158   118   119    1
   159   119   120    1
   160   120   121    1
   161   121   122    1
