@<TRIPOS>MOLECULE
tmp/6damA00.pdb
 203 194 0 0 0
SMALL
GASTEIGER

@<TRIPOS>ATOM
      1  N          2.8260  116.9040   35.0670 N.3    55  GLU55      -0.1245
      2  CA         3.0530  116.2490   33.7870 C.3    55  GLU55       0.1567
      3  C          4.4720  115.6650   33.7370 C.2    55  GLU55       0.2260
      4  O          5.2720  115.8000   34.6790 O.2    55  GLU55      -0.2867
      5  CB         2.7810  117.2280   32.6290 C.3    55  GLU55       0.0388
      6  CG         1.2970  117.6060   32.5230 C.3    55  GLU55       0.1160
      7  CD         0.9240  118.4750   31.3200 C.2    55  GLU55       0.3649
      8  OE1       -0.2760  118.8360   31.2030 O.co2  55  GLU55      -0.2457
      9  OE2        1.7950  118.7930   30.4940 O.co2  55  GLU55      -0.2457
     10  N         -1.0380  129.6660   29.8500 N.3   103  CYS103     -0.1221
     11  CA        -2.3590  129.3900   29.3590 C.3   103  CYS103      0.1808
     12  C         -3.1220  128.2220   29.9150 C.2   103  CYS103      0.2601
     13  O         -4.3220  128.2710   29.9830 O.2   103  CYS103     -0.2717
     14  CB        -2.2930  129.1140   27.8530 C.3   103  CYS103      0.0970
     15  SG        -1.7150  127.4440   27.4220 S.3   103  CYS103     -0.0800
     16  N         -2.4070  127.2310   30.3940 N.am  104  CYS104     -0.1970
     17  CA        -3.0030  125.9100   30.5670 C.3   104  CYS104      0.1712
     18  C         -2.3550  125.1810   31.7410 C.2   104  CYS104      0.2296
     19  O         -1.8680  124.0570   31.6080 O.2   104  CYS104     -0.2864
     20  CB        -2.8610  125.1220   29.2620 C.3   104  CYS104      0.0983
     21  SG        -3.2870  126.0810   27.7330 S.3   104  CYS104     -0.0798
     22  N          2.2340  123.5900   34.5440 N.3   107  VAL107     -0.1245
     23  CA         2.8770  122.3210   34.3130 C.3   107  VAL107      0.1561
     24  C          4.2880  122.3870   33.7290 C.2   107  VAL107      0.2260
     25  O          4.6580  123.3370   33.1730 O.2   107  VAL107     -0.2867
     26  CB         2.0080  121.4820   33.3910 C.3   107  VAL107      0.0252
     27  CG1        0.6500  121.1680   33.9870 C.3   107  VAL107      0.0019
     28  CG2        1.8970  122.1230   32.0430 C.3   107  VAL107      0.0019
     29  N          6.8770  119.5110   31.6390 N.3   109  ARG109     -0.1245
     30  CA         6.9470  118.2010   31.0460 C.3   109  ARG109      0.1563
     31  C          8.1610  117.3470   31.3540 C.2   109  ARG109      0.2260
     32  O          8.2600  116.2570   30.9140 O.2   109  ARG109     -0.2867
     33  CB         6.5350  118.1900   29.5650 C.3   109  ARG109      0.0307
     34  CG         5.0840  118.5870   29.3980 C.3   109  ARG109      0.0489
     35  CD         4.4620  118.5180   28.0060 C.3   109  ARG109      0.2205
     36  NE         3.2660  119.2560   28.2140 N.pl3 109  ARG109     -0.0865
     37  CZ         3.1850  120.5600   28.1230 C.cat 109  ARG109      0.5346
     38  NH1        4.1790  121.2190   27.6290 N.pl3 109  ARG109      0.1354
     39  NH2        2.0930  121.1660   28.4790 N.pl3 109  ARG109      0.1354
     40  N          6.2180  131.5890   27.7110 N.3   151  THR151     -0.1218
     41  CA         6.4820  130.6930   28.8300 C.3   151  THR151      0.1862
     42  C          7.1020  129.4210   28.2760 C.2   151  THR151      0.2287
     43  O          7.2090  129.2310   27.0590 O.2   151  THR151     -0.2866
     44  CB         5.2050  130.3590   29.6200 C.3   151  THR151      0.1770
     45  OG1        4.2240  129.7840   28.7380 O.3   151  THR151     -0.2211
     46  CG2        4.6280  131.6060   30.2590 C.3   151  THR151      0.0375
     47  N          6.7320  125.1600   29.0790 N.3   153  THR153     -0.1218
     48  CA         6.1480  124.0470   29.7990 C.3   153  THR153      0.1862
     49  C          6.7230  122.7060   29.3660 C.2   153  THR153      0.2287
     50  O          6.4370  121.6950   30.0140 O.2   153  THR153     -0.2866
     51  CB         4.6250  124.0300   29.6040 C.3   153  THR153      0.1770
     52  OG1        4.3260  124.0030   28.1990 O.3   153  THR153     -0.2211
     53  CG2        3.9990  125.2670   30.2210 C.3   153  THR153      0.0375
     54  N          6.3070  128.3330   24.5290 N.3   168  SER168     -0.1202
     55  CA         4.8460  128.3620   24.5450 C.3   168  SER168      0.2020
     56  C          4.3500  129.7930   24.4130 C.2   168  SER168      0.2619
     57  O          5.0520  130.7480   24.7520 O.2   168  SER168     -0.2717
     58  CB         4.2620  127.7710   25.8410 C.3   168  SER168      0.2103
     59  OG         4.5720  126.3980   25.9460 O.3   168  SER168     -0.2182
     60  N          3.1110  129.9330   23.9420 N.am  169  GLY169     -0.1942
     61  CA         2.5110  131.2470   23.8110 C.3   169  GLY169      0.2014
     62  C          1.6490  131.4390   22.5760 C.2   169  GLY169      0.2639
     63  O          1.4630  132.5710   22.1210 O.2   169  GLY169     -0.2714
     64  N          1.1190  130.3450   22.0270 N.am  170  GLY170     -0.1939
     65  CA         0.2150  130.4270   20.8820 C.3   170  GLY170      0.2014
     66  C         -1.1270  131.0610   21.1870 C.2   170  GLY170      0.2638
     67  O         -1.8790  131.3710   20.2530 O.2   170  GLY170     -0.2714
     68  N         -1.4450  131.2600   22.4630 N.am  171  GLU171     -0.1977
     69  CA        -2.6180  132.0300   22.8520 C.3   171  GLU171      0.1602
     70  C         -2.2440  133.4480   23.2800 C.2   171  GLU171      0.2287
     71  O         -3.1150  134.2050   23.7220 O.2   171  GLU171     -0.2864
     72  CB        -3.3840  131.3030   23.9690 C.3   171  GLU171      0.0415
     73  CG        -4.3230  130.1840   23.4690 C.3   171  GLU171      0.1163
     74  CD        -3.5770  129.0170   22.8150 C.2   171  GLU171      0.3649
     75  OE1       -3.6000  128.9050   21.5640 O.co2 171  GLU171     -0.2457
     76  OE2       -2.9810  128.1980   23.5550 O.co2 171  GLU171     -0.2457
     77  N          3.9940  127.6450   18.0670 N.3   239  THR239     -0.1218
     78  CA         4.8830  127.3890   19.1900 C.3   239  THR239      0.1862
     79  C          5.1950  125.8930   19.2640 C.2   239  THR239      0.2287
     80  O          4.6960  125.0800   18.4750 O.2   239  THR239     -0.2866
     81  CB         4.2750  127.9160   20.5010 C.3   239  THR239      0.1770
     82  OG1        3.0070  127.2910   20.7390 O.3   239  THR239     -0.2211
     83  CG2        4.0650  129.4290   20.4370 C.3   239  THR239      0.0375
     84  N          5.6710  123.4100   22.1510 N.3   241  TRP241     -0.1241
     85  CA         5.5580  122.9780   23.5330 C.3   241  TRP241      0.1605
     86  C          5.3260  121.4790   23.6590 C.2   241  TRP241      0.2264
     87  O          5.0030  121.0040   24.7580 O.2   241  TRP241     -0.2867
     88  CB         4.4430  123.7630   24.2360 C.3   241  TRP241      0.0550
     89  CG         3.1070  123.6830   23.5460 C.ar  241  TRP241      0.0003
     90  CD1        2.6930  124.4110   22.4670 C.ar  241  TRP241      0.0946
     91  CD2        2.0010  122.8360   23.9070 C.ar  241  TRP241      0.0152
     92  NE1        1.4120  124.0500   22.1130 N.ar  241  TRP241     -0.2442
     93  CE2        0.9590  123.0940   22.9860 C.ar  241  TRP241      0.0810
     94  CE3        1.7950  121.8790   24.9080 C.ar  241  TRP241      0.0012
     95  CZ2       -0.2730  122.4290   23.0340 C.ar  241  TRP241      0.0191
     96  CZ3        0.5560  121.2220   24.9630 C.ar  241  TRP241      0.0001
     97  CH2       -0.4580  121.5020   24.0230 C.ar  241  TRP241      0.0015
     98  N         -0.6050  126.3200   17.0120 N.3   259  ASN259     -0.1240
     99  CA        -1.6250  127.0580   16.2890 C.3   259  ASN259      0.1653
    100  C         -1.1080  128.4210   15.8430 C.2   259  ASN259      0.2266
    101  O         -0.2320  129.0070   16.4940 O.2   259  ASN259     -0.2867
    102  CB        -2.8520  127.2530   17.1680 C.3   259  ASN259      0.1155
    103  CG        -2.5410  128.0660   18.4050 C.2   259  ASN259      0.2627
    104  OD1       -1.8590  127.5880   19.3160 O.2   259  ASN259     -0.2716
    105  ND2       -3.0170  129.3050   18.4400 N.am  259  ASN259     -0.0877
    106  N         -7.3870  132.7750   17.5620 N.3   263  TRP263     -0.1241
    107  CA        -8.3590  131.7190   17.3160 C.3   263  TRP263      0.1605
    108  C         -9.4650  132.1540   16.3730 C.2   263  TRP263      0.2264
    109  O        -10.4020  131.3820   16.1470 O.2   263  TRP263     -0.2867
    110  CB        -8.9950  131.2560   18.6280 C.3   263  TRP263      0.0550
    111  CG        -8.0760  130.5240   19.5470 C.ar  263  TRP263      0.0003
    112  CD1       -6.7130  130.5710   19.5620 C.ar  263  TRP263      0.0946
    113  CD2       -8.4610  129.6410   20.6060 C.ar  263  TRP263      0.0152
    114  NE1       -6.2230  129.7670   20.5600 N.ar  263  TRP263     -0.2442
    115  CE2       -7.2750  129.1910   21.2250 C.ar  263  TRP263      0.0810
    116  CE3       -9.6920  129.1960   21.0970 C.ar  263  TRP263      0.0012
    117  CZ2       -7.2820  128.3040   22.3040 C.ar  263  TRP263      0.0191
    118  CZ3       -9.7010  128.3170   22.1760 C.ar  263  TRP263      0.0001
    119  CH2       -8.4980  127.8730   22.7600 C.ar  263  TRP263      0.0015
    120  N         -7.7100  125.7800   16.8670 N.3   301  ASP301     -0.1239
    121  CA        -6.6050  125.5860   17.8300 C.3   301  ASP301      0.1674
    122  C         -6.1790  124.1160   17.9570 C.2   301  ASP301      0.2266
    123  O         -5.9020  123.6240   19.0560 O.2   301  ASP301     -0.2867
    124  CB        -6.9270  126.1640   19.2160 C.3   301  ASP301      0.1410
    125  CG        -5.6930  126.2320   20.1150 C.2   301  ASP301      0.3668
    126  OD1       -4.6660  126.7550   19.6500 O.co2 301  ASP301     -0.2456
    127  OD2       -5.7170  125.7400   21.2660 O.co2 301  ASP301     -0.2456
    128  N         -3.4020  122.5000   17.8380 N.3   303  ASP303     -0.1239
    129  CA        -1.9350  122.5850   17.8770 C.3   303  ASP303      0.1674
    130  C         -1.2790  121.3190   17.3390 C.2   303  ASP303      0.2266
    131  O         -1.5980  120.2080   17.7750 O.2   303  ASP303     -0.2867
    132  CB        -1.4410  122.8050   19.3140 C.3   303  ASP303      0.1410
    133  CG        -1.7800  124.1740   19.8710 C.2   303  ASP303      0.3668
    134  OD1       -2.9710  124.5370   19.9030 O.co2 303  ASP303     -0.2456
    135  OD2       -0.8470  124.8780   20.3230 O.co2 303  ASP303     -0.2456
    136  N         -3.6090  116.6640   17.4000 N.3   328  ARG328     -0.1245
    137  CA        -4.7950  117.2580   18.0080 C.3   328  ARG328      0.1563
    138  C         -5.9970  117.2070   17.0820 C.2   328  ARG328      0.2260
    139  O         -7.1260  117.0370   17.5490 O.2   328  ARG328     -0.2867
    140  CB        -4.5100  118.7060   18.4020 C.3   328  ARG328      0.0307
    141  CG        -3.6270  118.8140   19.6500 C.3   328  ARG328      0.0489
    142  CD        -4.4930  118.9600   20.8790 C.3   328  ARG328      0.2205
    143  NE        -5.0710  120.2990   20.9620 N.pl3 328  ARG328     -0.0865
    144  CZ        -4.4610  121.3190   21.5570 C.cat 328  ARG328      0.5346
    145  NH1       -3.2600  121.1360   22.0990 N.pl3 328  ARG328      0.1354
    146  NH2       -5.0370  122.5160   21.6040 N.pl3 328  ARG328      0.1354
    147  N         -9.1100  121.0740   22.4870 N.3   390  LEU390     -0.1245
    148  CA        -8.0850  120.3040   23.1820 C.3   390  LEU390      0.1561
    149  C         -7.7570  118.9910   22.4840 C.2   390  LEU390      0.2260
    150  O         -6.8830  118.2630   22.9800 O.2   390  LEU390     -0.2867
    151  CB        -8.4900  120.0520   24.6430 C.3   390  LEU390      0.0270
    152  CG        -9.8660  119.5190   25.0280 C.3   390  LEU390      0.0019
    153  CD1      -10.0460  118.0560   24.6360 C.3   390  LEU390      0.0001
    154  CD2      -10.0520  119.6960   26.5330 C.3   390  LEU390      0.0001
    155  N         -4.1400  115.2000   23.3270 N.3   394  ASN394     -0.1225
    156  CA        -3.3910  116.3870   23.7110 C.3   394  ASN394      0.1785
    157  C         -1.9430  115.9950   24.0030 C.2   394  ASN394      0.2597
    158  O         -1.4130  115.0880   23.3540 O.2   394  ASN394     -0.2718
    159  CB        -4.0580  117.0770   24.9020 C.3   394  ASN394      0.1169
    160  CG        -3.7290  118.5610   24.9790 C.2   394  ASN394      0.2627
    161  OD1       -2.6230  118.9400   25.3780 O.2   394  ASN394     -0.2716
    162  ND2       -4.6790  119.4020   24.6060 N.am  394  ASN394     -0.0877
    163  N         -1.3000  116.6520   24.9780 N.am  395  GLN395     -0.1979
    164  CA         0.1390  116.4620   25.1940 C.3   395  GLN395      0.1601
    165  C          0.5090  115.0100   25.4940 C.2   395  GLN395      0.2287
    166  O          1.6150  114.5770   25.1480 O.2   395  GLN395     -0.2864
    167  CB         0.6260  117.3520   26.3480 C.3   395  GLN395      0.0394
    168  CG        -0.1030  117.1390   27.6840 C.3   395  GLN395      0.0908
    169  CD         0.5650  116.0950   28.5760 C.2   395  GLN395      0.2608
    170  OE1        1.7980  115.9060   28.5360 O.2   395  GLN395     -0.2717
    171  NE2       -0.2430  115.4120   29.3940 N.am  395  GLN395     -0.0878
    172  N         -5.3940  111.6410   29.9740 N.3   480  TRP480     -0.1241
    173  CA        -4.3460  112.6430   29.9380 C.3   480  TRP480      0.1605
    174  C         -2.8780  112.2470   30.3420 C.2   480  TRP480      0.2264
    175  O         -2.0650  113.0720   30.6180 O.2   480  TRP480     -0.2867
    176  CB        -4.8150  113.8860   30.7150 C.3   480  TRP480      0.0550
    177  CG        -4.5060  115.1850   30.1520 C.ar  480  TRP480      0.0003
    178  CD1       -3.4770  115.9770   30.4780 C.ar  480  TRP480      0.0946
    179  CD2       -5.2690  115.9150   29.1870 C.ar  480  TRP480      0.0152
    180  NE1       -3.5270  117.1550   29.7920 N.ar  480  TRP480     -0.2442
    181  CE2       -4.6140  117.1300   28.9740 C.ar  480  TRP480      0.0810
    182  CE3       -6.4550  115.6660   28.4900 C.ar  480  TRP480      0.0012
    183  CZ2       -5.0860  118.0600   28.0690 C.ar  480  TRP480      0.0191
    184  CZ3       -6.9000  116.5920   27.6070 C.ar  480  TRP480      0.0001
    185  CH2       -6.2220  117.7590   27.4030 C.ar  480  TRP480      0.0015
    186  N         -3.3290  120.8110   34.1370 N.3   543  GLY543     -0.1210
    187  CA        -3.3010  120.9590   32.6820 C.3   543  GLY543      0.1956
    188  C         -4.6740  121.2970   32.1250 C.2   543  GLY543      0.2611
    189  O         -5.5120  121.9050   32.8010 O.2   543  GLY543     -0.2717
    190  N         -4.9060  120.8500   30.8790 N.am  544  TRP544     -0.1976
    191  CA        -6.0570  121.1200   29.9790 C.3   544  TRP544      0.1640
    192  C         -5.9920  122.4970   29.3390 C.2   544  TRP544      0.2290
    193  O         -6.8710  122.8620   28.5560 O.2   544  TRP544     -0.2864
    194  CB        -7.4150  120.9820   30.6600 C.3   544  TRP544      0.0576
    195  CG        -7.5090  119.8910   31.6090 C.ar  544  TRP544      0.0006
    196  CD1       -7.2750  118.5630   31.3730 C.ar  544  TRP544      0.0946
    197  CD2       -7.8770  120.0050   32.9930 C.ar  544  TRP544      0.0152
    198  NE1       -7.4690  117.8440   32.5330 N.ar  544  TRP544     -0.2442
    199  CE2       -7.8430  118.7080   33.5390 C.ar  544  TRP544      0.0810
    200  CE3       -8.2250  121.0850   33.8230 C.ar  544  TRP544      0.0012
    201  CZ2       -8.1430  118.4600   34.8790 C.ar  544  TRP544      0.0191
    202  CZ3       -8.5190  120.8390   35.1530 C.ar  544  TRP544      0.0001
    203  CH2       -8.4760  119.5380   35.6700 C.ar  544  TRP544      0.0015
@<TRIPOS>BOND
     1   100    99    1
     2   100   101    2
     3   109   108    2
     4    99    98    1
     5    99   102    1
     6   108   107    1
     7   120   121    1
     8   138   139    2
     9   138   137    1
    10   102   103    1
    11   107   106    1
    12   107   110    1
    13   130   131    2
    14   130   129    1
    15   136   137    1
    16   121   122    1
    17   121   124    1
    18   128   129    1
    19   129   132    1
    20   122   123    2
    21   137   140    1
    22    77    78    1
    23   140   141    1
    24   103   105   am
    25   103   104    2
    26    80    79    2
    27   110   111    1
    28    78    79    1
    29    78    81    1
    30   124   125    1
    31   132   133    1
    32   111   112   ar
    33   111   113   ar
    34   112   114   ar
    35   126   125   ar
    36   141   142    1
    37   133   134   ar
    38   133   135   ar
    39   125   127   ar
    40    67    66    2
    41    83    81    1
    42    81    82    1
    43   114   115   ar
    44   113   116   ar
    45   113   115   ar
    46   142   143    1
    47    65    66    1
    48    65    64    1
    49   143   144    2
    50   116   118   ar
    51    66    68   am
    52   115   117   ar
    53   144   146    1
    54   144   145    1
    55    75    74   ar
    56    64    62   am
    57    92    90   ar
    58    92    93   ar
    59    63    62    2
    60    84    85    1
    61   118   119   ar
    62   117   119   ar
    63    68    69    1
    64    90    89   ar
    65   149   150    2
    66   149   148    1
    67   147   148    1
    68    62    61    1
    69    74    73    1
    70    74    76   ar
    71    69    70    1
    72    69    72    1
    73    93    95   ar
    74    93    91   ar
    75    95    97   ar
    76   148   151    1
    77    70    71    2
    78   155   156    1
    79   158   157    2
    80    73    72    1
    81    85    86    1
    82    85    88    1
    83    89    91   ar
    84    89    88    1
    85    86    87    2
    86   156   157    1
    87   156   159    1
    88    61    60    1
    89    91    94   ar
    90    60    56   am
    91   157   163   am
    92    97    96   ar
    93    56    55    1
    94    56    57    2
    95    54    55    1
    96    55    58    1
    97   162   160   am
    98   153   152    1
    99   151   152    1
   100   159   160    1
   101    94    96   ar
   102   163   164    1
   103   160   161    2
   104   152   154    1
   105   166   165    2
   106   164   165    1
   107   164   167    1
   108    58    59    1
   109   167   168    1
   110    43    42    2
   111   185   184   ar
   112   185   183   ar
   113    15    21    1
   114    15    14    1
   115   184   182   ar
   116    38    37    1
   117   168   169    1
   118    40    41    1
   119    21    20    1
   120    14    11    1
   121    35    36    1
   122    35    34    1
   123   183   181   ar
   124    37    36    2
   125    37    39    1
   126    52    51    1
   127    42    41    1
   128   182   179   ar
   129   170   169    2
   130   193   192    2
   131   169   171   am
   132    45    44    1
   133    41    44    1
   134   181   179   ar
   135   181   180   ar
   136    47    48    1
   137   179   177   ar
   138    20    17    1
   139   192   191    1
   140    11    10    1
   141    11    12    1
   142    49    48    1
   143    49    50    2
   144    34    33    1
   145    33    30    1
   146    51    48    1
   147    51    53    1
   148    44    46    1
   149   180   178   ar
   150    12    13    2
   151    12    16   am
   152   173   172    1
   153   173   174    1
   154   173   176    1
   155   191   194    1
   156   191   190    1
   157   177   178   ar
   158   177   176    1
   159   174   175    2
   160    16    17    1
   161     9     7   ar
   162    17    18    1
   163   194   195    1
   164   190   188   am
   165    32    31    2
   166    30    31    1
   167    30    29    1
   168     8     7   ar
   169     7     6    1
   170   196   195   ar
   171   196   198   ar
   172    19    18    2
   173   195   197   ar
   174    28    26    1
   175   188   187    1
   176   188   189    2
   177     6     5    1
   178   198   199   ar
   179     5     2    1
   180   187   186    1
   181   197   199   ar
   182   197   200   ar
   183    25    24    2
   184    26    27    1
   185    26    23    1
   186   199   201   ar
   187    24    23    1
   188     3     2    1
   189     3     4    2
   190     2     1    1
   191   200   202   ar
   192    23    22    1
   193   201   203   ar
   194   202   203   ar
