@<TRIPOS>MOLECULE
tmp/6darA00.pdb
 181 176 0 0 0
SMALL
GASTEIGER

@<TRIPOS>ATOM
      1  N         24.4210   27.4260   17.1000 N.3    17  ALA17      -0.1231
      2  CA        23.4180   26.7310   16.2820 C.3    17  ALA17       0.1694
      3  C         23.8790   25.3360   15.8840 C.2    17  ALA17       0.2592
      4  O         25.0360   25.1410   15.5340 O.2    17  ALA17      -0.2718
      5  CB        23.1000   27.5470   15.0220 C.3    17  ALA17       0.0304
      6  N         22.9750   24.3670   15.9530 N.am   18  VAL18      -0.1966
      7  CA        23.2430   23.0370   15.4200 C.3    18  VAL18       0.1727
      8  C         23.0700   23.1290   13.9060 C.2    18  VAL18       0.2616
      9  O         22.2660   23.9280   13.4260 O.2    18  VAL18      -0.2715
     10  CB        22.3120   21.9750   16.0310 C.3    18  VAL18       0.0290
     11  CG1       22.8160   20.5740   15.6920 C.3    18  VAL18       0.0023
     12  CG2       22.2380   22.1590   17.5510 C.3    18  VAL18       0.0023
     13  N         23.8220   22.3270   13.1600 N.am   19  SER19      -0.1950
     14  CA        23.7940   22.4100   11.7020 C.3    19  SER19       0.1924
     15  C         23.1800   21.1730   11.0530 C.2    19  SER19       0.2314
     16  O         22.3650   21.2820   10.1360 O.2    19  SER19      -0.2863
     17  CB        25.2070   22.6220   11.1580 C.3    19  SER19       0.2116
     18  OG        26.0210   21.4890   11.3920 O.3    19  SER19      -0.2180
     19  N         27.7520   25.0310   14.2260 N.3    35  ALA35      -0.1245
     20  CA        28.5300   26.2430   14.0290 C.3    35  ALA35       0.1562
     21  C         29.5890   26.4290   15.1230 C.2    35  ALA35       0.2260
     22  O         30.4790   27.2570   14.9700 O.2    35  ALA35      -0.2867
     23  CB        27.6170   27.4570   13.9780 C.3    35  ALA35       0.0290
     24  N         30.9830   23.9650   11.3410 N.3    60  ILE60      -0.1231
     25  CA        30.6740   22.8250   10.4920 C.3    60  ILE60       0.1692
     26  C         29.2210   22.9180   10.0300 C.2    60  ILE60       0.2593
     27  O         28.3260   23.1220   10.8510 O.2    60  ILE60      -0.2718
     28  CB        30.8810   21.4850   11.2340 C.3    60  ILE60       0.0266
     29  CG1       32.3050   21.3780   11.7890 C.3    60  ILE60       0.0019
     30  CG2       30.5790   20.3040   10.3110 C.3    60  ILE60       0.0020
     31  CD1       32.4770   20.2210   12.7690 C.3    60  ILE60       0.0001
     32  N         28.9800   22.7530    8.7320 N.am   61  SER61      -0.1938
     33  CA        27.6200   22.8280    8.2030 C.3    61  SER61       0.2055
     34  C         26.9870   21.4640    7.9260 C.2    61  SER61       0.2643
     35  O         25.7700   21.3660    7.8010 O.2    61  SER61      -0.2714
     36  CB        27.5910   23.6580    6.9150 C.3    61  SER61       0.2130
     37  OG        27.9930   24.9930    7.1660 O.3    61  SER61      -0.2179
     38  N         27.7950   20.4140    7.8130 N.am   62  ASP62      -0.1971
     39  CA        27.2330   19.0950    7.5100 C.3    62  ASP62       0.1709
     40  C         28.1490   17.9840    8.0020 C.2    62  ASP62       0.2293
     41  O         29.3530   18.1850    8.1780 O.2    62  ASP62      -0.2864
     42  CB        26.9760   18.9590    5.9970 C.3    62  ASP62       0.1436
     43  CG        25.8980   17.9130    5.6560 C.2    62  ASP62       0.3671
     44  OD1       25.2580   17.3550    6.5750 O.co2  62  ASP62      -0.2456
     45  OD2       25.6740   17.6570    4.4500 O.co2  62  ASP62      -0.2456
     46  N         29.6610   23.2470    2.3220 N.3   103  PHE103     -0.1227
     47  CA        28.3380   23.3220    2.9350 C.3   103  PHE103      0.1736
     48  C         27.6660   21.9620    3.1050 C.2   103  PHE103      0.2595
     49  O         26.8560   21.7730    4.0190 O.2   103  PHE103     -0.2718
     50  CB        27.4380   24.2350    2.0980 C.3   103  PHE103      0.0547
     51  CG        26.1170   24.5540    2.7380 C.ar  103  PHE103     -0.0202
     52  CD1       26.0520   25.3940    3.8400 C.ar  103  PHE103     -0.0042
     53  CD2       24.9390   24.0460    2.2140 C.ar  103  PHE103     -0.0042
     54  CE1       24.8370   25.7130    4.4190 C.ar  103  PHE103     -0.0003
     55  CE2       23.7140   24.3560    2.7920 C.ar  103  PHE103     -0.0003
     56  CZ        23.6650   25.1990    3.8910 C.ar  103  PHE103     -0.0000
     57  N         27.9920   21.0210    2.2230 N.am  104  CYS104     -0.1970
     58  CA        27.2790   19.7460    2.2160 C.3   104  CYS104      0.1712
     59  C         28.1840   18.5810    1.8560 C.2   104  CYS104      0.2296
     60  O         29.1650   18.7550    1.1260 O.2   104  CYS104     -0.2864
     61  CB        26.0870   19.8090    1.2540 C.3   104  CYS104      0.0983
     62  SG        26.4500   20.4140   -0.4370 S.3   104  CYS104     -0.0798
     63  N         30.2610   26.7880   -1.4300 N.3   119  PHE119     -0.1241
     64  CA        29.8980   28.1380   -1.8490 C.3   119  PHE119      0.1605
     65  C         30.6800   28.5600   -3.0820 C.2   119  PHE119      0.2264
     66  O         30.3470   29.5580   -3.7160 O.2   119  PHE119     -0.2867
     67  CB        30.1400   29.1450   -0.7230 C.3   119  PHE119      0.0534
     68  CG        29.0390   29.1900    0.2930 C.ar  119  PHE119     -0.0203
     69  CD1       28.9530   28.2260    1.2850 C.ar  119  PHE119     -0.0042
     70  CD2       28.0870   30.1980    0.2560 C.ar  119  PHE119     -0.0042
     71  CE1       27.9410   28.2660    2.2320 C.ar  119  PHE119     -0.0003
     72  CE2       27.0680   30.2450    1.1940 C.ar  119  PHE119     -0.0003
     73  CZ        26.9970   29.2760    2.1860 C.ar  119  PHE119     -0.0000
     74  N         25.9340   29.0750   -4.7820 N.3   143  PRO143     -0.2102
     75  CA        26.3240   28.0580   -3.7960 C.3   143  PRO143      0.1504
     76  C         25.5110   26.7700   -3.8880 C.2   143  PRO143      0.2576
     77  O         24.3090   26.7810   -4.1850 O.2   143  PRO143     -0.2718
     78  CB        26.0780   28.7600   -2.4590 C.3   143  PRO143      0.0282
     79  CG        26.3320   30.1990   -2.7620 C.3   143  PRO143      0.0208
     80  CD        25.8430   30.4170   -4.1780 C.3   143  PRO143      0.0893
     81  N         26.1950   25.6580   -3.6570 N.am  144  VAL144     -0.1966
     82  CA        25.5850   24.3380   -3.7090 C.3   144  VAL144      0.1727
     83  C         25.0310   23.9640   -2.3430 C.2   144  VAL144      0.2617
     84  O         25.7670   23.9490   -1.3520 O.2   144  VAL144     -0.2715
     85  CB        26.6050   23.2880   -4.1720 C.3   144  VAL144      0.0290
     86  CG1       25.9510   21.9240   -4.2990 C.3   144  VAL144      0.0023
     87  CG2       27.2300   23.7200   -5.5090 C.3   144  VAL144      0.0023
     88  N         23.7380   23.6590   -2.2880 N.am  145  SER145     -0.1936
     89  CA        23.0640   23.4440   -1.0070 C.3   145  SER145      0.2055
     90  C         23.0690   21.9910   -0.5270 C.2   145  SER145      0.2642
     91  O         22.9560   21.7320    0.6720 O.2   145  SER145     -0.2714
     92  CB        21.6210   23.9430   -1.0910 C.3   145  SER145      0.2130
     93  OG        20.9610   23.3900   -2.2150 O.3   145  SER145     -0.2179
     94  N         23.1840   21.0440   -1.4520 N.am  146  ALA146     -0.1977
     95  CA        23.1350   19.6270   -1.0940 C.3   146  ALA146      0.1597
     96  C         23.7390   18.7430   -2.1790 C.2   146  ALA146      0.2287
     97  O         23.7070   19.0880   -3.3630 O.2   146  ALA146     -0.2864
     98  CB        21.6940   19.1970   -0.8070 C.3   146  ALA146      0.0319
     99  N         21.4190   27.3990   -5.1460 N.3   161  TYR161     -0.1241
    100  CA        20.6590   28.6390   -5.1200 C.3   161  TYR161      0.1605
    101  C         20.4010   29.1520   -6.5300 C.2   161  TYR161      0.2264
    102  O         19.5910   30.0580   -6.7250 O.2   161  TYR161     -0.2867
    103  CB        21.3920   29.6950   -4.2920 C.3   161  TYR161      0.0534
    104  CG        21.0360   29.6300   -2.8310 C.ar  161  TYR161     -0.0201
    105  CD1       21.4050   28.5380   -2.0560 C.ar  161  TYR161     -0.0009
    106  CD2       20.3090   30.6490   -2.2290 C.ar  161  TYR161     -0.0009
    107  CE1       21.0650   28.4680   -0.7120 C.ar  161  TYR161      0.0417
    108  CE2       19.9630   30.5880   -0.8840 C.ar  161  TYR161      0.0417
    109  CZ        20.3470   29.4940   -0.1320 C.ar  161  TYR161      0.1957
    110  OH        20.0110   29.4240    1.2020 O.3   161  TYR161     -0.2866
    111  N         17.2050   24.3290   -2.0230 N.3   188  SER188     -0.1202
    112  CA        17.9090   24.3640   -0.7450 C.3   188  SER188      0.2020
    113  C         18.2600   22.9820   -0.1890 C.2   188  SER188      0.2618
    114  O         18.9930   22.8670    0.7890 O.2   188  SER188     -0.2717
    115  CB        17.0670   25.1310    0.2740 C.3   188  SER188      0.2103
    116  OG        15.7370   24.6430    0.2870 O.3   188  SER188     -0.2182
    117  N         17.7200   21.9380   -0.8050 N.am  189  PHE189     -0.1975
    118  CA        18.0380   20.5780   -0.4070 C.3   189  PHE189      0.1639
    119  C         17.5770   19.5880   -1.4490 C.2   189  PHE189      0.2290
    120  O         16.5430   19.7850   -2.0770 O.2   189  PHE189     -0.2864
    121  CB        17.3850   20.2210    0.9350 C.3   189  PHE189      0.0560
    122  CG        17.7480   18.8550    1.4210 C.ar  189  PHE189     -0.0200
    123  CD1       19.0110   18.6100    1.9370 C.ar  189  PHE189     -0.0042
    124  CD2       16.8490   17.8050    1.3250 C.ar  189  PHE189     -0.0042
    125  CE1       19.3680   17.3450    2.3640 C.ar  189  PHE189     -0.0003
    126  CE2       17.1960   16.5470    1.7550 C.ar  189  PHE189     -0.0003
    127  CZ        18.4650   16.3160    2.2790 C.ar  189  PHE189     -0.0000
    128  N         14.2470   30.8870    3.8200 N.3   229  LYS229     -0.1231
    129  CA        15.5150   31.5290    4.1490 C.3   229  LYS229      0.1693
    130  C         16.6710   30.5470    4.3180 C.2   229  LYS229      0.2592
    131  O         17.8050   30.8420    3.9430 O.2   229  LYS229     -0.2718
    132  CB        15.3610   32.3630    5.4270 C.3   229  LYS229      0.0285
    133  CG        16.6340   33.0760    5.8500 C.3   229  LYS229      0.0035
    134  CD        16.3850   34.1360    6.9090 C.3   229  LYS229      0.0206
    135  CE        17.6940   34.8030    7.3130 C.3   229  LYS229      0.1093
    136  NZ        17.5130   35.9360    8.2620 N.3   229  LYS229     -0.1314
    137  N         16.3800   29.3800    4.8800 N.am  230  TYR230     -0.1962
    138  CA        17.4320   28.4490    5.2760 C.3   230  TYR230      0.1771
    139  C         17.3900   27.1220    4.5450 C.2   230  TYR230      0.2619
    140  O         16.3310   26.6790    4.0840 O.2   230  TYR230     -0.2715
    141  CB        17.3520   28.1750    6.7780 C.3   230  TYR230      0.0574
    142  CG        17.4970   29.4030    7.6390 C.ar  230  TYR230     -0.0198
    143  CD1       18.7470   29.9440    7.8950 C.ar  230  TYR230     -0.0009
    144  CD2       16.3850   30.0150    8.2010 C.ar  230  TYR230     -0.0009
    145  CE1       18.8920   31.0590    8.6960 C.ar  230  TYR230      0.0417
    146  CE2       16.5190   31.1350    8.9980 C.ar  230  TYR230      0.0417
    147  CZ        17.7760   31.6510    9.2420 C.ar  230  TYR230      0.1957
    148  OH        17.9200   32.7700   10.0300 O.3   230  TYR230     -0.2866
    149  N         18.5480   26.4760    4.4750 N.am  231  CYS231     -0.1968
    150  CA        18.6480   25.1620    3.8570 C.3   231  CYS231      0.1712
    151  C         18.3220   24.0700    4.8650 C.2   231  CYS231      0.2296
    152  O         19.1660   23.6550    5.6590 O.2   231  CYS231     -0.2864
    153  CB        20.0350   24.9690    3.2580 C.3   231  CYS231      0.0983
    154  SG        20.2580   26.0170    1.8070 S.3   231  CYS231     -0.0798
    155  N         17.1570   20.3110    5.9400 N.3   233  PHE233     -0.1241
    156  CA        17.2140   18.9090    5.5350 C.3   233  PHE233      0.1605
    157  C         15.8000   18.3480    5.4340 C.2   233  PHE233      0.2264
    158  O         14.9040   18.7930    6.1500 O.2   233  PHE233     -0.2867
    159  CB        18.0310   18.0740    6.5370 C.3   233  PHE233      0.0534
    160  CG        19.5160   18.3470    6.5240 C.ar  233  PHE233     -0.0203
    161  CD1       20.0550   19.3980    7.2580 C.ar  233  PHE233     -0.0042
    162  CD2       20.3800   17.5200    5.8080 C.ar  233  PHE233     -0.0042
    163  CE1       21.4260   19.6390    7.2580 C.ar  233  PHE233     -0.0003
    164  CE2       21.7580   17.7510    5.8020 C.ar  233  PHE233     -0.0003
    165  CZ        22.2820   18.8070    6.5290 C.ar  233  PHE233     -0.0000
    166  N         16.5840   23.2500   11.6100 N.3   275  ILE275     -0.1245
    167  CA        17.4050   23.2210   10.4010 C.3   275  ILE275      0.1561
    168  C         17.6440   21.7990    9.9010 C.2   275  ILE275      0.2260
    169  O         17.8890   21.5760    8.7160 O.2   275  ILE275     -0.2867
    170  CB        18.7670   23.9250   10.6440 C.3   275  ILE275      0.0252
    171  CG1       19.4600   24.2470    9.3170 C.3   275  ILE275      0.0019
    172  CG2       19.6640   23.1080   11.5730 C.3   275  ILE275      0.0019
    173  CD1       18.7810   25.3810    8.5470 C.3   275  ILE275      0.0001
    174  N         18.4690   26.1370   15.3510 N.3   291  LEU291     -0.1245
    175  CA        19.5060   27.1550   15.2180 C.3   291  LEU291      0.1561
    176  C         19.8080   27.8840   16.5350 C.2   291  LEU291      0.2260
    177  O         19.4390   27.4170   17.6090 O.2   291  LEU291     -0.2867
    178  CB        19.1160   28.1520   14.1210 C.3   291  LEU291      0.0270
    179  CG        19.0370   27.5280   12.7170 C.3   291  LEU291      0.0019
    180  CD1       18.6870   28.5830   11.6740 C.3   291  LEU291      0.0001
    181  CD2       20.3480   26.8340   12.3570 C.3   291  LEU291      0.0001
@<TRIPOS>BOND
     1   102   101    2
     2   101   100    1
     3    87    85    1
     4    99   100    1
     5   100   103    1
     6    74    80    1
     7    74    75    1
     8    86    85    1
     9   103   104    1
    10    77    76    2
    11    80    79    1
    12    85    82    1
    13    76    75    1
    14    76    81   am
    15    75    78    1
    16    66    65    2
    17    82    81    1
    18    82    83    1
    19    97    96    2
    20    65    64    1
    21   104   106   ar
    22   104   105   ar
    23    79    78    1
    24    83    88   am
    25    83    84    2
    26    88    89    1
    27   106   108   ar
    28    93    92    1
    29    96    95    1
    30   120   119    2
    31   105   107   ar
    32   111   112    1
    33    64    63    1
    34    64    67    1
    35    94    95    1
    36    94    90   am
    37   119   118    1
    38    95    98    1
    39    92    89    1
    40    89    90    1
    41   108   109   ar
    42   117   118    1
    43   117   113   am
    44   112   113    1
    45   112   115    1
    46    67    68    1
    47   107   109   ar
    48    90    91    2
    49    62    61    1
    50   118   121    1
    51   113   114    2
    52   109   110    1
    53    70    68   ar
    54    70    72   ar
    55   115   116    1
    56    68    69   ar
    57   121   122    1
    58    60    59    2
    59    72    73   ar
    60    61    58    1
    61    69    71   ar
    62   124   122   ar
    63   124   126   ar
    64   122   123   ar
    65   126   127   ar
    66   154   153    1
    67    59    58    1
    68   123   125   ar
    69    50    51    1
    70    50    47    1
    71    73    71   ar
    72    53    51   ar
    73    53    55   ar
    74    58    57    1
    75    57    48   am
    76   127   125   ar
    77    46    47    1
    78    51    52   ar
    79    55    56   ar
    80    47    48    1
    81    48    49    2
    82   153   150    1
    83   128   129    1
    84    52    54   ar
    85   150   149    1
    86   150   151    1
    87    56    54   ar
    88   131   130    2
    89   140   139    2
    90   129   130    1
    91   129   132    1
    92   130   137   am
    93    45    43   ar
    94   149   139   am
    95   139   138    1
    96   151   152    2
    97   137   138    1
    98   138   141    1
    99   132   133    1
   100   157   156    1
   101   157   158    2
   102   156   155    1
   103   156   159    1
   104    43    42    1
   105    43    44   ar
   106   164   162   ar
   107   164   165   ar
   108   162   160   ar
   109   133   134    1
   110    42    39    1
   111   160   159    1
   112   160   161   ar
   113   165   163   ar
   114   141   142    1
   115   134   135    1
   116    36    37    1
   117    36    33    1
   118   163   161   ar
   119   135   136    1
   120    39    38    1
   121    39    40    1
   122   142   143   ar
   123   142   144   ar
   124    35    34    2
   125    38    34   am
   126   143   145   ar
   127    34    33    1
   128    40    41    2
   129   144   146   ar
   130    33    32    1
   131   173   171    1
   132   145   147   ar
   133   169   168    2
   134    32    26   am
   135   146   147   ar
   136   147   148    1
   137   171   170    1
   138   168   167    1
   139    26    25    1
   140    26    27    2
   141    16    15    2
   142    30    28    1
   143   167   170    1
   144   167   166    1
   145    25    28    1
   146    25    24    1
   147   170   172    1
   148    15    14    1
   149    17    18    1
   150    17    14    1
   151    28    29    1
   152   180   179    1
   153    14    13    1
   154    29    31    1
   155   181   179    1
   156   179   178    1
   157    13     8   am
   158     9     8    2
   159     8     7    1
   160    23    20    1
   161    20    19    1
   162    20    21    1
   163   178   175    1
   164    22    21    2
   165     5     2    1
   166   175   174    1
   167   175   176    1
   168     7     6    1
   169     7    10    1
   170     4     3    2
   171    11    10    1
   172     3     6   am
   173     3     2    1
   174    10    12    1
   175     2     1    1
   176   176   177    2
