@<TRIPOS>MOLECULE
tmp/6dasA00.pdb
 166 160 0 0 0
SMALL
GASTEIGER

@<TRIPOS>ATOM
      1  N         45.0460   16.5530  -27.5520 N.3    18  ALA18      -0.1245
      2  CA        44.2500   17.7310  -27.2240 C.3    18  ALA18       0.1562
      3  C         43.4890   17.5390  -25.9180 C.2    18  ALA18       0.2260
      4  O         42.8730   16.4960  -25.6890 O.2    18  ALA18      -0.2867
      5  CB        43.2710   18.0330  -28.3630 C.3    18  ALA18       0.0290
      6  N         40.2410   18.4060  -23.7220 N.3    20  SER20      -0.1217
      7  CA        38.8520   18.5920  -24.1320 C.3    20  SER20       0.1889
      8  C         38.0300   19.4300  -23.1670 C.2    20  SER20       0.2288
      9  O         37.2690   20.2980  -23.6080 O.2    20  SER20      -0.2866
     10  CB        38.1690   17.2310  -24.3110 C.3    20  SER20       0.2089
     11  OG        38.8080   16.4580  -25.3140 O.3    20  SER20      -0.2183
     12  N         41.6020   13.9380  -25.4570 N.3    36  ALA36      -0.1245
     13  CA        41.5340   12.9580  -26.5300 C.3    36  ALA36       0.1562
     14  C         42.4830   11.7850  -26.3200 C.2    36  ALA36       0.2260
     15  O         42.3520   10.7780  -27.0230 O.2    36  ALA36      -0.2867
     16  CB        41.8440   13.6290  -27.8680 C.3    36  ALA36       0.0290
     17  N         35.4200   13.6200  -24.3460 N.3    62  SER62      -0.1202
     18  CA        35.0320   14.9660  -24.7530 C.3    62  SER62       0.2020
     19  C         34.6100   15.8540  -23.5900 C.2    62  SER62       0.2618
     20  O         34.7540   17.0780  -23.6810 O.2    62  SER62      -0.2717
     21  CB        33.8910   14.9150  -25.7750 C.3    62  SER62       0.2103
     22  OG        34.3230   14.3300  -26.9920 O.3    62  SER62      -0.2182
     23  N         34.1050   15.2780  -22.5000 N.am   63  ASP63      -0.1973
     24  CA        33.6190   16.0900  -21.3940 C.3    63  ASP63       0.1709
     25  C         33.7500   15.3140  -20.0910 C.2    63  ASP63       0.2293
     26  O         33.7970   14.0810  -20.0750 O.2    63  ASP63      -0.2864
     27  CB        32.1660   16.5210  -21.6400 C.3    63  ASP63       0.1436
     28  CG        31.7520   17.7310  -20.8130 C.2    63  ASP63       0.3671
     29  OD1       32.6170   18.3660  -20.1710 O.co2  63  ASP63      -0.2456
     30  OD2       30.5500   18.0650  -20.8340 O.co2  63  ASP63      -0.2456
     31  N         29.2210   13.3990  -26.1730 N.3   104  PHE104     -0.1227
     32  CA        29.9380   14.6590  -26.3110 C.3   104  PHE104      0.1736
     33  C         29.8560   15.5610  -25.0900 C.2   104  PHE104      0.2595
     34  O         30.7530   16.3810  -24.8860 O.2   104  PHE104     -0.2718
     35  CB        29.4010   15.4240  -27.5270 C.3   104  PHE104      0.0547
     36  CG        30.2080   16.6320  -27.8990 C.ar  104  PHE104     -0.0202
     37  CD1       29.7070   17.9020  -27.6790 C.ar  104  PHE104     -0.0042
     38  CD2       31.4610   16.4990  -28.4770 C.ar  104  PHE104     -0.0042
     39  CE1       30.4360   19.0210  -28.0250 C.ar  104  PHE104     -0.0003
     40  CE2       32.1970   17.6160  -28.8280 C.ar  104  PHE104     -0.0003
     41  CZ        31.6780   18.8790  -28.6040 C.ar  104  PHE104     -0.0000
     42  N         28.8160   15.4240  -24.2690 N.am  105  CYS105     -0.1970
     43  CA        28.5830   16.3450  -23.1660 C.3   105  CYS105      0.1712
     44  C         27.8650   15.6180  -22.0410 C.2   105  CYS105      0.2296
     45  O         27.1040   14.6780  -22.2810 O.2   105  CYS105     -0.2864
     46  CB        27.7670   17.5610  -23.6230 C.3   105  CYS105      0.0983
     47  SG        26.3120   17.1510  -24.6260 S.3   105  CYS105     -0.0798
     48  N         26.4210   12.4670  -30.4070 N.3   120  PHE120     -0.1241
     49  CA        26.3380   12.6000  -31.8540 C.3   120  PHE120      0.1605
     50  C         25.1660   11.8240  -32.4330 C.2   120  PHE120      0.2264
     51  O         24.8120   12.0450  -33.5980 O.2   120  PHE120     -0.2867
     52  CB        27.6350   12.1200  -32.5140 C.3   120  PHE120      0.0534
     53  CG        28.7490   13.1310  -32.4910 C.ar  120  PHE120     -0.0203
     54  CD1       29.5670   13.2910  -33.5980 C.ar  120  PHE120     -0.0042
     55  CD2       28.9870   13.9120  -31.3720 C.ar  120  PHE120     -0.0042
     56  CE1       30.5940   14.2130  -33.5910 C.ar  120  PHE120     -0.0003
     57  CE2       30.0120   14.8370  -31.3620 C.ar  120  PHE120     -0.0003
     58  CZ        30.8160   14.9860  -32.4710 C.ar  120  PHE120     -0.0000
     59  N         24.2850   16.4940  -34.0420 N.3   144  PRO144     -0.2102
     60  CA        25.0120   16.2550  -32.7870 C.3   144  PRO144      0.1504
     61  C         24.6470   17.2580  -31.6960 C.2   144  PRO144      0.2576
     62  O         24.4550   18.4480  -31.9540 O.2   144  PRO144     -0.2718
     63  CB        26.4780   16.3810  -33.2090 C.3   144  PRO144      0.0282
     64  CG        26.4780   15.8640  -34.6180 C.3   144  PRO144      0.0208
     65  CD        25.1640   16.3110  -35.2170 C.3   144  PRO144      0.0893
     66  N         24.5290   16.7550  -30.4690 N.am  145  VAL145     -0.1966
     67  CA        24.1730   17.5690  -29.3080 C.3   145  VAL145      0.1727
     68  C         25.4540   18.1450  -28.7160 C.2   145  VAL145      0.2617
     69  O         26.3740   17.4000  -28.3620 O.2   145  VAL145     -0.2715
     70  CB        23.4040   16.7440  -28.2630 C.3   145  VAL145      0.0290
     71  CG1       23.0690   17.5950  -27.0470 C.3   145  VAL145      0.0023
     72  CG2       22.1320   16.1610  -28.8690 C.3   145  VAL145      0.0023
     73  N         25.5110   19.4730  -28.5970 N.am  146  SER146     -0.1936
     74  CA        26.7480   20.1410  -28.2110 C.3   146  SER146      0.2055
     75  C         26.8630   20.4100  -26.7170 C.2   146  SER146      0.2642
     76  O         27.9820   20.6020  -26.2260 O.2   146  SER146     -0.2714
     77  CB        26.8910   21.4650  -28.9670 C.3   146  SER146      0.2130
     78  OG        25.6660   22.1780  -28.9810 O.3   146  SER146     -0.2179
     79  N         25.7540   20.4260  -25.9820 N.am  147  ALA147     -0.1977
     80  CA        25.8090   20.7260  -24.5570 C.3   147  ALA147      0.1597
     81  C         24.5110   20.2850  -23.9010 C.2   147  ALA147      0.2287
     82  O         23.4480   20.3070  -24.5290 O.2   147  ALA147     -0.2864
     83  CB        26.0460   22.2200  -24.3000 C.3   147  ALA147      0.0319
     84  N         23.9640   21.2080  -33.1900 N.3   162  TYR162     -0.1241
     85  CA        24.3120   21.7270  -34.5050 C.3   162  TYR162      0.1605
     86  C         23.1060   21.8880  -35.4190 C.2   162  TYR162      0.2264
     87  O         23.2330   22.5270  -36.4690 O.2   162  TYR162     -0.2867
     88  CB        25.3390   20.8240  -35.1850 C.3   162  TYR162      0.0534
     89  CG        26.7660   21.1240  -34.8020 C.ar  162  TYR162     -0.0201
     90  CD1       27.0720   21.6590  -33.5590 C.ar  162  TYR162     -0.0009
     91  CD2       27.8060   20.9050  -35.6940 C.ar  162  TYR162     -0.0009
     92  CE1       28.3700   21.9450  -33.2080 C.ar  162  TYR162      0.0417
     93  CE2       29.1100   21.1900  -35.3520 C.ar  162  TYR162      0.0417
     94  CZ        29.3870   21.7100  -34.1060 C.ar  162  TYR162      0.1957
     95  OH        30.6860   21.9990  -33.7560 O.3   162  TYR162     -0.2866
     96  N         26.4690   25.9640  -30.2240 N.3   189  SER189     -0.1202
     97  CA        27.6420   25.1560  -29.8810 C.3   189  SER189      0.2020
     98  C         27.8650   24.9430  -28.3900 C.2   189  SER189      0.2618
     99  O         28.7280   24.1410  -28.0220 O.2   189  SER189     -0.2717
    100  CB        28.9100   25.7860  -30.4760 C.3   189  SER189      0.2103
    101  OG        29.0220   27.1570  -30.1350 O.3   189  SER189     -0.2182
    102  N         27.1270   25.6330  -27.5290 N.am  190  PHE190     -0.1975
    103  CA        27.2680   25.5000  -26.0860 C.3   190  PHE190      0.1639
    104  C         26.1020   26.2150  -25.4270 C.2   190  PHE190      0.2290
    105  O         25.6950   27.2830  -25.8900 O.2   190  PHE190     -0.2864
    106  CB        28.5980   26.0870  -25.5860 C.3   190  PHE190      0.0560
    107  CG        28.7610   26.0080  -24.0980 C.ar  190  PHE190     -0.0200
    108  CD1       29.0710   24.8070  -23.4910 C.ar  190  PHE190     -0.0042
    109  CD2       28.5780   27.1290  -23.3030 C.ar  190  PHE190     -0.0042
    110  CE1       29.2030   24.7210  -22.1120 C.ar  190  PHE190     -0.0003
    111  CE2       28.7100   27.0510  -21.9290 C.ar  190  PHE190     -0.0003
    112  CZ        29.0250   25.8440  -21.3320 C.ar  190  PHE190     -0.0000
    113  N         34.1350   27.0940  -35.5220 N.3   230  LYS230     -0.1231
    114  CA        34.4910   25.7310  -35.8950 C.3   230  LYS230      0.1693
    115  C         34.2090   24.7090  -34.8000 C.2   230  LYS230      0.2592
    116  O         33.8370   23.5700  -35.1020 O.2   230  LYS230     -0.2718
    117  CB        35.9700   25.6680  -36.2840 C.3   230  LYS230      0.0285
    118  CG        36.3530   26.5950  -37.4350 C.3   230  LYS230      0.0035
    119  CD        37.6760   26.2020  -38.0950 C.3   230  LYS230      0.0206
    120  CE        38.8420   26.2060  -37.1210 C.3   230  LYS230      0.1093
    121  NZ        39.0950   27.5500  -36.5240 N.3   230  LYS230     -0.1314
    122  N         34.3730   25.0900  -33.5350 N.am  231  TYR231     -0.1962
    123  CA        34.3540   24.1280  -32.4440 C.3   231  TYR231      0.1771
    124  C         33.4110   24.5800  -31.3380 C.2   231  TYR231      0.2619
    125  O         33.0590   25.7560  -31.2280 O.2   231  TYR231     -0.2715
    126  CB        35.7500   23.9130  -31.8470 C.3   231  TYR231      0.0574
    127  CG        36.7930   23.4110  -32.8170 C.ar  231  TYR231     -0.0198
    128  CD1       36.7330   22.1210  -33.3280 C.ar  231  TYR231     -0.0009
    129  CD2       37.8610   24.2160  -33.1910 C.ar  231  TYR231     -0.0009
    130  CE1       37.6970   21.6550  -34.2060 C.ar  231  TYR231      0.0417
    131  CE2       38.8280   23.7600  -34.0650 C.ar  231  TYR231      0.0417
    132  CZ        38.7410   22.4790  -34.5690 C.ar  231  TYR231      0.1957
    133  OH        39.7040   22.0210  -35.4380 O.3   231  TYR231     -0.2866
    134  N         33.0040   23.6140  -30.5180 N.am  232  CYS232     -0.1968
    135  CA        32.1630   23.8680  -29.3490 C.3   232  CYS232      0.1712
    136  C         33.0580   24.2720  -28.1850 C.2   232  CYS232      0.2296
    137  O         33.7260   23.4350  -27.5760 O.2   232  CYS232     -0.2864
    138  CB        31.3320   22.6380  -29.0110 C.3   232  CYS232      0.0983
    139  SG        30.1730   22.1760  -30.3110 S.3   232  CYS232     -0.0798
    140  N         33.6160   25.8680  -24.4200 N.3   234  PHE234     -0.1241
    141  CA        32.9450   26.1100  -23.1510 C.3   234  PHE234      0.1605
    142  C         32.9370   27.6000  -22.8290 C.2   234  PHE234      0.2264
    143  O         33.8280   28.3520  -23.2320 O.2   234  PHE234     -0.2867
    144  CB        33.6330   25.3530  -22.0120 C.3   234  PHE234      0.0534
    145  CG        33.4920   23.8570  -22.0870 C.ar  234  PHE234     -0.0203
    146  CD1       32.5310   23.2030  -21.3340 C.ar  234  PHE234     -0.0042
    147  CD2       34.3390   23.1050  -22.8850 C.ar  234  PHE234     -0.0042
    148  CE1       32.4070   21.8280  -21.3860 C.ar  234  PHE234     -0.0003
    149  CE2       34.2200   21.7280  -22.9430 C.ar  234  PHE234     -0.0003
    150  CZ        33.2550   21.0890  -22.1930 C.ar  234  PHE234     -0.0000
    151  N         39.7690   25.4800  -26.0240 N.3   276  ILE276     -0.1245
    152  CA        38.4950   24.7910  -26.1860 C.3   276  ILE276      0.1561
    153  C         37.6780   24.8300  -24.9010 C.2   276  ILE276      0.2260
    154  O         36.4430   24.8060  -24.9480 O.2   276  ILE276     -0.2867
    155  CB        38.7330   23.3460  -26.6580 C.3   276  ILE276      0.0252
    156  CG1       37.4110   22.6740  -27.0280 C.3   276  ILE276      0.0019
    157  CG2       39.4740   22.5420  -25.5970 C.3   276  ILE276      0.0019
    158  CD1       36.8850   23.0840  -28.3880 C.3   276  ILE276      0.0001
    159  N         43.9280   22.7500  -27.6520 N.3   292  LEU292     -0.1245
    160  CA        43.8950   21.5790  -28.5210 C.3   292  LEU292      0.1561
    161  C         45.3120   21.0660  -28.7980 C.2   292  LEU292      0.2260
    162  O         46.2820   21.4480  -28.1370 O.2   292  LEU292     -0.2867
    163  CB        43.1200   21.9070  -29.7950 C.3   292  LEU292      0.0270
    164  CG        41.6280   22.2000  -29.5790 C.3   292  LEU292      0.0019
    165  CD1       40.9070   22.3930  -30.9070 C.3   292  LEU292      0.0001
    166  CD2       40.9610   21.0870  -28.7690 C.3   292  LEU292      0.0001
@<TRIPOS>BOND
     1   119   118    1
     2   119   120    1
     3   118   117    1
     4   120   121    1
     5    87    86    2
     6   117   114    1
     7   114   113    1
     8   114   115    1
     9    91    93   ar
    10    91    89   ar
    11   133   132    1
    12    86    85    1
    13    93    94   ar
    14    65    64    1
    15    65    59    1
    16    88    89    1
    17    88    85    1
    18   116   115    2
    19    89    90   ar
    20   115   122   am
    21    64    63    1
    22   132   130   ar
    23   132   131   ar
    24    85    84    1
    25   130   128   ar
    26    94    95    1
    27    94    92   ar
    28   131   129   ar
    29    59    60    1
    30    54    56   ar
    31    54    53   ar
    32    51    50    2
    33    56    58   ar
    34    90    92   ar
    35   122   123    1
    36   128   127   ar
    37    63    60    1
    38   129   127   ar
    39   127   126    1
    40    60    61    1
    41    52    53    1
    42    52    49    1
    43    53    55   ar
    44    58    57   ar
    45   123   126    1
    46   123   124    1
    47    50    49    1
    48    62    61    2
    49    49    48    1
    50    61    66   am
    51    55    57   ar
    52   124   125    2
    53   124   134   am
    54   165   164    1
    55   134   135    1
    56   100   101    1
    57   100    97    1
    58    66    67    1
    59   139   138    1
    60    96    97    1
    61    97    98    1
    62   163   164    1
    63   163   160    1
    64   164   166    1
    65   135   138    1
    66   135   136    1
    67    67    68    1
    68    67    70    1
    69    78    77    1
    70    77    74    1
    71    72    70    1
    72    40    41   ar
    73    40    38   ar
    74   161   160    1
    75   161   162    2
    76    68    73   am
    77    68    69    2
    78    41    39   ar
    79    73    74    1
    80   160   159    1
    81    38    36   ar
    82    98    99    2
    83    98   102   am
    84   158   156    1
    85     5     2    1
    86    70    71    1
    87    74    75    1
    88   136   137    2
    89    39    37   ar
    90    36    37   ar
    91    36    35    1
    92    16    13    1
    93     1     2    1
    94   102   103    1
    95    35    32    1
    96     2     3    1
    97   156   155    1
    98    15    14    2
    99    22    21    1
   100    75    76    2
   101    75    79   am
   102   155   152    1
   103   155   157    1
   104    13    14    1
   105    13    12    1
   106    32    31    1
   107    32    33    1
   108   152   151    1
   109   152   153    1
   110   103   106    1
   111   103   104    1
   112    79    80    1
   113     3     4    2
   114   105   104    2
   115    21    18    1
   116   106   107    1
   117    11    10    1
   118    33    34    2
   119    33    42   am
   120   154   153    2
   121    18    17    1
   122    18    19    1
   123    47    46    1
   124    80    83    1
   125    80    81    1
   126    82    81    2
   127   140   141    1
   128    10     7    1
   129    42    43    1
   130     7     6    1
   131     7     8    1
   132   107   108   ar
   133   107   109   ar
   134    20    19    2
   135    46    43    1
   136     9     8    2
   137    19    23   am
   138   108   110   ar
   139   109   111   ar
   140   143   142    2
   141    43    44    1
   142   141   142    1
   143   141   144    1
   144   149   147   ar
   145   149   150   ar
   146   147   145   ar
   147    23    24    1
   148    45    44    2
   149   150   148   ar
   150   110   112   ar
   151   145   144    1
   152   145   146   ar
   153   111   112   ar
   154    27    24    1
   155    27    28    1
   156    24    25    1
   157   148   146   ar
   158    30    28   ar
   159    28    29   ar
   160    25    26    2
