@<TRIPOS>MOLECULE
tmp/6davB01.pdb
 121 117 0 0 0
SMALL
GASTEIGER

@<TRIPOS>ATOM
      1  N         -9.1260   24.7760   49.4080 N.3     7  ILE7       -0.1231
      2  CA        -9.3880   24.7000   47.9800 C.3     7  ILE7        0.1692
      3  C        -10.5330   25.6510   47.6700 C.2     7  ILE7        0.2592
      4  O        -11.4930   25.7580   48.4450 O.2     7  ILE7       -0.2718
      5  CB        -9.6910   23.2550   47.5280 C.3     7  ILE7        0.0266
      6  CG1       -9.7970   23.1770   45.9910 C.3     7  ILE7        0.0019
      7  CG2      -10.9540   22.7170   48.1830 C.3     7  ILE7        0.0020
      8  CD1       -9.6740   21.7510   45.4680 C.3     7  ILE7        0.0001
      9  N        -10.4110   26.3540   46.5410 N.am    8  VAL8       -0.1966
     10  CA       -11.3480   27.4080   46.1620 C.3     8  VAL8        0.1727
     11  C        -11.2090   27.6400   44.6660 C.2     8  VAL8        0.2616
     12  O        -10.1570   27.3820   44.0790 O.2     8  VAL8       -0.2715
     13  CB       -11.0760   28.7100   46.9590 C.3     8  VAL8        0.0290
     14  CG1       -9.7670   29.3490   46.4900 C.3     8  VAL8        0.0023
     15  CG2      -12.2570   29.6950   46.8590 C.3     8  VAL8        0.0023
     16  N        -12.2840   28.1170   44.0530 N.am    9  ALA9       -0.1977
     17  CA       -12.2570   28.7040   42.7200 C.3     9  ALA9        0.1597
     18  C        -12.6690   30.1620   42.8650 C.2     9  ALA9        0.2287
     19  O        -13.6680   30.4580   43.5240 O.2     9  ALA9       -0.2864
     20  CB       -13.1900   27.9560   41.7700 C.3     9  ALA9        0.0319
     21  N        -16.2960   34.4030   44.9670 N.3    16  ILE16      -0.1245
     22  CA       -16.5180   32.9680   45.0960 C.3    16  ILE16       0.1561
     23  C        -17.9900   32.5870   45.1190 C.2    16  ILE16       0.2260
     24  O        -18.3120   31.4130   44.8440 O.2    16  ILE16      -0.2867
     25  CB       -15.8060   32.3890   46.3430 C.3    16  ILE16       0.0252
     26  CG1      -16.4440   32.8880   47.6490 C.3    16  ILE16       0.0019
     27  CG2      -14.3110   32.6860   46.2950 C.3    16  ILE16       0.0019
     28  CD1      -15.9190   32.1190   48.9080 C.3    16  ILE16       0.0001
     29  N        -24.9000   30.3450   45.6240 N.3    21  ASP21      -0.1225
     30  CA       -24.4230   29.4260   44.5970 C.3    21  ASP21       0.1805
     31  C        -23.1250   29.9970   44.0330 C.2    21  ASP21       0.2597
     32  O        -22.6070   31.0100   44.5150 O.2    21  ASP21      -0.2718
     33  CB       -25.5150   29.2290   43.5270 C.3    21  ASP21       0.1424
     34  CG       -25.2900   28.0130   42.6250 C.2    21  ASP21       0.3668
     35  OD1      -24.2650   27.3080   42.7400 O.co2  21  ASP21      -0.2456
     36  OD2      -26.1710   27.7730   41.7680 O.co2  21  ASP21      -0.2456
     37  N        -22.5830   29.3450   43.0160 N.am   22  LEU22      -0.1979
     38  CA       -21.3800   29.8670   42.3850 C.3    22  LEU22       0.1596
     39  C        -21.7160   31.0340   41.4510 C.2    22  LEU22       0.2287
     40  O        -22.8390   31.1350   40.9470 O.2    22  LEU22      -0.2864
     41  CB       -20.6750   28.7550   41.6100 C.3    22  LEU22       0.0297
     42  CG       -20.1200   27.6540   42.5120 C.3    22  LEU22       0.0022
     43  CD1      -19.6570   26.4840   41.6730 C.3    22  LEU22       0.0001
     44  CD2      -18.9760   28.2010   43.3470 C.3    22  LEU22       0.0001
     45  N        -20.4180   31.6640   38.4420 N.3    24  TRP24      -0.1241
     46  CA       -20.2980   31.2260   37.0630 C.3    24  TRP24       0.1605
     47  C        -21.1720   30.0040   36.8240 C.2    24  TRP24       0.2264
     48  O        -21.5790   29.3210   37.7730 O.2    24  TRP24      -0.2867
     49  CB       -18.8320   30.8920   36.7370 C.3    24  TRP24       0.0550
     50  CG       -18.1380   30.1710   37.8350 C.ar   24  TRP24       0.0003
     51  CD1      -18.0950   28.8210   38.0350 C.ar   24  TRP24       0.0946
     52  CD2      -17.3990   30.7690   38.9080 C.ar   24  TRP24       0.0152
     53  NE1      -17.3610   28.5410   39.1830 N.ar   24  TRP24      -0.2442
     54  CE2      -16.9180   29.7190   39.7250 C.ar   24  TRP24       0.0810
     55  CE3      -17.0780   32.0880   39.2440 C.ar   24  TRP24       0.0012
     56  CZ2      -16.1470   29.9570   40.8690 C.ar   24  TRP24       0.0191
     57  CZ3      -16.3110   32.3230   40.3800 C.ar   24  TRP24       0.0001
     58  CH2      -15.8580   31.2610   41.1780 C.ar   24  TRP24       0.0015
     59  N        -13.9990   21.5380   36.3200 N.3    30  GLU30      -0.1231
     60  CA       -13.5120   22.1740   37.5400 C.3    30  GLU30       0.1699
     61  C        -14.1090   21.4970   38.7670 C.2    30  GLU30       0.2592
     62  O        -13.4160   21.2860   39.7740 O.2    30  GLU30      -0.2718
     63  CB       -13.8420   23.6710   37.4980 C.3    30  GLU30       0.0402
     64  CG       -12.7970   24.5400   38.1420 C.3    30  GLU30       0.1161
     65  CD       -12.8980   24.5310   39.6510 C.2    30  GLU30       0.3649
     66  OE1      -11.8440   24.4740   40.3140 O.co2  30  GLU30      -0.2457
     67  OE2      -14.0340   24.5700   40.1710 O.co2  30  GLU30      -0.2457
     68  N        -15.3920   21.1310   38.6920 N.am   31  PHE31      -0.1976
     69  CA       -16.0030   20.3320   39.7520 C.3    31  PHE31       0.1639
     70  C        -15.3030   18.9880   39.9040 C.2    31  PHE31       0.2290
     71  O        -15.1240   18.5010   41.0270 O.2    31  PHE31      -0.2864
     72  CB       -17.4880   20.1190   39.4610 C.3    31  PHE31       0.0560
     73  CG       -18.3780   21.2040   39.9920 C.ar   31  PHE31      -0.0200
     74  CD1      -19.5130   21.5860   39.2900 C.ar   31  PHE31      -0.0042
     75  CD2      -18.0890   21.8390   41.1870 C.ar   31  PHE31      -0.0042
     76  CE1      -20.3410   22.5760   39.7710 C.ar   31  PHE31      -0.0003
     77  CE2      -18.9180   22.8240   41.6800 C.ar   31  PHE31      -0.0003
     78  CZ       -20.0440   23.1950   40.9680 C.ar   31  PHE31      -0.0000
     79  N        -12.1800   18.3860   39.2670 N.3    33  TYR33      -0.1227
     80  CA       -10.9180   18.6810   39.9390 C.3    33  TYR33       0.1736
     81  C        -11.1160   18.7990   41.4440 C.2    33  TYR33       0.2595
     82  O        -10.3870   18.1800   42.2330 O.2    33  TYR33      -0.2718
     83  CB       -10.3230   19.9720   39.3710 C.3    33  TYR33       0.0548
     84  CG        -9.0730   20.4610   40.0850 C.ar   33  TYR33      -0.0200
     85  CD1       -7.8280   19.9010   39.8100 C.ar   33  TYR33      -0.0009
     86  CD2       -9.1350   21.5060   41.0080 C.ar   33  TYR33      -0.0009
     87  CE1       -6.6880   20.3570   40.4340 C.ar   33  TYR33       0.0417
     88  CE2       -7.9890   21.9650   41.6470 C.ar   33  TYR33       0.0417
     89  CZ        -6.7740   21.3960   41.3460 C.ar   33  TYR33       0.1957
     90  OH        -5.6270   21.8400   41.9670 O.3    33  TYR33      -0.2866
     91  N        -12.1040   19.5880   41.8610 N.am   34  PHE34      -0.1976
     92  CA       -12.4090   19.7030   43.2880 C.3    34  PHE34       0.1639
     93  C        -12.6670   18.3320   43.8990 C.2    34  PHE34       0.2290
     94  O        -12.1490   18.0070   44.9780 O.2    34  PHE34      -0.2864
     95  CB       -13.6270   20.6070   43.4970 C.3    34  PHE34       0.0560
     96  CG       -14.1950   20.5450   44.8910 C.ar   34  PHE34      -0.0200
     97  CD1      -13.7270   21.3960   45.8770 C.ar   34  PHE34      -0.0042
     98  CD2      -15.1900   19.6250   45.2230 C.ar   34  PHE34      -0.0042
     99  CE1      -14.2380   21.3440   47.1810 C.ar   34  PHE34      -0.0003
    100  CE2      -15.6940   19.5510   46.5320 C.ar   34  PHE34      -0.0003
    101  CZ       -15.2260   20.4220   47.5040 C.ar   34  PHE34      -0.0000
    102  N        -22.0300   27.1300   52.7430 N.3    56  THR56      -0.1218
    103  CA       -21.3630   26.3060   51.7420 C.3    56  THR56       0.1862
    104  C        -21.9770   24.9120   51.6960 C.2    56  THR56       0.2287
    105  O        -22.2270   24.3700   50.6110 O.2    56  THR56      -0.2866
    106  CB       -19.8580   26.2430   52.0310 C.3    56  THR56       0.1770
    107  OG1      -19.2610   27.5360   51.8360 O.3    56  THR56      -0.2211
    108  CG2      -19.1600   25.2320   51.1370 C.3    56  THR56       0.0375
    109  N        -24.9350   25.1090   49.7070 N.3    59  SER59      -0.1217
    110  CA       -24.6760   25.3630   48.2910 C.3    59  SER59       0.1889
    111  C        -24.3960   24.0800   47.5160 C.2    59  SER59       0.2288
    112  O        -24.3920   24.1030   46.2810 O.2    59  SER59      -0.2866
    113  CB       -23.5030   26.3350   48.1250 C.3    59  SER59       0.2089
    114  OG       -22.2600   25.6700   48.3020 O.3    59  SER59      -0.2183
    115  N         -8.2000   27.8410   42.0330 N.3   136  THR136     -0.1218
    116  CA        -8.5300   27.8930   40.6090 C.3   136  THR136      0.1862
    117  C         -8.7810   29.3460   40.2390 C.2   136  THR136      0.2287
    118  O         -9.6610   29.9870   40.8180 O.2   136  THR136     -0.2866
    119  CB        -9.7530   27.0300   40.2800 C.3   136  THR136      0.1770
    120  OG1       -9.4950   25.6730   40.6410 O.3   136  THR136     -0.2211
    121  CG2      -10.0350   27.0500   38.7730 C.3   136  THR136      0.0375
@<TRIPOS>BOND
     1    59    60    1
     2    49    46    1
     3    49    50    1
     4    47    46    1
     5    47    48    2
     6    46    45    1
     7    63    60    1
     8    63    64    1
     9    60    61    1
    10    50    51   ar
    11    50    52   ar
    12    51    53   ar
    13    64    65    1
    14    68    61   am
    15    68    69    1
    16    61    62    2
    17   121   119    1
    18    52    55   ar
    19    52    54   ar
    20    53    54   ar
    21    55    57   ar
    22    79    80    1
    23    74    76   ar
    24    74    73   ar
    25    83    80    1
    26    83    84    1
    27    72    69    1
    28    72    73    1
    29    65    67   ar
    30    65    66   ar
    31    54    56   ar
    32    69    70    1
    33    76    78   ar
    34    85    84   ar
    35    85    87   ar
    36    70    71    2
    37    80    81    1
    38    73    75   ar
    39    84    86   ar
    40   117   116    1
    41   117   118    2
    42   119   116    1
    43   119   120    1
    44    57    58   ar
    45    87    89   ar
    46   116   115    1
    47    56    58   ar
    48    40    39    2
    49    78    77   ar
    50    86    88   ar
    51    75    77   ar
    52    89    88   ar
    53    89    90    1
    54    81    91   am
    55    81    82    2
    56    39    38    1
    57    41    38    1
    58    41    42    1
    59    43    42    1
    60    36    34   ar
    61    20    17    1
    62    91    92    1
    63    38    37    1
    64    42    44    1
    65    34    35   ar
    66    34    33    1
    67    17    18    1
    68    17    16    1
    69    18    19    2
    70    37    31   am
    71    92    95    1
    72    92    93    1
    73    95    96    1
    74    33    30    1
    75    93    94    2
    76    31    32    2
    77    31    30    1
    78    16    11   am
    79    12    11    2
    80    30    29    1
    81    11    10    1
    82    24    23    2
    83    96    98   ar
    84    96    97   ar
    85    21    22    1
    86    22    23    1
    87    22    25    1
    88    98   100   ar
    89     8     6    1
    90    97    99   ar
    91     6     5    1
    92    10     9    1
    93    10    13    1
    94   112   111    2
    95    27    25    1
    96    25    26    1
    97    14    13    1
    98   100   101   ar
    99     9     3   am
   100    15    13    1
   101    99   101   ar
   102   111   110    1
   103     5     2    1
   104     5     7    1
   105    26    28    1
   106     3     2    1
   107     3     4    2
   108     2     1    1
   109   113   110    1
   110   113   114    1
   111   110   109    1
   112   105   104    2
   113   108   106    1
   114   104   103    1
   115   103   106    1
   116   103   102    1
   117   107   106    1
