@<TRIPOS>MOLECULE
tmp/6dawA00.pdb
 177 175 0 0 0
SMALL
GASTEIGER

@<TRIPOS>ATOM
      1  N         95.0700   40.6170   -6.5670 N.3   124  LEU124     -0.1231
      2  CA        96.1350   40.7320   -5.5710 C.3   124  LEU124      0.1693
      3  C         97.4760   40.2910   -6.1490 C.2   124  LEU124      0.2591
      4  O         97.5980   39.2020   -6.7030 O.2   124  LEU124     -0.2718
      5  CB        95.8100   39.9200   -4.3100 C.3   124  LEU124      0.0284
      6  CG        94.6150   40.3850   -3.4710 C.3   124  LEU124      0.0019
      7  CD1       94.3570   39.4220   -2.3200 C.3   124  LEU124      0.0001
      8  CD2       94.8260   41.8040   -2.9530 C.3   124  LEU124      0.0001
      9  N         98.4790   41.1560   -6.0070 N.am  125  GLN125     -0.1979
     10  CA        99.8500   40.8890   -6.4590 C.3   125  GLN125      0.1601
     11  C         99.9320   40.2710   -7.8610 C.2   125  GLN125      0.2287
     12  O        100.7000   39.3350   -8.1030 O.2   125  GLN125     -0.2864
     13  CB       100.6030   40.0500   -5.4200 C.3   125  GLN125      0.0394
     14  CG       100.5170   40.6410   -4.0180 C.3   125  GLN125      0.0908
     15  CD       101.7040   40.3320   -3.1080 C.2   125  GLN125      0.2608
     16  OE1      102.7000   39.7230   -3.5170 O.2   125  GLN125     -0.2717
     17  NE2      101.6030   40.7740   -1.8570 N.am  125  GLN125     -0.0878
     18  N        102.5840   35.2290   -2.3560 N.3   131  HIS131     -0.1241
     19  CA       102.6740   36.6660   -2.1030 C.3   131  HIS131      0.1621
     20  C        103.8690   36.9950   -1.2240 C.2   131  HIS131      0.2264
     21  O        104.3530   36.1480   -0.4770 O.2   131  HIS131     -0.2867
     22  CB       101.4180   37.1600   -1.3840 C.3   131  HIS131      0.0745
     23  CG       100.1850   37.1420   -2.2290 C.ar  131  HIS131      0.0817
     24  ND1       99.0260   37.7890   -1.8580 N.ar  131  HIS131     -0.2268
     25  CD2       99.9310   36.5720   -3.4300 C.ar  131  HIS131      0.1154
     26  CE1       98.1090   37.6110   -2.7910 C.ar  131  HIS131      0.1986
     27  NE2       98.6320   36.8740   -3.7530 N.ar  131  HIS131     -0.2212
     28  N         95.1570   48.9180    5.8440 N.3   143  GLN143     -0.1231
     29  CA        94.7690   47.6550    6.4590 C.3   143  GLN143      0.1698
     30  C         95.0710   46.5170    5.4860 C.2   143  GLN143      0.2593
     31  O         94.1680   45.9040    4.9150 O.2   143  GLN143     -0.2718
     32  CB        93.2860   47.6740    6.8520 C.3   143  GLN143      0.0381
     33  CG        92.9920   48.5740    8.0460 C.3   143  GLN143      0.0905
     34  CD        93.6050   48.0450    9.3330 C.2   143  GLN143      0.2608
     35  OE1       93.4300   46.8760    9.6750 O.2   143  GLN143     -0.2717
     36  NE2       94.3260   48.9030   10.0520 N.am  143  GLN143     -0.0878
     37  N         96.3620   46.2570    5.3090 N.am  144  SER144     -0.1938
     38  CA        96.8570   45.2280    4.4010 C.3   144  SER144      0.2055
     39  C         98.1540   44.6750    4.9670 C.2   144  SER144      0.2644
     40  O         98.6510   45.1660    5.9850 O.2   144  SER144     -0.2714
     41  CB        97.1070   45.8120    3.0040 C.3   144  SER144      0.2130
     42  OG        98.3280   46.5400    2.9440 O.3   144  SER144     -0.2179
     43  N         98.7110   43.6720    4.2970 N.am  145  GLY145     -0.1939
     44  CA       100.0080   43.1240    4.6780 C.3   145  GLY145      0.2014
     45  C        101.1800   44.0760    4.4560 C.2   145  GLY145      0.2638
     46  O        102.3110   43.7640    4.8380 O.2   145  GLY145     -0.2714
     47  N        100.9190   45.2270    3.8280 N.am  146  HIS146     -0.1973
     48  CA       101.9580   46.2180    3.5320 C.3   146  HIS146      0.1656
     49  C        101.9480   47.4310    4.4720 C.2   146  HIS146      0.2291
     50  O        102.7460   48.3570    4.2990 O.2   146  HIS146     -0.2864
     51  CB       101.8190   46.6790    2.0810 C.3   146  HIS146      0.0771
     52  CG       101.6630   45.5480    1.1130 C.ar  146  HIS146      0.0820
     53  ND1      102.6100   44.5580    0.9690 N.ar  146  HIS146     -0.2267
     54  CD2      100.6600   45.2340    0.2620 C.ar  146  HIS146      0.1154
     55  CE1      102.2020   43.6880    0.0650 C.ar  146  HIS146      0.1986
     56  NE2      101.0230   44.0760   -0.3810 N.ar  146  HIS146     -0.2212
     57  N         97.3180   45.9390   12.0740 N.3   151  LEU151     -0.1231
     58  CA        96.4290   45.2350   11.1470 C.3   151  LEU151      0.1693
     59  C         95.3010   44.5850   11.9420 C.2   151  LEU151      0.2592
     60  O         95.5270   43.6220   12.6830 O.2   151  LEU151     -0.2718
     61  CB        97.2080   44.1740   10.3540 C.3   151  LEU151      0.0284
     62  CG        96.4550   43.3850    9.2750 C.3   151  LEU151      0.0019
     63  CD1       95.9660   44.3060    8.1690 C.3   151  LEU151      0.0001
     64  CD2       97.3370   42.2910    8.6950 C.3   151  LEU151      0.0001
     65  N         94.0900   45.1170   11.8000 N.am  152  ALA152     -0.1966
     66  CA        92.9310   44.5760   12.5050 C.3   152  ALA152      0.1728
     67  C         92.7000   43.1330   12.0840 C.2   152  ALA152      0.2616
     68  O         92.9190   42.7720   10.9200 O.2   152  ALA152     -0.2715
     69  CB        91.6880   45.4120   12.2300 C.3   152  ALA152      0.0334
     70  N         92.2640   42.3090   13.0310 N.am  153  TRP153     -0.1960
     71  CA        92.0700   40.8890   12.7500 C.3   153  TRP153      0.1771
     72  C         90.8540   40.6800   11.8520 C.2   153  TRP153      0.2620
     73  O         89.9400   41.5060   11.8180 O.2   153  TRP153     -0.2715
     74  CB        91.9910   40.0430   14.0310 C.3   153  TRP153      0.0590
     75  CG        91.0070   40.5130   15.0650 C.ar  153  TRP153      0.0006
     76  CD1       91.2950   41.1830   16.2230 C.ar  153  TRP153      0.0946
     77  CD2       89.5860   40.3330   15.0470 C.ar  153  TRP153      0.0152
     78  NE1       90.1420   41.4320   16.9240 N.ar  153  TRP153     -0.2442
     79  CE2       89.0780   40.9230   16.2250 C.ar  153  TRP153      0.0810
     80  CE3       88.6930   39.7330   14.1500 C.ar  153  TRP153      0.0012
     81  CZ2       87.7170   40.9330   16.5280 C.ar  153  TRP153      0.0191
     82  CZ3       87.3440   39.7380   14.4520 C.ar  153  TRP153      0.0001
     83  CH2       86.8660   40.3340   15.6320 C.ar  153  TRP153      0.0015
     84  N         90.8690   39.5750   11.1120 N.am  154  HIS154     -0.1959
     85  CA        89.8730   39.3150   10.0790 C.3   154  HIS154      0.1787
     86  C         90.0040   37.8980    9.5420 C.2   154  HIS154      0.2621
     87  O         91.0520   37.2710    9.6740 O.2   154  HIS154     -0.2715
     88  CB        90.0880   40.2820    8.9130 C.3   154  HIS154      0.0785
     89  CG        91.4700   40.2220    8.3490 C.ar  154  HIS154      0.0821
     90  ND1       92.5420   40.8650    8.9330 N.ar  154  HIS154     -0.2267
     91  CD2       91.9690   39.5530    7.2840 C.ar  154  HIS154      0.1154
     92  CE1       93.6360   40.6130    8.2380 C.ar  154  HIS154      0.1986
     93  NE2       93.3140   39.8200    7.2330 N.ar  154  HIS154     -0.2212
     94  N         88.9310   37.4030    8.9330 N.am  155  THR155     -0.1937
     95  CA        88.9960   36.2190    8.0840 C.3   155  THR155      0.2028
     96  C         89.6530   36.6510    6.7760 C.2   155  THR155      0.2642
     97  O         89.3080   37.6960    6.2390 O.2   155  THR155     -0.2714
     98  CB        87.5840   35.6990    7.7430 C.3   155  THR155      0.1808
     99  OG1       86.8550   35.4380    8.9450 O.3   155  THR155     -0.2208
    100  CG2       87.6540   34.4350    6.9090 C.3   155  THR155      0.0379
    101  N         90.5810   35.8540    6.2560 N.am  156  GLU156     -0.1963
    102  CA        91.2160   36.1770    4.9770 C.3   156  GLU156      0.1733
    103  C         90.1760   36.2240    3.8580 C.2   156  GLU156      0.2616
    104  O         89.4440   35.2570    3.6470 O.2   156  GLU156     -0.2715
    105  CB        92.3000   35.1570    4.6330 C.3   156  GLU156      0.0429
    106  CG        93.2420   35.5960    3.5220 C.3   156  GLU156      0.1163
    107  CD        94.0260   36.8540    3.8570 C.2   156  GLU156      0.3649
    108  OE1       94.1250   37.2320    5.0430 O.co2 156  GLU156     -0.2457
    109  OE2       94.5520   37.4780    2.9200 O.co2 156  GLU156     -0.2457
    110  N         90.1160   37.3550    3.1550 N.am  157  ASP157     -0.1971
    111  CA        89.1510   37.5650    2.0670 C.3   157  ASP157      0.1709
    112  C         87.7130   37.2150    2.4840 C.2   157  ASP157      0.2293
    113  O         86.9530   36.6150    1.7220 O.2   157  ASP157     -0.2864
    114  CB        89.5870   36.7830    0.8230 C.3   157  ASP157      0.1436
    115  CG        90.9540   37.2200    0.3170 C.2   157  ASP157      0.3671
    116  OD1       91.1550   38.4330    0.1300 O.co2 157  ASP157     -0.2456
    117  OD2       91.8360   36.3630    0.1060 O.co2 157  ASP157     -0.2456
    118  N         88.3930   44.3490    0.8290 N.3   208  ASP208     -0.1239
    119  CA        89.3550   45.3200    1.3350 C.3   208  ASP208      0.1674
    120  C         89.8560   46.2260    0.2080 C.2   208  ASP208      0.2266
    121  O         89.6510   45.9520   -0.9790 O.2   208  ASP208     -0.2867
    122  CB        90.5190   44.6350    2.0580 C.3   208  ASP208      0.1410
    123  CG        91.2860   43.6920    1.1690 C.2   208  ASP208      0.3668
    124  OD1       90.8160   42.5570    0.9600 O.co2 208  ASP208     -0.2456
    125  OD2       92.3670   44.0760    0.6900 O.co2 208  ASP208     -0.2456
    126  N         92.8500   46.9180   -0.9790 N.3   210  GLU210     -0.1231
    127  CA        93.8500   46.3690   -1.9010 C.3   210  GLU210      0.1699
    128  C         93.1860   45.6680   -3.0910 C.2   210  GLU210      0.2592
    129  O         93.5630   45.9040   -4.2340 O.2   210  GLU210     -0.2718
    130  CB        94.7920   45.4080   -1.1680 C.3   210  GLU210      0.0402
    131  CG        96.0180   44.9700   -1.9610 C.3   210  GLU210      0.1161
    132  CD        96.9580   46.1120   -2.3050 C.2   210  GLU210      0.3649
    133  OE1       96.9750   47.1270   -1.5790 O.co2 210  GLU210     -0.2457
    134  OE2       97.6890   45.9870   -3.3080 O.co2 210  GLU210     -0.2457
    135  N         92.1970   44.8190   -2.8120 N.am  211  HIS211     -0.1976
    136  CA        91.3910   44.1700   -3.8570 C.3   211  HIS211      0.1656
    137  C         90.7840   45.1780   -4.8350 C.2   211  HIS211      0.2291
    138  O         90.9400   45.0460   -6.0490 O.2   211  HIS211     -0.2864
    139  CB        90.2510   43.3410   -3.2370 C.3   211  HIS211      0.0771
    140  CG        90.5720   41.8890   -3.0440 C.ar  211  HIS211      0.0820
    141  ND1       90.8520   41.0430   -4.0940 N.ar  211  HIS211     -0.2267
    142  CD2       90.6020   41.1230   -1.9290 C.ar  211  HIS211      0.1154
    143  CE1       91.0670   39.8240   -3.6330 C.ar  211  HIS211      0.1986
    144  NE2       90.9220   39.8450   -2.3210 N.ar  211  HIS211     -0.2212
    145  N         85.0330   40.2120    9.1740 N.3   253  ASP253     -0.1239
    146  CA        86.0500   41.1940    8.7780 C.3   253  ASP253      0.1674
    147  C         85.5910   42.5750    9.2550 C.2   253  ASP253      0.2266
    148  O         85.0140   43.3340    8.4790 O.2   253  ASP253     -0.2867
    149  CB        86.2560   41.1730    7.2550 C.3   253  ASP253      0.1410
    150  CG        87.5000   41.9450    6.8030 C.2   253  ASP253      0.3668
    151  OD1       88.1070   42.6800    7.6070 O.co2 253  ASP253     -0.2456
    152  OD2       87.8850   41.8110    5.6220 O.co2 253  ASP253     -0.2456
    153  N         86.8460   45.5570    9.8890 N.3   255  ALA255     -0.1231
    154  CA        87.2500   46.7680    9.1660 C.3   255  ALA255      0.1694
    155  C         86.5390   46.9550    7.8180 C.2   255  ALA255      0.2592
    156  O         86.5180   48.0650    7.2890 O.2   255  ALA255     -0.2718
    157  CB        88.7580   46.7770    8.9620 C.3   255  ALA255      0.0304
    158  N         85.9720   45.8810    7.2600 N.am  256  PHE256     -0.1976
    159  CA        85.2670   45.9640    5.9750 C.3   256  PHE256      0.1639
    160  C         83.8800   45.3230    5.9990 C.2   256  PHE256      0.2290
    161  O         83.4140   44.8120    4.9840 O.2   256  PHE256     -0.2864
    162  CB        86.1260   45.3610    4.8530 C.3   256  PHE256      0.0560
    163  CG        87.4250   46.0870    4.6400 C.ar  256  PHE256     -0.0200
    164  CD1       87.4590   47.2750    3.9230 C.ar  256  PHE256     -0.0042
    165  CD2       88.6070   45.6000    5.1760 C.ar  256  PHE256     -0.0042
    166  CE1       88.6510   47.9600    3.7390 C.ar  256  PHE256     -0.0003
    167  CE2       89.8060   46.2720    4.9940 C.ar  256  PHE256     -0.0003
    168  CZ        89.8290   47.4550    4.2730 C.ar  256  PHE256     -0.0000
    169  N        103.5750   34.2030    1.5870 N.3   319  LYS319     -0.1245
    170  CA       102.1830   33.8750    1.8640 C.3   319  LYS319      0.1561
    171  C        101.5550   33.1060    0.7080 C.2   319  LYS319      0.2260
    172  O        101.7670   33.4400   -0.4540 O.2   319  LYS319     -0.2867
    173  CB       101.3870   35.1590    2.1340 C.3   319  LYS319      0.0271
    174  CG        99.8740   35.0030    2.0620 C.3   319  LYS319      0.0035
    175  CD        99.1730   36.3300    2.2980 C.3   319  LYS319      0.0206
    176  CE        97.6890   36.2400    1.9920 C.3   319  LYS319      0.1093
    177  NZ        97.0450   37.5790    1.9860 N.3   319  LYS319     -0.1314
@<TRIPOS>BOND
     1    12    11    2
     2    11    10    1
     3     4     3    2
     4     1     2    1
     5    10     9    1
     6    10    13    1
     7     3     9   am
     8     3     2    1
     9   138   137    2
    10     2     5    1
    11    13    14    1
    12   137   136    1
    13     5     6    1
    14   129   128    2
    15   141   143   ar
    16   141   140   ar
    17    14    15    1
    18   136   139    1
    19   136   135    1
    20    27    25   ar
    21    27    26   ar
    22   143   144   ar
    23    16    15    2
    24     6     8    1
    25     6     7    1
    26    25    23   ar
    27   134   132   ar
    28   139   140    1
    29    15    17   am
    30   128   135   am
    31   128   127    1
    32   140   142   ar
    33    26    24   ar
    34    18    19    1
    35   144   142   ar
    36   132   131    1
    37   132   133   ar
    38    23    24   ar
    39    23    22    1
    40    19    22    1
    41    19    20    1
    42   131   130    1
    43   127   130    1
    44   127   126    1
    45    20    21    2
    46   121   120    2
    47   172   171    2
    48    56    55   ar
    49    56    54   ar
    50    55    53   ar
    51   117   115   ar
    52   116   115   ar
    53   120   119    1
    54    54    52   ar
    55   115   114    1
    56   125   123   ar
    57   171   170    1
    58   114   111    1
    59   118   119    1
    60   124   123   ar
    61    53    52   ar
    62    52    51    1
    63   123   122    1
    64   119   122    1
    65   169   170    1
    66   113   112    2
    67   170   173    1
    68   177   176    1
    69   176   175    1
    70   174   173    1
    71   174   175    1
    72   111   112    1
    73   111   110    1
    74    51    48    1
    75   109   107   ar
    76    42    41    1
    77    41    38    1
    78   110   103   am
    79   106   107    1
    80   106   105    1
    81    48    47    1
    82    48    49    1
    83   104   103    2
    84   166   164   ar
    85   166   168   ar
    86    47    45   am
    87   107   108   ar
    88   103   102    1
    89   164   163   ar
    90   168   167   ar
    91    43    44    1
    92    43    39   am
    93    50    49    2
    94    38    39    1
    95    38    37    1
    96    45    44    1
    97    45    46    2
    98   105   102    1
    99   163   162    1
   100   163   165   ar
   101   162   159    1
   102    31    30    2
   103    39    40    2
   104   102   101    1
   105   161   160    2
   106   167   165   ar
   107    37    30   am
   108    30    29    1
   109   152   150   ar
   110    28    29    1
   111   159   160    1
   112   159   158    1
   113    97    96    2
   114   101    96   am
   115    29    32    1
   116    96    95    1
   117   150   149    1
   118   150   151   ar
   119    32    33    1
   120   100    98    1
   121    93    91   ar
   122    93    92   ar
   123   149   146    1
   124   158   155   am
   125    91    89   ar
   126   156   155    2
   127    98    95    1
   128    98    99    1
   129   155   154    1
   130    33    34    1
   131    95    94    1
   132    63    62    1
   133    92    90   ar
   134    89    88    1
   135    89    90   ar
   136   148   147    2
   137    64    62    1
   138   146   145    1
   139   146   147    1
   140    88    85    1
   141    94    86   am
   142   157   154    1
   143   154   153    1
   144    62    61    1
   145    34    35    2
   146    34    36   am
   147    86    87    2
   148    86    85    1
   149    85    84    1
   150    61    58    1
   151    68    67    2
   152    84    72   am
   153    58    59    1
   154    58    57    1
   155    65    59   am
   156    65    66    1
   157    73    72    2
   158    72    71    1
   159    59    60    2
   160    67    66    1
   161    67    70   am
   162    69    66    1
   163    71    70    1
   164    71    74    1
   165    74    75    1
   166    80    82   ar
   167    80    77   ar
   168    82    83   ar
   169    77    75   ar
   170    77    79   ar
   171    75    76   ar
   172    83    81   ar
   173    76    78   ar
   174    79    81   ar
   175    79    78   ar
