@<TRIPOS>MOLECULE
tmp/6daxA01.pdb
 144 139 0 0 0
SMALL
GASTEIGER

@<TRIPOS>ATOM
      1  N         18.8480    5.6110   12.5040 N.3   117  GLN117     -0.1231
      2  CA        18.3370    4.8800   13.6750 C.3   117  GLN117      0.1698
      3  C         18.9510    3.4880   13.7580 C.2   117  GLN117      0.2592
      4  O         18.8540    2.7060   12.8130 O.2   117  GLN117     -0.2718
      5  CB        16.8100    4.7260   13.6230 C.3   117  GLN117      0.0381
      6  CG        16.0160    5.9100   14.1470 C.3   117  GLN117      0.0905
      7  CD        14.5720    5.5420   14.4760 C.2   117  GLN117      0.2608
      8  OE1       14.3110    4.7340   15.3660 O.2   117  GLN117     -0.2717
      9  NE2       13.6300    6.1410   13.7620 N.am  117  GLN117     -0.0878
     10  N         19.5700    3.1880   14.8970 N.am  118  GLN118     -0.1979
     11  CA        20.1630    1.8770   15.1580 C.3   118  GLN118      0.1601
     12  C         20.8900    1.2960   13.9350 C.2   118  GLN118      0.2287
     13  O         20.6140    0.1760   13.5040 O.2   118  GLN118     -0.2864
     14  CB        19.0970    0.9090   15.6970 C.3   118  GLN118      0.0394
     15  CG        18.4760    1.3680   17.0130 C.3   118  GLN118      0.0908
     16  CD        17.6100    0.3100   17.6850 C.2   118  GLN118      0.2608
     17  OE1       17.7260   -0.8800   17.4050 O.2   118  GLN118     -0.2717
     18  NE2       16.7330    0.7470   18.5840 N.am  118  GLN118     -0.0878
     19  N         14.3900   10.5560   25.8330 N.3   136  LEU136     -0.1231
     20  CA        13.1760   10.6190   25.0230 C.3   136  LEU136      0.1693
     21  C         13.1100    9.5010   23.9780 C.2   136  LEU136      0.2592
     22  O         12.2850    9.5560   23.0670 O.2   136  LEU136     -0.2718
     23  CB        13.0760   11.9920   24.3420 C.3   136  LEU136      0.0284
     24  CG        13.1010   13.1920   25.2920 C.3   136  LEU136      0.0019
     25  CD1       13.3050   14.4890   24.5210 C.3   136  LEU136      0.0001
     26  CD2       11.8300   13.2490   26.1310 C.3   136  LEU136      0.0001
     27  N         13.9610    8.4830   24.1210 N.am  137  VAL137     -0.1966
     28  CA        14.0080    7.3700   23.1710 C.3   137  VAL137      0.1727
     29  C         13.4540    6.0870   23.8020 C.2   137  VAL137      0.2616
     30  O         13.1740    6.0450   25.0020 O.2   137  VAL137     -0.2715
     31  CB        15.4370    7.1520   22.6150 C.3   137  VAL137      0.0290
     32  CG1       15.8780    8.3740   21.8210 C.3   137  VAL137      0.0023
     33  CG2       16.4350    6.8500   23.7260 C.3   137  VAL137      0.0023
     34  N         13.3190    5.0430   22.9880 N.am  138  SER138     -0.1950
     35  CA        12.6360    3.8160   23.3920 C.3   138  SER138      0.1924
     36  C         13.4260    2.9690   24.3940 C.2   138  SER138      0.2314
     37  O         12.8770    2.0270   24.9710 O.2   138  SER138     -0.2863
     38  CB        12.3000    2.9740   22.1570 C.3   138  SER138      0.2116
     39  OG        13.4840    2.5580   21.4940 O.3   138  SER138     -0.2180
     40  N          7.7140    7.1620   28.1730 N.3   145  LEU145     -0.1231
     41  CA         7.8810    7.5410   26.7760 C.3   145  LEU145      0.1693
     42  C          6.5630    8.1710   26.3340 C.2   145  LEU145      0.2593
     43  O          5.5540    7.4790   26.1800 O.2   145  LEU145     -0.2718
     44  CB         8.2450    6.3340   25.9060 C.3   145  LEU145      0.0284
     45  CG         8.6140    6.6510   24.4510 C.3   145  LEU145      0.0019
     46  CD1        9.9410    7.3900   24.3730 C.3   145  LEU145      0.0001
     47  CD2        8.6650    5.3850   23.6050 C.3   145  LEU145      0.0001
     48  N          6.5760    9.4920   26.1680 N.am  146  GLY146     -0.1942
     49  CA         5.3780   10.2520   25.8140 C.3   146  GLY146      0.2014
     50  C          4.7830    9.8340   24.4840 C.2   146  GLY146      0.2639
     51  O          5.4850    9.3250   23.6090 O.2   146  GLY146     -0.2714
     52  N          3.4770   10.0360   24.3400 N.am  147  TRP147     -0.1959
     53  CA         2.7780    9.6170   23.1220 C.3   147  TRP147      0.1771
     54  C          3.2900   10.3470   21.8870 C.2   147  TRP147      0.2619
     55  O          3.6520   11.5250   21.9490 O.2   147  TRP147     -0.2715
     56  CB         1.2580    9.7630   23.2400 C.3   147  TRP147      0.0590
     57  CG         0.7550   11.0800   23.7760 C.ar  147  TRP147      0.0006
     58  CD1        0.3460   11.3330   25.0510 C.ar  147  TRP147      0.0946
     59  CD2        0.5680   12.2990   23.0470 C.ar  147  TRP147      0.0152
     60  NE1       -0.0650   12.6320   25.1690 N.ar  147  TRP147     -0.2442
     61  CE2        0.0640   13.2520   23.9550 C.ar  147  TRP147      0.0810
     62  CE3        0.7940   12.6870   21.7200 C.ar  147  TRP147      0.0012
     63  CZ2       -0.2290   14.5640   23.5800 C.ar  147  TRP147      0.0191
     64  CZ3        0.5020   13.9930   21.3480 C.ar  147  TRP147      0.0001
     65  CH2       -0.0060   14.9150   22.2750 C.ar  147  TRP147      0.0015
     66  N          3.3230    9.6340   20.7670 N.am  148  HIS148     -0.1973
     67  CA         3.8330   10.1980   19.5210 C.3   148  HIS148      0.1656
     68  C          3.3980    9.4140   18.2890 C.2   148  HIS148      0.2291
     69  O          3.1470    8.2080   18.3510 O.2   148  HIS148     -0.2864
     70  CB         5.3620   10.2420   19.5600 C.3   148  HIS148      0.0771
     71  CG         5.9980    8.9020   19.7690 C.ar  148  HIS148      0.0820
     72  ND1        6.1690    8.3470   21.0190 N.ar  148  HIS148     -0.2267
     73  CD2        6.4980    8.0030   18.8870 C.ar  148  HIS148      0.1154
     74  CE1        6.7550    7.1700   20.9000 C.ar  148  HIS148      0.1986
     75  NE2        6.9580    6.9340   19.6170 N.ar  148  HIS148     -0.2212
     76  N          4.9790    7.9120   15.1300 N.3   150  GLU150     -0.1231
     77  CA         6.3340    7.4650   14.8390 C.3   150  GLU150      0.1699
     78  C          6.9270    8.2950   13.7070 C.2   150  GLU150      0.2592
     79  O          6.3160    8.4330   12.6490 O.2   150  GLU150     -0.2718
     80  CB         6.3580    5.9850   14.4670 C.3   150  GLU150      0.0402
     81  CG         7.7390    5.3530   14.5750 C.3   150  GLU150      0.1161
     82  CD         8.2130    5.1820   16.0110 C.2   150  GLU150      0.3649
     83  OE1        7.3840    5.2280   16.9500 O.co2 150  GLU150     -0.2457
     84  OE2        9.4320    4.9880   16.2040 O.co2 150  GLU150     -0.2457
     85  N          8.1030    8.8660   13.9560 N.am  151  ASP151     -0.1974
     86  CA         8.8120    9.6960   12.9710 C.3   151  ASP151      0.1709
     87  C          7.9350   10.8060   12.3890 C.2   151  ASP151      0.2293
     88  O          7.9310   11.0580   11.1830 O.2   151  ASP151     -0.2864
     89  CB         9.3940    8.8110   11.8700 C.3   151  ASP151      0.1436
     90  CG        10.3850    7.8140   12.4080 C.2   151  ASP151      0.3671
     91  OD1       11.3500    8.2530   13.0630 O.co2 151  ASP151     -0.2456
     92  OD2       10.1970    6.5980   12.1960 O.co2 151  ASP151     -0.2456
     93  N         12.9340   13.3260   16.3570 N.3   202  ASP202     -0.1239
     94  CA        13.1880   12.9030   17.7290 C.3   202  ASP202      0.1674
     95  C         14.6560   12.5180   17.9260 C.2   202  ASP202      0.2266
     96  O         15.4180   12.4230   16.9620 O.2   202  ASP202     -0.2867
     97  CB        12.2680   11.7390   18.1040 C.3   202  ASP202      0.1410
     98  CG        12.6950   10.4300   17.4750 C.2   202  ASP202      0.3668
     99  OD1       13.5340    9.7320   18.0810 O.co2 202  ASP202     -0.2456
    100  OD2       12.1850   10.0960   16.3840 O.co2 202  ASP202     -0.2456
    101  N         16.2280    9.7790   18.6020 N.3   204  SER204     -0.1217
    102  CA        16.7460    8.5220   18.0390 C.3   204  SER204      0.1889
    103  C         17.4710    8.7040   16.6970 C.2   204  SER204      0.2288
    104  O         18.2230    7.8180   16.2780 O.2   204  SER204     -0.2866
    105  CB        15.6260    7.4910   17.8760 C.3   204  SER204      0.2089
    106  OG        14.7460    7.8500   16.8250 O.3   204  SER204     -0.2183
    107  N          3.5770   14.8350   17.9140 N.3   248  ASP248     -0.1239
    108  CA         4.4870   14.2890   18.9070 C.3   248  ASP248      0.1674
    109  C          4.4180   15.1730   20.1420 C.2   248  ASP248      0.2266
    110  O          4.7110   16.3650   20.0710 O.2   248  ASP248     -0.2867
    111  CB         5.9150   14.2330   18.3600 C.3   248  ASP248      0.1410
    112  CG         6.8880   13.5840   19.3290 C.2   248  ASP248      0.3668
    113  OD1        7.6170   12.6540   18.9200 O.co2 248  ASP248     -0.2456
    114  OD2        6.9280   14.0070   20.5030 O.co2 248  ASP248     -0.2456
    115  N          6.2610   15.6240   22.6780 N.3   250  ASP250     -0.1225
    116  CA         7.5000   16.2870   23.1020 C.3   250  ASP250      0.1805
    117  C          8.2220   17.0560   21.9920 C.2   250  ASP250      0.2597
    118  O          9.1340   17.8300   22.2800 O.2   250  ASP250     -0.2718
    119  CB         8.4650   15.2570   23.6910 C.3   250  ASP250      0.1424
    120  CG         7.9420   14.6300   24.9660 C.2   250  ASP250      0.3668
    121  OD1        7.6190   15.3710   25.9150 O.co2 250  ASP250     -0.2456
    122  OD2        7.8660   13.3910   25.0220 O.co2 250  ASP250     -0.2456
    123  N          7.8410   16.8410   20.7350 N.am  251  PHE251     -0.1976
    124  CA         8.5370   17.4750   19.6120 C.3   251  PHE251      0.1639
    125  C          7.6510   18.3690   18.7290 C.2   251  PHE251      0.2290
    126  O          8.1560   18.9920   17.7960 O.2   251  PHE251     -0.2864
    127  CB         9.2620   16.4090   18.7800 C.3   251  PHE251      0.0560
    128  CG        10.4320   15.7850   19.4980 C.ar  251  PHE251     -0.0200
    129  CD1       11.6550   16.4430   19.5540 C.ar  251  PHE251     -0.0042
    130  CD2       10.3070   14.5590   20.1380 C.ar  251  PHE251     -0.0042
    131  CE1       12.7300   15.8850   20.2250 C.ar  251  PHE251     -0.0003
    132  CE2       11.3790   13.9940   20.8100 C.ar  251  PHE251     -0.0003
    133  CZ        12.5920   14.6590   20.8550 C.ar  251  PHE251     -0.0000
    134  N         11.1480   -4.5530   16.9270 N.3   314  ARG314     -0.1245
    135  CA        10.3620   -3.4770   16.3390 C.3   314  ARG314      0.1563
    136  C         10.6580   -3.3540   14.8440 C.2   314  ARG314      0.2260
    137  O         11.7630   -3.6580   14.3990 O.2   314  ARG314     -0.2867
    138  CB        10.6900   -2.1760   17.0750 C.3   314  ARG314      0.0307
    139  CG        10.0300   -0.9190   16.5410 C.3   314  ARG314      0.0489
    140  CD        10.5360    0.2940   17.3070 C.3   314  ARG314      0.2205
    141  NE        10.3860    1.5220   16.5380 N.pl3 314  ARG314     -0.0865
    142  CZ        11.1470    1.8670   15.4980 C.cat 314  ARG314      0.5346
    143  NH1       12.1320    1.0800   15.0690 N.pl3 314  ARG314      0.1354
    144  NH2       10.9160    3.0100   14.8750 N.pl3 314  ARG314      0.1354
@<TRIPOS>BOND
     1    88    87    2
     2    89    90    1
     3    89    86    1
     4    92    90   ar
     5    87    86    1
     6    90    91   ar
     7     1     2    1
     8    79    78    2
     9     4     3    2
    10    86    85    1
    11    13    12    2
    12     5     2    1
    13     5     6    1
    14     2     3    1
    15    78    85   am
    16    78    77    1
    17     3    10   am
    18     9     7   am
    19    12    11    1
    20     6     7    1
    21   137   136    2
    22    80    81    1
    23    80    77    1
    24     7     8    2
    25    81    82    1
    26    77    76    1
    27   136   135    1
    28   144   142    1
    29    10    11    1
    30   143   142    1
    31    11    14    1
    32   142   141    2
    33    14    15    1
    34    82    84   ar
    35    82    83   ar
    36   104   103    2
    37   135   134    1
    38   135   138    1
    39    93    94    1
    40   100    98   ar
    41   141   140    1
    42   139   138    1
    43   139   140    1
    44   103   102    1
    45   106   105    1
    46    96    95    2
    47    15    16    1
    48    17    16    2
    49    98    99   ar
    50    98    97    1
    51    16    18   am
    52    94    95    1
    53    94    97    1
    54   126   125    2
    55   105   102    1
    56   107   108    1
    57   102   101    1
    58    68    69    2
    59    68    67    1
    60   111   108    1
    61   111   112    1
    62   125   124    1
    63   127   128    1
    64   127   124    1
    65    73    75   ar
    66    73    71   ar
    67   108   109    1
    68   113   112   ar
    69   112   114   ar
    70   128   129   ar
    71   128   130   ar
    72    67    70    1
    73    67    66    1
    74   129   131   ar
    75    70    71    1
    76   124   123    1
    77    75    74   ar
    78    71    72   ar
    79   110   109    2
    80   130   132   ar
    81   131   133   ar
    82   123   117   am
    83    66    54   am
    84   132   133   ar
    85    74    72   ar
    86    64    62   ar
    87    64    65   ar
    88    39    38    1
    89    62    59   ar
    90    32    31    1
    91    54    55    2
    92    54    53    1
    93   117   118    2
    94   117   116    1
    95    38    35    1
    96    65    63   ar
    97    31    28    1
    98    31    33    1
    99   115   116    1
   100    34    35    1
   101    34    29   am
   102    59    57   ar
   103    59    61   ar
   104    22    21    2
   105   116   119    1
   106    53    56    1
   107    53    52    1
   108    28    29    1
   109    28    27    1
   110    56    57    1
   111    35    36    1
   112    63    61   ar
   113    47    45    1
   114    51    50    2
   115   119   120    1
   116    57    58   ar
   117    29    30    2
   118    61    60   ar
   119    21    27   am
   120    21    20    1
   121    52    50   am
   122    23    20    1
   123    23    24    1
   124    46    45    1
   125    36    37    2
   126    45    44    1
   127    50    49    1
   128    25    24    1
   129   120   122   ar
   130   120   121   ar
   131    20    19    1
   132    58    60   ar
   133    24    26    1
   134    49    48    1
   135    44    41    1
   136    48    42   am
   137    43    42    2
   138    42    41    1
   139    41    40    1
