@<TRIPOS>MOLECULE
tmp/6daxA00.pdb
 117 107 0 0 0
SMALL
GASTEIGER

@<TRIPOS>ATOM
      1  N         13.8720   -2.6180   21.2950 N.3   126  VAL126     -0.1245
      2  CA        13.3810   -1.7870   22.3790 C.3   126  VAL126      0.1561
      3  C         13.7380   -2.5010   23.6820 C.2   126  VAL126      0.2260
      4  O         13.2090   -3.5780   23.9790 O.2   126  VAL126     -0.2867
      5  CB        11.8530   -1.6000   22.2950 C.3   126  VAL126      0.0252
      6  CG1       11.3360   -0.7780   23.4710 C.3   126  VAL126      0.0019
      7  CG2       11.4630   -0.9600   20.9680 C.3   126  VAL126      0.0019
      8  N         13.3190    5.0430   22.9880 N.3   138  SER138     -0.1217
      9  CA        12.6360    3.8160   23.3920 C.3   138  SER138      0.1889
     10  C         13.4260    2.9690   24.3940 C.2   138  SER138      0.2288
     11  O         12.8770    2.0270   24.9710 O.2   138  SER138     -0.2866
     12  CB        12.3000    2.9740   22.1570 C.3   138  SER138      0.2089
     13  OG        13.4840    2.5580   21.4940 O.3   138  SER138     -0.2183
     14  N          7.7140    7.1620   28.1730 N.3   145  LEU145     -0.1245
     15  CA         7.8810    7.5410   26.7760 C.3   145  LEU145      0.1561
     16  C          6.5630    8.1710   26.3340 C.2   145  LEU145      0.2260
     17  O          5.5540    7.4790   26.1800 O.2   145  LEU145     -0.2867
     18  CB         8.2450    6.3340   25.9060 C.3   145  LEU145      0.0270
     19  CG         8.6140    6.6510   24.4510 C.3   145  LEU145      0.0019
     20  CD1        9.9410    7.3900   24.3730 C.3   145  LEU145      0.0001
     21  CD2        8.6650    5.3850   23.6050 C.3   145  LEU145      0.0001
     22  N          3.3230    9.6340   20.7670 N.3   148  HIS148     -0.1241
     23  CA         3.8330   10.1980   19.5210 C.3   148  HIS148      0.1621
     24  C          3.3980    9.4140   18.2890 C.2   148  HIS148      0.2264
     25  O          3.1470    8.2080   18.3510 O.2   148  HIS148     -0.2867
     26  CB         5.3620   10.2420   19.5600 C.3   148  HIS148      0.0745
     27  CG         5.9980    8.9020   19.7690 C.ar  148  HIS148      0.0817
     28  ND1        6.1690    8.3470   21.0190 N.ar  148  HIS148     -0.2268
     29  CD2        6.4980    8.0030   18.8870 C.ar  148  HIS148      0.1154
     30  CE1        6.7550    7.1700   20.9000 C.ar  148  HIS148      0.1986
     31  NE2        6.9580    6.9340   19.6170 N.ar  148  HIS148     -0.2212
     32  N          4.9790    7.9120   15.1300 N.3   150  GLU150     -0.1245
     33  CA         6.3340    7.4650   14.8390 C.3   150  GLU150      0.1567
     34  C          6.9270    8.2950   13.7070 C.2   150  GLU150      0.2260
     35  O          6.3160    8.4330   12.6490 O.2   150  GLU150     -0.2867
     36  CB         6.3580    5.9850   14.4670 C.3   150  GLU150      0.0388
     37  CG         7.7390    5.3530   14.5750 C.3   150  GLU150      0.1160
     38  CD         8.2130    5.1820   16.0110 C.2   150  GLU150      0.3649
     39  OE1        7.3840    5.2280   16.9500 O.co2 150  GLU150     -0.2457
     40  OE2        9.4320    4.9880   16.2040 O.co2 150  GLU150     -0.2457
     41  N          3.5520    0.5030   12.7830 N.3   161  VAL161     -0.1245
     42  CA         4.7060    0.1860   13.6180 C.3   161  VAL161      0.1561
     43  C          4.4360   -1.1600   14.2770 C.2   161  VAL161      0.2260
     44  O          3.4410   -1.3220   14.9940 O.2   161  VAL161     -0.2867
     45  CB         4.9460    1.2650   14.6900 C.3   161  VAL161      0.0252
     46  CG1        6.0920    0.8670   15.6160 C.3   161  VAL161      0.0019
     47  CG2        5.2250    2.6090   14.0300 C.3   161  VAL161      0.0019
     48  N          5.4650   -4.2440   16.8410 N.3   163  LEU163     -0.1245
     49  CA         6.1540   -4.4930   18.1060 C.3   163  LEU163      0.1561
     50  C          5.9000   -5.9280   18.5260 C.2   163  LEU163      0.2260
     51  O          4.7470   -6.3140   18.7260 O.2   163  LEU163     -0.2867
     52  CB         5.6310   -3.5630   19.2030 C.3   163  LEU163      0.0270
     53  CG         5.8850   -2.0660   19.0520 C.3   163  LEU163      0.0019
     54  CD1        5.0790   -1.2820   20.0820 C.3   163  LEU163      0.0001
     55  CD2        7.3670   -1.7560   19.1780 C.3   163  LEU163      0.0001
     56  N          2.1530   -0.5560   26.9100 N.3   174  THR174     -0.1218
     57  CA         2.2580    0.3620   25.7880 C.3   174  THR174      0.1862
     58  C          1.0280    1.2560   25.8630 C.2   174  THR174      0.2287
     59  O         -0.0480    0.7930   26.2330 O.2   174  THR174     -0.2866
     60  CB         2.2740   -0.4170   24.4600 C.3   174  THR174      0.1770
     61  OG1        3.3840   -1.3250   24.4660 O.3   174  THR174     -0.2211
     62  CG2        2.3780    0.5100   23.2530 C.3   174  THR174      0.0375
     63  N          1.2290    6.5540   20.0320 N.3   296  HIS296     -0.1226
     64  CA         1.5650    5.5610   21.0440 C.3   296  HIS296      0.1752
     65  C          2.7830    5.9730   21.8740 C.2   296  HIS296      0.2597
     66  O          3.5510    6.8620   21.4940 O.2   296  HIS296     -0.2718
     67  CB         1.8440    4.2200   20.3740 C.3   296  HIS296      0.0759
     68  CG         3.1030    4.2170   19.5750 C.ar  296  HIS296      0.0818
     69  ND1        3.1750    4.7330   18.3000 N.ar  296  HIS296     -0.2268
     70  CD2        4.3540    3.8120   19.8910 C.ar  296  HIS296      0.1154
     71  CE1        4.4130    4.6240   17.8550 C.ar  296  HIS296      0.1986
     72  NE2        5.1490    4.0770   18.8060 N.ar  296  HIS296     -0.2212
     73  N          2.9470    5.2970   23.0050 N.am  297  GLY297     -0.1942
     74  CA         4.0630    5.5300   23.9130 C.3   297  GLY297      0.2014
     75  C          4.2790    4.3130   24.7860 C.2   297  GLY297      0.2638
     76  O          3.8750    3.2040   24.4270 O.2   297  GLY297     -0.2714
     77  N          4.9100    4.5240   25.9380 N.am  298  ARG298     -0.1977
     78  CA         5.1630    3.4570   26.8990 C.3   298  ARG298      0.1597
     79  C          5.2060    4.0350   28.3050 C.2   298  ARG298      0.2287
     80  O          5.8620    5.0470   28.5450 O.2   298  ARG298     -0.2864
     81  CB         6.4920    2.7640   26.6010 C.3   298  ARG298      0.0334
     82  CG         6.7370    1.5100   27.4340 C.3   298  ARG298      0.0492
     83  CD         8.1770    1.4120   27.9100 C.3   298  ARG298      0.2205
     84  NE         8.5320    2.5080   28.8180 N.pl3 298  ARG298     -0.0865
     85  CZ         9.4110    3.4810   28.5620 C.cat 298  ARG298      0.5346
     86  NH1       10.0630    3.5470   27.4040 N.pl3 298  ARG298      0.1354
     87  NH2        9.6370    4.4130   29.4810 N.pl3 298  ARG298      0.1354
     88  N         12.3240   -6.1900   30.1820 N.3   310  ARG310     -0.1245
     89  CA        11.4110   -6.0700   29.0540 C.3   310  ARG310      0.1563
     90  C         12.1660   -5.7880   27.7630 C.2   310  ARG310      0.2260
     91  O         13.0540   -4.9350   27.7240 O.2   310  ARG310     -0.2867
     92  CB        10.4290   -4.9370   29.3360 C.3   310  ARG310      0.0307
     93  CG         9.3680   -4.7000   28.2770 C.3   310  ARG310      0.0489
     94  CD         8.5230   -3.5090   28.6980 C.3   310  ARG310      0.2205
     95  NE         7.3870   -3.2500   27.8140 N.pl3 310  ARG310     -0.0865
     96  CZ         7.3890   -2.4170   26.7720 C.cat 310  ARG310      0.5346
     97  NH1        8.4810   -1.7380   26.4280 N.pl3 310  ARG310      0.1354
     98  NH2        6.2790   -2.2680   26.0580 N.pl3 310  ARG310      0.1354
     99  N         11.5080   -5.7590   23.3560 N.3   312  LEU312     -0.1245
    100  CA        10.6910   -5.8900   22.1470 C.3   312  LEU312      0.1561
    101  C         11.5620   -5.8500   20.8990 C.2   312  LEU312      0.2260
    102  O         12.5990   -5.1820   20.8800 O.2   312  LEU312     -0.2867
    103  CB         9.6630   -4.7530   22.0400 C.3   312  LEU312      0.0270
    104  CG         8.9010   -4.2530   23.2720 C.3   312  LEU312      0.0019
    105  CD1        7.9850   -3.0970   22.8780 C.3   312  LEU312      0.0001
    106  CD2        8.0910   -5.3700   23.8980 C.3   312  LEU312      0.0001
    107  N         11.1480   -4.5530   16.9270 N.3   314  ARG314     -0.1245
    108  CA        10.3620   -3.4770   16.3390 C.3   314  ARG314      0.1563
    109  C         10.6580   -3.3540   14.8440 C.2   314  ARG314      0.2260
    110  O         11.7630   -3.6580   14.3990 O.2   314  ARG314     -0.2867
    111  CB        10.6900   -2.1760   17.0750 C.3   314  ARG314      0.0307
    112  CG        10.0300   -0.9190   16.5410 C.3   314  ARG314      0.0489
    113  CD        10.5360    0.2940   17.3070 C.3   314  ARG314      0.2205
    114  NE        10.3860    1.5220   16.5380 N.pl3 314  ARG314     -0.0865
    115  CZ        11.1470    1.8670   15.4980 C.cat 314  ARG314      0.5346
    116  NH1       12.1320    1.0800   15.0690 N.pl3 314  ARG314      0.1354
    117  NH2       10.9160    3.0100   14.8750 N.pl3 314  ARG314      0.1354
@<TRIPOS>BOND
     1    35    34    2
     2    41    42    1
     3    42    43    1
     4    42    45    1
     5    34    33    1
     6    47    45    1
     7    43    44    2
     8   110   109    2
     9    36    37    1
    10    36    33    1
    11    37    38    1
    12    45    46    1
    13    33    32    1
    14   109   108    1
    15   117   115    1
    16   116   115    1
    17   115   114    2
    18    38    40   ar
    19    38    39   ar
    20   108   107    1
    21   108   111    1
    22   114   113    1
    23   112   111    1
    24   112   113    1
    25    48    49    1
    26    71    69   ar
    27    71    72   ar
    28    49    50    1
    29    49    52    1
    30    24    25    2
    31    24    23    1
    32    69    68   ar
    33    50    51    2
    34    72    70   ar
    35    29    31   ar
    36    29    27   ar
    37    53    55    1
    38    53    52    1
    39    53    54    1
    40    23    26    1
    41    23    22    1
    42    26    27    1
    43    68    70   ar
    44    68    67    1
    45    31    30   ar
    46    27    28   ar
    47    63    64    1
    48    67    64    1
    49   102   101    2
    50   101   100    1
    51    30    28   ar
    52     7     5    1
    53    64    65    1
    54     1     2    1
    55    13    12    1
    56    66    65    2
    57    65    73   am
    58   103   100    1
    59   103   104    1
    60   100    99    1
    61    12     9    1
    62     5     2    1
    63     5     6    1
    64     2     3    1
    65   105   104    1
    66     8     9    1
    67    73    74    1
    68    62    60    1
    69   104   106    1
    70     9    10    1
    71    21    19    1
    72     3     4    2
    73    74    75    1
    74    20    19    1
    75    10    11    2
    76    76    75    2
    77    19    18    1
    78    60    61    1
    79    60    57    1
    80    75    77   am
    81    57    58    1
    82    57    56    1
    83    58    59    2
    84    18    15    1
    85    77    78    1
    86    98    96    1
    87    17    16    2
    88    16    15    1
    89    97    96    1
    90    81    78    1
    91    81    82    1
    92    96    95    2
    93    15    14    1
    94    78    79    1
    95    86    85    1
    96    82    83    1
    97    91    90    2
    98    90    89    1
    99    95    94    1
   100    83    84    1
   101    93    94    1
   102    93    92    1
   103    79    80    2
   104    85    84    2
   105    85    87    1
   106    89    92    1
   107    89    88    1
