@<TRIPOS>MOLECULE
tmp/6db4A00.pdb
 175 165 0 0 0
SMALL
GASTEIGER

@<TRIPOS>ATOM
      1  N         -3.1940   19.0390    0.9770 N.3    15  LEU15      -0.1231
      2  CA        -2.5000   19.0520   -0.3170 C.3    15  LEU15       0.1696
      3  C         -3.5060   19.4510   -1.4230 C.2    15  LEU15       0.2632
      4  O         -3.1330   20.1300   -2.3880 O.2    15  LEU15      -0.2714
      5  CB        -1.8740   17.6850   -0.6320 C.3    15  LEU15       0.0284
      6  CG        -0.6920   17.2930    0.2780 C.3    15  LEU15       0.0019
      7  CD1       -0.2490   15.8450    0.0230 C.3    15  LEU15       0.0001
      8  CD2        0.4960   18.2210    0.1100 C.3    15  LEU15       0.0001
      9  N         -4.7590   19.0140   -1.2780 N.am   16  GLY16      -0.1718
     10  CA        -5.7950   19.3140   -2.2710 C.2    16  GLY16       0.1480
     11  C         -7.2200   18.9960   -1.8750 C.2    16  GLY16       0.2820
     12  O         -7.4630   18.2930   -0.8920 O.2    16  GLY16      -0.2669
     13  N         -8.1830   19.5460   -2.6540 N.am   17  LYS17      -0.1943
     14  CA        -9.6220   19.3070   -2.4900 C.3    17  LYS17       0.1599
     15  C        -10.2160   18.9490   -3.8460 C.2    17  LYS17       0.2287
     16  O        -10.0050   19.6700   -4.8230 O.2    17  LYS17      -0.2864
     17  CB       -10.3610   20.4630   -1.7710 C.3    17  LYS17       0.0298
     18  CG       -10.2390   21.8480   -2.3980 C.3    17  LYS17       0.0038
     19  CD       -11.1100   22.8570   -1.6600 C.3    17  LYS17       0.0206
     20  CE       -11.2180   24.1750   -2.3890 C.3    17  LYS17       0.1093
     21  NZ       -12.1810   25.0930   -1.7220 N.3    17  LYS17      -0.1314
     22  N         -7.1970   15.5600   -0.0550 N.3    23  VAL23      -0.1245
     23  CA        -5.8900   14.8820    0.0490 C.3    23  VAL23       0.1561
     24  C         -5.0950   15.6520    1.0740 C.2    23  VAL23       0.2260
     25  O         -4.9390   16.8770    0.9350 O.2    23  VAL23      -0.2867
     26  CB        -5.1330   14.8110   -1.2860 C.3    23  VAL23       0.0252
     27  CG1       -3.8620   13.9480   -1.1270 C.3    23  VAL23       0.0019
     28  CG2       -6.0410   14.2450   -2.3870 C.3    23  VAL23       0.0019
     29  N          0.8300   10.9290    1.5100 N.3    40  ALA40      -0.1245
     30  CA        -0.3220   11.6860    0.9880 C.3    40  ALA40       0.1562
     31  C         -1.5530   10.7950    1.2350 C.2    40  ALA40       0.2260
     32  O         -1.5790    9.6090    0.8550 O.2    40  ALA40      -0.2867
     33  CB        -0.1760   11.9550   -0.4930 C.3    40  ALA40       0.0290
     34  N         -5.7110   10.3350    0.9580 N.3    42  LYS42      -0.1245
     35  CA        -6.9920   10.7420    0.3700 C.3    42  LYS42       0.1561
     36  C         -8.1570   10.1560    1.1510 C.2    42  LYS42       0.2260
     37  O         -8.1450    8.9880    1.5230 O.2    42  LYS42      -0.2867
     38  CB        -7.0990   10.3190   -1.1140 C.3    42  LYS42       0.0271
     39  CG        -8.4220   10.7610   -1.7690 C.3    42  LYS42       0.0035
     40  CD        -8.4730   10.5100   -3.2640 C.3    42  LYS42       0.0206
     41  CE        -9.8470   10.8780   -3.8050 C.3    42  LYS42       0.1093
     42  NZ        -9.9250   10.6710   -5.2820 N.3    42  LYS42      -0.1314
     43  N        -11.4240    3.2830   -7.0540 N.3    56  GLU56      -0.1245
     44  CA       -10.1620    3.9990   -7.2160 C.3    56  GLU56       0.1567
     45  C         -9.0190    3.2800   -6.4790 C.2    56  GLU56       0.2260
     46  O         -7.9230    3.1050   -7.0340 O.2    56  GLU56      -0.2867
     47  CB       -10.3010    5.4370   -6.7330 C.3    56  GLU56       0.0388
     48  CG        -8.9680    6.1590   -6.7740 C.3    56  GLU56       0.1160
     49  CD        -8.9800    7.5780   -6.2680 C.2    56  GLU56       0.3649
     50  OE1      -10.0240    8.0360   -5.7490 O.co2  56  GLU56      -0.2457
     51  OE2       -7.9200    8.2280   -6.3800 O.co2  56  GLU56      -0.2457
     52  N          2.1730    7.1880   -9.5120 N.3    69  VAL69      -0.1245
     53  CA         2.3000    7.4120   -8.0500 C.3    69  VAL69       0.1561
     54  C          2.0330    6.0980   -7.2850 C.2    69  VAL69       0.2260
     55  O          1.1000    5.3560   -7.6080 O.2    69  VAL69      -0.2867
     56  CB         1.3820    8.5740   -7.5720 C.3    69  VAL69       0.0252
     57  CG1       -0.1010    8.2150   -7.6980 C.3    69  VAL69       0.0019
     58  CG2        1.7360    9.0130   -6.1490 C.3    69  VAL69       0.0019
     59  N         -0.8600    7.0480   -0.0300 N.3    82  MET82      -0.1230
     60  CA         0.0200    7.0590   -1.1940 C.3    82  MET82       0.1702
     61  C          1.3610    7.6660   -0.7950 C.2    82  MET82       0.2592
     62  O          1.4480    8.3990    0.2070 O.2    82  MET82      -0.2718
     63  CB        -0.6190    7.9200   -2.3150 C.3    82  MET82       0.0401
     64  CG        -1.8510    7.2790   -2.9050 C.3    82  MET82       0.0596
     65  SD        -2.8250    8.5110   -3.8140 S.3    82  MET82      -0.1393
     66  CE        -3.5780    9.4410   -2.3550 C.3    82  MET82       0.0692
     67  N          2.3940    7.4220   -1.6060 N.am   83  GLU83      -0.1966
     68  CA         3.6560    8.0890   -1.3360 C.3    83  GLU83       0.1733
     69  C          3.5010    9.6170   -1.5040 C.2    83  GLU83       0.2616
     70  O          2.6740   10.0940   -2.2980 O.2    83  GLU83      -0.2715
     71  CB         4.7680    7.5690   -2.2630 C.3    83  GLU83       0.0429
     72  CG         4.4430    7.7700   -3.7240 C.3    83  GLU83       0.1163
     73  CD         5.5580    7.3890   -4.6630 C.2    83  GLU83       0.3649
     74  OE1        6.6860    7.1240   -4.1830 O.co2  83  GLU83      -0.2457
     75  OE2        5.2770    7.3060   -5.8790 O.co2  83  GLU83      -0.2457
     76  N          4.2870   10.3740   -0.7280 N.am   84  TYR84      -0.1960
     77  CA         4.3090   11.8310   -0.8130 C.3    84  TYR84       0.1771
     78  C          5.5610   12.2430   -1.5530 C.2    84  TYR84       0.2619
     79  O          6.6440   11.8030   -1.1900 O.2    84  TYR84      -0.2715
     80  CB         4.3340   12.4510    0.5970 C.3    84  TYR84       0.0574
     81  CG         4.4810   13.9560    0.5960 C.ar   84  TYR84      -0.0198
     82  CD1        3.5290   14.7680   -0.0270 C.ar   84  TYR84      -0.0009
     83  CD2        5.5600   14.5710    1.2270 C.ar   84  TYR84      -0.0009
     84  CE1        3.6590   16.1570   -0.0440 C.ar   84  TYR84       0.0417
     85  CE2        5.6890   15.9710    1.2330 C.ar   84  TYR84       0.0417
     86  CZ         4.7420   16.7500    0.5790 C.ar   84  TYR84       0.1957
     87  OH         4.8000   18.1250    0.5520 O.3    84  TYR84      -0.2866
     88  N          5.4100   13.0770   -2.5750 N.am   85  LEU85      -0.1977
     89  CA         6.5410   13.5790   -3.3780 C.3    85  LEU85       0.1596
     90  C          6.6670   15.0570   -3.0400 C.2    85  LEU85       0.2287
     91  O          5.8330   15.8640   -3.4740 O.2    85  LEU85      -0.2864
     92  CB         6.2530   13.3750   -4.8850 C.3    85  LEU85       0.0297
     93  CG         6.6720   11.9520   -5.4240 C.3    85  LEU85       0.0022
     94  CD1        5.8940   10.8390   -4.7740 C.3    85  LEU85       0.0001
     95  CD2        6.4250   11.8360   -6.9220 C.3    85  LEU85       0.0001
     96  N          6.2570   18.1820   -5.2880 N.3    88  GLY88      -0.1210
     97  CA         4.8950   18.5060   -5.6900 C.3    88  GLY88       0.1956
     98  C          4.5980   18.3290   -7.1650 C.2    88  GLY88       0.2612
     99  O          5.2650   17.5560   -7.8350 O.2    88  GLY88      -0.2717
    100  N          3.5570   18.9980   -7.6580 N.am   89  CYS89      -0.1970
    101  CA         3.1460   18.7590   -9.0400 C.3    89  CYS89       0.1712
    102  C          3.9930   19.4550  -10.0530 C.2    89  CYS89       0.2296
    103  O          4.5720   20.5320   -9.8010 O.2    89  CYS89      -0.2864
    104  CB         1.6600   19.0360   -9.2370 C.3    89  CYS89       0.0983
    105  SG         1.2260   20.7990   -9.1280 S.3    89  CYS89      -0.0798
    106  N          3.1350   21.1310  -12.7110 N.3    91  ARG91      -0.1231
    107  CA         2.6920   22.4670  -13.0730 C.3    91  ARG91       0.1694
    108  C          3.4500   23.5450  -12.2940 C.2    91  ARG91       0.2592
    109  O          3.9520   24.4870  -12.8920 O.2    91  ARG91      -0.2718
    110  CB         1.1960   22.6090  -12.8410 C.3    91  ARG91       0.0321
    111  CG         0.6510   23.9570  -13.3370 C.3    91  ARG91       0.0489
    112  CD        -0.7450   24.1970  -12.8520 C.3    91  ARG91       0.2205
    113  NE        -0.7780   24.3180  -11.3960 N.pl3  91  ARG91      -0.0865
    114  CZ        -1.8970   24.3400  -10.6810 C.cat  91  ARG91       0.5346
    115  NH1       -3.0800   24.2410  -11.2820 N.pl3  91  ARG91       0.1354
    116  NH2       -1.8430   24.4570   -9.3610 N.pl3  91  ARG91       0.1354
    117  N          3.5200   23.4070  -10.9700 N.am   92  ASP92      -0.1974
    118  CA         4.1900   24.4190  -10.1330 C.3    92  ASP92       0.1709
    119  C          5.6880   24.3270  -10.2680 C.2    92  ASP92       0.2293
    120  O          6.3810   25.3430  -10.2880 O.2    92  ASP92      -0.2864
    121  CB         3.7710   24.2750   -8.6720 C.3    92  ASP92       0.1436
    122  CG         2.2950   24.4540   -8.3880 C.2    92  ASP92       0.3671
    123  OD1        1.5640   24.9290   -9.2890 O.co2  92  ASP92      -0.2456
    124  OD2        1.8620   24.0840   -7.2790 O.co2  92  ASP92      -0.2456
    125  N         -1.0210   19.5980  -13.4480 N.3   133  ARG133     -0.1231
    126  CA        -1.3180   19.7130  -12.0090 C.3   133  ARG133      0.1694
    127  C         -1.4410   18.3180  -11.3620 C.2   133  ARG133      0.2592
    128  O         -1.3220   18.1900  -10.1420 O.2   133  ARG133     -0.2718
    129  CB        -2.5950   20.5320  -11.7900 C.3   133  ARG133      0.0321
    130  CG        -3.8960   19.8650  -12.2570 C.3   133  ARG133      0.0489
    131  CD        -5.1270   20.7190  -11.9510 C.3   133  ARG133      0.2205
    132  NE        -5.3070   20.9600  -10.5160 N.pl3 133  ARG133     -0.0865
    133  CZ        -5.8980   20.1130   -9.6710 C.cat 133  ARG133      0.5346
    134  NH1       -6.3470   18.9360  -10.1000 N.pl3 133  ARG133      0.1354
    135  NH2       -6.0360   20.4310   -8.3920 N.pl3 133  ARG133      0.1354
    136  N         -1.7040   17.2790  -12.1960 N.am  134  ASN134     -0.1974
    137  CA        -1.8750   15.8960  -11.7240 C.3   134  ASN134      0.1688
    138  C         -0.6640   15.0100  -12.0000 C.2   134  ASN134      0.2292
    139  O         -0.7250   13.7910  -11.8070 O.2   134  ASN134     -0.2864
    140  CB        -3.1550   15.2770  -12.2860 C.3   134  ASN134      0.1181
    141  CG        -4.4140   15.9440  -11.7620 C.2   134  ASN134      0.2629
    142  OD1       -4.4480   16.4740  -10.6280 O.2   134  ASN134     -0.2716
    143  ND2       -5.4730   15.9510  -12.5760 N.am  134  ASN134     -0.0877
    144  N          3.2180   14.3870  -10.8430 N.3   136  LEU136     -0.1245
    145  CA         4.0880   14.7030   -9.7160 C.3   136  LEU136      0.1561
    146  C          5.5550   14.5930  -10.0490 C.2   136  LEU136      0.2260
    147  O          5.9680   13.8020  -10.9030 O.2   136  LEU136     -0.2867
    148  CB         3.7410   13.8040   -8.5250 C.3   136  LEU136      0.0270
    149  CG         2.3170   13.8490   -7.9990 C.3   136  LEU136      0.0019
    150  CD1        2.1580   12.7950   -6.8950 C.3   136  LEU136      0.0001
    151  CD2        1.9140   15.2580   -7.5400 C.3   136  LEU136      0.0001
    152  N         -0.4370   11.0390  -11.3030 N.3   146  ALA146     -0.1231
    153  CA        -1.2640   10.9500  -10.1050 C.3   146  ALA146      0.1694
    154  C         -2.7230   11.3170  -10.4060 C.2   146  ALA146      0.2592
    155  O         -3.0950   11.6050  -11.5600 O.2   146  ALA146     -0.2718
    156  CB        -0.6820   11.8400   -9.0000 C.3   146  ALA146      0.0304
    157  N         -3.5410   11.3190   -9.3510 N.am  147  ASP147     -0.1960
    158  CA        -4.9850   11.6490   -9.3650 C.3   147  ASP147      0.1840
    159  C         -5.8030   10.6660  -10.1570 C.2   147  ASP147      0.2622
    160  O         -6.1130   10.9060  -11.3330 O.2   147  ASP147     -0.2715
    161  CB        -5.3020   13.1010   -9.7960 C.3   147  ASP147      0.1450
    162  CG        -6.7090   13.5030   -9.3490 C.2   147  ASP147      0.3671
    163  OD1       -7.5380   12.5870   -9.0500 O.co2 147  ASP147     -0.2456
    164  OD2       -6.9660   14.7180   -9.2300 O.co2 147  ASP147     -0.2456
    165  N         -6.1990    9.5780   -9.4910 N.am  148  PHE148     -0.1974
    166  CA        -6.9850    8.5390  -10.1170 C.3   148  PHE148      0.1639
    167  C         -8.4590    8.6450   -9.7110 C.2   148  PHE148      0.2290
    168  O         -9.2000    7.6730   -9.8100 O.2   148  PHE148     -0.2864
    169  CB        -6.3810    7.1610   -9.7610 C.3   148  PHE148      0.0560
    170  CG        -5.1340    6.8990  -10.5900 C.ar  148  PHE148     -0.0200
    171  CD1       -5.2030    6.1510  -11.7710 C.ar  148  PHE148     -0.0042
    172  CD2       -3.9110    7.4800  -10.2440 C.ar  148  PHE148     -0.0042
    173  CE1       -4.0720    6.0000  -12.5860 C.ar  148  PHE148     -0.0003
    174  CE2       -2.7800    7.3180  -11.0580 C.ar  148  PHE148     -0.0003
    175  CZ        -2.8700    6.5900  -12.2240 C.ar  148  PHE148     -0.0000
@<TRIPOS>BOND
     1   125   126    1
     2   111   112    1
     3   111   110    1
     4   107   110    1
     5   107   106    1
     6   107   108    1
     7   109   108    2
     8   112   113    1
     9   173   175   ar
    10   173   171   ar
    11   143   141   am
    12   108   117   am
    13   140   141    1
    14   140   137    1
    15   130   131    1
    16   130   129    1
    17   175   174   ar
    18   136   137    1
    19   136   127   am
    20   126   129    1
    21   126   127    1
    22   138   139    2
    23   138   137    1
    24   131   132    1
    25   171   170   ar
    26   141   142    2
    27   155   154    2
    28   113   114    2
    29   127   128    2
    30   160   159    2
    31   152   153    1
    32   115   114    1
    33   174   172   ar
    34   117   118    1
    35   147   146    2
    36   144   145    1
    37   114   116    1
    38   170   172   ar
    39   170   169    1
    40   132   133    2
    41   154   153    1
    42   154   157   am
    43   120   119    2
    44   119   118    1
    45   159   165   am
    46   159   158    1
    47   118   121    1
    48   166   169    1
    49   166   167    1
    50   166   165    1
    51   153   156    1
    52   134   133    1
    53   102   103    2
    54   102   101    1
    55   146   145    1
    56   168   167    2
    57   161   158    1
    58   161   162    1
    59   145   148    1
    60   133   135    1
    61    52    53    1
    62   158   157    1
    63   162   164   ar
    64   162   163   ar
    65   123   122   ar
    66   104   105    1
    67   104   101    1
    68   101   100    1
    69   121   122    1
    70   148   149    1
    71   122   124   ar
    72    53    56    1
    73    53    54    1
    74   149   151    1
    75   149   150    1
    76    99    98    2
    77    57    56    1
    78   100    98   am
    79    55    54    2
    80    56    58    1
    81    44    43    1
    82    44    47    1
    83    44    45    1
    84    98    97    1
    85    46    45    2
    86    95    93    1
    87    48    47    1
    88    48    49    1
    89    51    49   ar
    90    49    50   ar
    91    75    73   ar
    92    97    96    1
    93    93    92    1
    94    93    94    1
    95    42    41    1
    96    92    89    1
    97    16    15    2
    98    73    74   ar
    99    73    72    1
   100    15    14    1
   101    65    64    1
   102    65    66    1
   103    41    40    1
   104    72    71    1
   105    91    90    2
   106    89    90    1
   107    89    88    1
   108    40    39    1
   109    64    63    1
   110    13    14    1
   111    13    11   am
   112    88    78   am
   113    14    17    1
   114    18    17    1
   115    18    19    1
   116    20    21    1
   117    20    19    1
   118     4     3    2
   119    28    26    1
   120    63    60    1
   121    70    69    2
   122    10    11    1
   123    10     9    2
   124    71    68    1
   125    11    12    2
   126    39    38    1
   127    67    68    1
   128    67    61   am
   129    78    79    2
   130    78    77    1
   131    69    68    1
   132    69    76   am
   133     3     9    1
   134     3     2    1
   135    26    27    1
   136    26    23    1
   137    60    61    1
   138    60    59    1
   139    38    35    1
   140    77    76    1
   141    77    80    1
   142    61    62    2
   143     5     2    1
   144     5     6    1
   145    33    30    1
   146     2     1    1
   147    22    23    1
   148    84    82   ar
   149    84    86   ar
   150    82    81   ar
   151     7     6    1
   152    23    24    1
   153     8     6    1
   154    35    34    1
   155    35    36    1
   156    87    86    1
   157    86    85   ar
   158    81    80    1
   159    81    83   ar
   160    32    31    2
   161    25    24    2
   162    30    31    1
   163    30    29    1
   164    36    37    2
   165    83    85   ar
