@<TRIPOS>MOLECULE
tmp/6dbkA00.pdb
 186 177 0 0 0
SMALL
GASTEIGER

@<TRIPOS>ATOM
      1  N          1.0720  -18.8530   15.6000 N.3    13  ARG13      -0.1245
      2  CA         0.4090  -17.7940   16.3470 C.3    13  ARG13       0.1563
      3  C          0.6860  -16.4500   15.6980 C.2    13  ARG13       0.2260
      4  O          1.7320  -16.2680   15.0670 O.2    13  ARG13      -0.2867
      5  CB         0.9180  -17.7670   17.8200 C.3    13  ARG13       0.0307
      6  CG         2.4220  -17.4800   18.0130 C.3    13  ARG13       0.0489
      7  CD         2.8410  -17.4720   19.4780 C.3    13  ARG13       0.2205
      8  NE         4.2970  -17.5190   19.6660 N.pl3  13  ARG13      -0.0865
      9  CZ         5.0310  -18.6310   19.7770 C.cat  13  ARG13       0.5346
     10  NH1        4.4670  -19.8290   19.6380 N.pl3  13  ARG13       0.1354
     11  NH2        6.3400  -18.5530   19.9690 N.pl3  13  ARG13       0.1354
     12  N          1.9780  -12.7040   15.9360 N.3    15  LEU15      -0.1231
     13  CA         3.0240  -12.0580   16.7270 C.3    15  LEU15       0.1693
     14  C          2.7520  -10.5900   17.0170 C.2    15  LEU15       0.2593
     15  O          3.1860  -10.0710   18.0410 O.2    15  LEU15      -0.2718
     16  CB         4.3980  -12.2230   16.0840 C.3    15  LEU15       0.0284
     17  CG         4.9840  -13.6530   16.0430 C.3    15  LEU15       0.0019
     18  CD1        6.3060  -13.6710   15.2910 C.3    15  LEU15       0.0001
     19  CD2        5.1600  -14.2450   17.4610 C.3    15  LEU15       0.0001
     20  N          2.0870   -9.9310   16.0880 N.am   16  GLY16      -0.1942
     21  CA         1.7600   -8.5220   16.1950 C.3    16  GLY16       0.2014
     22  C          1.0660   -8.0160   14.9570 C.2    16  GLY16       0.2639
     23  O          0.9240   -8.7430   13.9720 O.2    16  GLY16      -0.2714
     24  N          0.6250   -6.7570   15.0180 N.am   17  GLU17      -0.1963
     25  CA        -0.0420   -6.0220   13.9400 C.3    17  GLU17       0.1733
     26  C          0.4960   -4.5950   14.0620 C.2    17  GLU17       0.2616
     27  O          0.4990   -4.0300   15.1610 O.2    17  GLU17      -0.2715
     28  CB        -1.5880   -6.0590   14.0680 C.3    17  GLU17       0.0429
     29  CG        -2.1590   -7.3770   14.6020 C.3    17  GLU17       0.1163
     30  CD        -3.4160   -7.9810   13.9960 C.2    17  GLU17       0.3649
     31  OE1       -3.9200   -7.4550   12.9760 O.co2  17  GLU17      -0.2457
     32  OE2       -3.8690   -9.0250   14.5220 O.co2  17  GLU17      -0.2457
     33  N          1.0440   -4.0770   12.9660 N.am   18  GLY18      -0.1955
     34  CA         1.6320   -2.7410   12.9070 C.3    18  GLY18       0.1869
     35  C          0.6560   -1.7350   12.3350 C.2    18  GLY18       0.2309
     36  O         -0.5510   -1.8270   12.6000 O.2    18  GLY18      -0.2863
     37  N          0.4180   -3.6470    8.3360 N.3    21  GLY21      -0.1210
     38  CA         0.6420   -5.0840    8.2720 C.3    21  GLY21       0.1956
     39  C          0.2970   -5.9170    9.4850 C.2    21  GLY21       0.2612
     40  O         -0.2570   -5.4380   10.4800 O.2    21  GLY21      -0.2717
     41  N          0.6290   -7.1920    9.3840 N.am   22  LYS22      -0.1965
     42  CA         0.4130   -8.1790   10.4330 C.3    22  LYS22       0.1728
     43  C          1.5900   -9.1480   10.3670 C.2    22  LYS22       0.2616
     44  O          2.0010   -9.5420    9.2810 O.2    22  LYS22      -0.2715
     45  CB        -0.9640   -8.8720   10.2330 C.3    22  LYS22       0.0311
     46  CG        -1.0450  -10.3370   10.6500 C.3    22  LYS22       0.0038
     47  CD        -1.7540  -10.5370   11.9910 C.3    22  LYS22       0.0206
     48  CE        -3.1620  -11.0700   11.8340 C.3    22  LYS22       0.1093
     49  NZ        -3.1870  -12.4570   11.2900 N.3    22  LYS22      -0.1314
     50  N          2.1660   -9.4740   11.5150 N.am   23  VAL23      -0.1977
     51  CA         3.2760  -10.4000   11.5960 C.3    23  VAL23       0.1596
     52  C          2.7850  -11.6680   12.3170 C.2    23  VAL23       0.2287
     53  O          2.1530  -11.5790   13.3680 O.2    23  VAL23      -0.2864
     54  CB         4.5570   -9.7500   12.1950 C.3    23  VAL23       0.0276
     55  CG1        5.6750  -10.7660   12.4160 C.3    23  VAL23       0.0022
     56  CG2        5.0590   -8.6400   11.2830 C.3    23  VAL23       0.0022
     57  N          9.0700  -15.6120   11.0300 N.3    40  ALA40      -0.1245
     58  CA         8.2160  -14.4600   11.2340 C.3    40  ALA40       0.1562
     59  C          7.8190  -13.9530    9.8470 C.2    40  ALA40       0.2260
     60  O          8.6870  -13.5960    9.0490 O.2    40  ALA40      -0.2867
     61  CB         8.9940  -13.3970   11.9900 C.3    40  ALA40       0.0290
     62  N          5.4810  -11.2580    7.6550 N.3    42  LYS42      -0.1245
     63  CA         4.7670   -9.9830    7.5600 C.3    42  LYS42       0.1561
     64  C          3.8820   -9.9760    6.3120 C.2    42  LYS42       0.2260
     65  O          4.3660  -10.1740    5.2040 O.2    42  LYS42      -0.2867
     66  CB         5.7270   -8.7510    7.5900 C.3    42  LYS42       0.0271
     67  CG         4.9600   -7.4230    7.7760 C.3    42  LYS42       0.0035
     68  CD         5.8340   -6.1890    7.9790 C.3    42  LYS42       0.0206
     69  CE         4.9740   -4.9480    8.1450 C.3    42  LYS42       0.1093
     70  NZ         5.7940   -3.7530    8.4980 N.3    42  LYS42      -0.1314
     71  N         16.9200   -6.9110   11.8370 N.3    72  ILE72      -0.1245
     72  CA        16.2910   -8.2160   11.6890 C.3    72  ILE72       0.1561
     73  C         16.7040   -8.8200   10.3460 C.2    72  ILE72       0.2260
     74  O         16.8780   -8.0900    9.3600 O.2    72  ILE72      -0.2867
     75  CB        14.7420   -8.1600   11.8650 C.3    72  ILE72       0.0252
     76  CG1       14.1430   -9.5920   11.9610 C.3    72  ILE72       0.0019
     77  CG2       14.0400   -7.2950   10.7820 C.3    72  ILE72       0.0019
     78  CD1       12.7680   -9.6660   12.5500 C.3    72  ILE72       0.0001
     79  N         10.9810  -13.3200    7.5790 N.3    90  MET90      -0.1230
     80  CA        12.1710  -12.8900    8.3260 C.3    90  MET90       0.1702
     81  C         12.4180  -13.9170    9.4050 C.2    90  MET90       0.2592
     82  O         11.5320  -14.7180    9.7150 O.2    90  MET90      -0.2718
     83  CB        11.9670  -11.5210    9.0430 C.3    90  MET90       0.0401
     84  CG        11.3900  -10.4150    8.2030 C.3    90  MET90       0.0596
     85  SD        10.6360   -9.1170    9.2460 S.3    90  MET90      -0.1393
     86  CE         9.2170   -9.9710    9.9000 C.3    90  MET90       0.0692
     87  N         13.5530  -13.8050   10.0670 N.am   91  GLU91      -0.1966
     88  CA        13.8690  -14.6600   11.2060 C.3    91  GLU91       0.1733
     89  C         12.8560  -14.3760   12.3600 C.2    91  GLU91       0.2616
     90  O         12.2820  -13.2790   12.4500 O.2    91  GLU91      -0.2715
     91  CB        15.3060  -14.4150   11.6780 C.3    91  GLU91       0.0429
     92  CG        15.4920  -13.1160   12.4540 C.3    91  GLU91       0.1163
     93  CD        16.8910  -12.7730   12.9080 C.2    91  GLU91       0.3649
     94  OE1       17.2930  -11.6070   12.6970 O.co2  91  GLU91      -0.2457
     95  OE2       17.5840  -13.6490   13.4750 O.co2  91  GLU91      -0.2457
     96  N         12.6240  -15.3820   13.1820 N.am   92  TYR92      -0.1960
     97  CA        11.7570  -15.2750   14.3300 C.3    92  TYR92       0.1771
     98  C         12.6620  -14.9100   15.4930 C.2    92  TYR92       0.2619
     99  O         13.7020  -15.5570   15.6810 O.2    92  TYR92      -0.2715
    100  CB        11.0530  -16.6100   14.5740 C.3    92  TYR92       0.0574
    101  CG        10.3740  -16.6970   15.9200 C.ar   92  TYR92      -0.0198
    102  CD1        9.3470  -15.8190   16.2660 C.ar   92  TYR92      -0.0009
    103  CD2       10.7180  -17.6920   16.8300 C.ar   92  TYR92      -0.0009
    104  CE1        8.6910  -15.9180   17.4910 C.ar   92  TYR92       0.0417
    105  CE2       10.0740  -17.7940   18.0640 C.ar   92  TYR92       0.0417
    106  CZ         9.0600  -16.9050   18.3900 C.ar   92  TYR92       0.1957
    107  OH         8.4260  -16.9850   19.6110 O.3    92  TYR92      -0.2866
    108  N         12.3100  -13.8200   16.2280 N.am   93  VAL93      -0.1964
    109  CA        13.1010  -13.3560   17.3720 C.3    93  VAL93       0.1712
    110  C         12.3020  -13.7770   18.6120 C.2    93  VAL93       0.2458
    111  O         11.2480  -13.2010   18.8620 O.2    93  VAL93      -0.2730
    112  CB        13.4110  -11.8530   17.2570 C.3    93  VAL93       0.0289
    113  CG1       14.2330  -11.3730   18.4410 C.3    93  VAL93       0.0023
    114  CG2       14.1420  -11.5540   15.9430 C.3    93  VAL93       0.0023
    115  N         12.6890  -14.9060   19.2750 N.am   94  PRO94      -0.2716
    116  CA        11.8310  -15.4850   20.3200 C.3    94  PRO94       0.1536
    117  C         11.4910  -14.6720   21.5500 C.2    94  PRO94       0.2598
    118  O         10.4030  -14.8610   22.0950 O.2    94  PRO94      -0.2715
    119  CB        12.4980  -16.8300   20.6400 C.3    94  PRO94       0.0310
    120  CG        13.9200  -16.6500   20.2260 C.3    94  PRO94       0.0237
    121  CD        13.8470  -15.7880   19.0040 C.3    94  PRO94       0.0939
    122  N         12.3540  -13.7510   21.9560 N.am   95  LEU95      -0.1964
    123  CA        12.0710  -12.9350   23.1390 C.3    95  LEU95       0.1728
    124  C         11.1840  -11.7110   22.8630 C.2    95  LEU95       0.2617
    125  O         10.8310  -10.9990   23.8040 O.2    95  LEU95      -0.2715
    126  CB        13.3540  -12.5680   23.8900 C.3    95  LEU95       0.0311
    127  CG        14.2710  -13.7650   24.2920 C.3    95  LEU95       0.0022
    128  CD1       15.5640  -13.2810   24.8800 C.3    95  LEU95       0.0001
    129  CD2       13.5450  -14.7710   25.1940 C.3    95  LEU95       0.0001
    130  N         10.8450  -11.4730   21.5920 N.am   96  GLY96      -0.1940
    131  CA         9.9820  -10.3510   21.2180 C.3    96  GLY96       0.2014
    132  C         10.5560   -8.9510   21.3650 C.2    96  GLY96       0.2639
    133  O         11.7750   -8.7600   21.3920 O.2    96  GLY96      -0.2714
    134  N          9.6660   -7.9460   21.4450 N.am   97  SER97      -0.1949
    135  CA        10.1080   -6.5680   21.5630 C.3    97  SER97       0.1924
    136  C         10.4840   -6.2090   22.9850 C.2    97  SER97       0.2314
    137  O         10.0470   -6.8670   23.9170 O.2    97  SER97      -0.2863
    138  CB         9.0280   -5.6150   21.0540 C.3    97  SER97       0.2116
    139  OG         7.9850   -5.4890   22.0020 O.3    97  SER97      -0.2180
    140  N          7.4510   -5.7260   24.9920 N.3   100  ASP100     -0.1239
    141  CA         6.8960   -6.9920   25.4820 C.3   100  ASP100      0.1674
    142  C          7.7430   -7.5210   26.6580 C.2   100  ASP100      0.2266
    143  O          7.2170   -8.0250   27.6350 O.2   100  ASP100     -0.2867
    144  CB         6.9560   -8.0710   24.3530 C.3   100  ASP100      0.1410
    145  CG         6.1730   -7.7930   23.0700 C.2   100  ASP100      0.3668
    146  OD1        6.6390   -8.2350   21.9710 O.co2 100  ASP100     -0.2456
    147  OD2        5.0850   -7.1700   23.1590 O.co2 100  ASP100     -0.2456
    148  N          8.6350   -0.8380   20.7780 N.3   139  ARG139     -0.1231
    149  CA         7.8120   -1.9270   20.1700 C.3   139  ARG139      0.1694
    150  C          8.4600   -2.4780   18.8800 C.2   139  ARG139      0.2592
    151  O          8.1360   -3.5850   18.4460 O.2   139  ARG139     -0.2718
    152  CB         6.3620   -1.4440   19.8750 C.3   139  ARG139      0.0321
    153  CG         6.2830   -0.4040   18.7640 C.3   139  ARG139      0.0489
    154  CD         4.9020    0.1680   18.4560 C.3   139  ARG139      0.2205
    155  NE         5.0600    1.4280   17.7050 N.pl3 139  ARG139     -0.0865
    156  CZ         5.0910    2.6460   18.2570 C.cat 139  ARG139      0.5346
    157  NH1        5.2960    3.7200   17.5020 N.pl3 139  ARG139      0.1354
    158  NH2        4.9230    2.7970   19.5710 N.pl3 139  ARG139      0.1354
    159  N          9.3860   -1.7060   18.2850 N.am  140  ASN140     -0.1974
    160  CA        10.0780   -2.1220   17.0570 C.3   140  ASN140      0.1688
    161  C         11.5120   -2.6060   17.2760 C.2   140  ASN140      0.2292
    162  O         12.2200   -2.8560   16.3050 O.2   140  ASN140     -0.2864
    163  CB         9.9770   -1.0330   15.9920 C.3   140  ASN140      0.1181
    164  CG         8.5600   -0.9070   15.4760 C.2   140  ASN140      0.2629
    165  OD1        7.8670   -1.9030   15.3080 O.2   140  ASN140     -0.2716
    166  ND2        8.0690    0.3070   15.2690 N.am  140  ASN140     -0.0877
    167  N         13.6940   -5.5790   18.7680 N.3   142  LEU142     -0.1245
    168  CA        13.5820   -6.9890   19.1360 C.3   142  LEU142      0.1561
    169  C         14.7590   -7.5410   19.9120 C.2   142  LEU142      0.2260
    170  O         15.8940   -7.1310   19.6950 O.2   142  LEU142     -0.2867
    171  CB        13.2700   -7.8340   17.9120 C.3   142  LEU142      0.0270
    172  CG        11.9600   -7.5020   17.1810 C.3   142  LEU142      0.0019
    173  CD1       11.8430   -8.2970   15.9290 C.3   142  LEU142      0.0001
    174  CD2       10.7460   -7.7510   18.0470 C.3   142  LEU142      0.0001
    175  N         13.4280   -4.3160   14.2250 N.3   152  GLY152     -0.1210
    176  CA        12.6040   -5.3750   13.6510 C.3   152  GLY152      0.1956
    177  C         11.4380   -5.0750   12.7410 C.2   152  GLY152      0.2611
    178  O         10.7220   -6.0110   12.3650 O.2   152  GLY152     -0.2717
    179  N         11.2070   -3.7980   12.4100 N.am  153  ASP153     -0.1973
    180  CA        10.1310   -3.3980   11.5010 C.3   153  ASP153      0.1709
    181  C         10.5260   -2.1740   10.7020 C.2   153  ASP153      0.2293
    182  O         11.2130   -1.3200   11.2390 O.2   153  ASP153     -0.2864
    183  CB         8.7930   -3.1770   12.2060 C.3   153  ASP153      0.1436
    184  CG         7.6410   -3.0770   11.2300 C.2   153  ASP153      0.3671
    185  OD1        7.1830   -4.1380   10.7390 O.co2 153  ASP153     -0.2456
    186  OD2        7.2340   -1.9380   10.9080 O.co2 153  ASP153     -0.2456
@<TRIPOS>BOND
     1    65    64    2
     2    64    63    1
     3    63    66    1
     4    63    62    1
     5    79    80    1
     6    66    67    1
     7    67    68    1
     8    68    69    1
     9    69    70    1
    10    84    83    1
    11    84    85    1
    12    38    37    1
    13    38    39    1
    14    80    83    1
    15    80    81    1
    16    60    59    2
    17    85    86    1
    18    44    43    2
    19    74    73    2
    20    41    39   am
    21    41    42    1
    22    81    82    2
    23    81    87   am
    24    39    40    2
    25    59    58    1
    26    87    88    1
    27    45    42    1
    28    45    46    1
    29    73    72    1
    30    43    42    1
    31    43    50   am
    32    46    47    1
    33   181   182    2
    34   181   180    1
    35   185   184   ar
    36    77    75    1
    37   186   184   ar
    38    57    58    1
    39    88    91    1
    40    88    89    1
    41   184   183    1
    42    58    61    1
    43    56    54    1
    44    49    48    1
    45   180   183    1
    46   180   179    1
    47    50    51    1
    48    51    54    1
    49    51    52    1
    50    91    92    1
    51    72    71    1
    52    72    75    1
    53    48    47    1
    54    75    76    1
    55    76    78    1
    56    54    55    1
    57    52    53    2
    58    35    36    2
    59    35    34    1
    60    89    90    2
    61    89    96   am
    62   178   177    2
    63   179   177   am
    64    92    93    1
    65    94    93   ar
    66   177   176    1
    67    34    33    1
    68    93    95   ar
    69    33    26   am
    70    31    30   ar
    71    96    97    1
    72   176   175    1
    73    25    26    1
    74    25    28    1
    75    25    24    1
    76    23    22    2
    77    30    32   ar
    78    30    29    1
    79    26    27    2
    80    28    29    1
    81    97   100    1
    82    97    98    1
    83   100   101    1
    84    22    24   am
    85    22    21    1
    86     4     3    2
    87   166   164   am
    88    18    17    1
    89   165   164    2
    90   164   163    1
    91    98    99    2
    92    98   108   am
    93     1     2    1
    94     3     2    1
    95   101   102   ar
    96   101   103   ar
    97   173   172    1
    98    12    13    1
    99   114   112    1
   100   163   160    1
   101    17    16    1
   102    17    19    1
   103    16    13    1
   104    20    21    1
   105    20    14   am
   106   108   109    1
   107   102   104   ar
   108   162   161    2
   109     2     5    1
   110    13    14    1
   111   103   105   ar
   112    14    15    2
   113   160   161    1
   114   160   159    1
   115   172   171    1
   116   172   174    1
   117   112   109    1
   118   112   113    1
   119   109   110    1
   120   104   106   ar
   121   157   156    1
   122   155   156    2
   123   155   154    1
   124     5     6    1
   125   171   168    1
   126     6     7    1
   127   105   106   ar
   128   156   158    1
   129   159   150   am
   130   106   107    1
   131   151   150    2
   132   154   153    1
   133   110   111    2
   134   110   115   am
   135   153   152    1
   136   167   168    1
   137   150   149    1
   138   121   115    1
   139   121   120    1
   140   168   169    1
   141   115   116    1
   142     7     8    1
   143    10     9    1
   144     8     9    2
   145   170   169    2
   146     9    11    1
   147   152   149    1
   148   149   148    1
   149   120   119    1
   150   116   119    1
   151   116   117    1
   152   138   135    1
   153   138   139    1
   154   131   132    1
   155   131   130    1
   156   132   133    2
   157   132   134   am
   158   134   135    1
   159   117   122   am
   160   117   118    2
   161   135   136    1
   162   130   124   am
   163   122   123    1
   164   146   145   ar
   165   124   123    1
   166   124   125    2
   167   136   137    2
   168   145   147   ar
   169   145   144    1
   170   123   126    1
   171   126   127    1
   172   127   128    1
   173   127   129    1
   174   144   141    1
   175   140   141    1
   176   141   142    1
   177   142   143    2
