@<TRIPOS>MOLECULE
tmp/6dbmA00.pdb
 195 187 0 0 0
SMALL
GASTEIGER

@<TRIPOS>ATOM
      1  N          1.1020  -18.2860   15.2160 N.3    13  ARG13      -0.1231
      2  CA         0.3500  -17.2540   15.9220 C.3    13  ARG13       0.1694
      3  C          0.6160  -15.8690   15.3390 C.2    13  ARG13       0.2592
      4  O          1.5050  -15.6930   14.5050 O.2    13  ARG13      -0.2718
      5  CB         0.6920  -17.2690   17.4140 C.3    13  ARG13       0.0321
      6  CG         2.1050  -16.8140   17.7420 C.3    13  ARG13       0.0489
      7  CD         2.3460  -16.8540   19.2420 C.3    13  ARG13       0.2205
      8  NE         3.6150  -16.2340   19.6180 N.pl3  13  ARG13      -0.0865
      9  CZ         4.7440  -16.9040   19.8220 C.cat  13  ARG13       0.5346
     10  NH1        4.7730  -18.2240   19.6890 N.pl3  13  ARG13       0.1354
     11  NH2        5.8470  -16.2540   20.1620 N.pl3  13  ARG13       0.1354
     12  N         -0.1670  -14.8900   15.7790 N.am   14  ASP14      -0.1960
     13  CA         0.0220  -13.5080   15.3590 C.3    14  ASP14       0.1840
     14  C          1.0990  -12.8430   16.2070 C.2    14  ASP14       0.2622
     15  O          1.2130  -13.1110   17.4040 O.2    14  ASP14      -0.2715
     16  CB        -1.2880  -12.7230   15.4620 C.3    14  ASP14       0.1450
     17  CG        -2.3470  -13.2250   14.5000 C.2    14  ASP14       0.3671
     18  OD1       -2.0080  -13.5030   13.3310 O.co2  14  ASP14      -0.2456
     19  OD2       -3.5180  -13.3400   14.9130 O.co2  14  ASP14      -0.2456
     20  N          1.8900  -11.9750   15.5840 N.am   15  LEU15      -0.1963
     21  CA         2.9590  -11.2840   16.2920 C.3    15  LEU15       0.1728
     22  C          2.6920   -9.7860   16.3730 C.2    15  LEU15       0.2617
     23  O          3.2620   -9.0920   17.2130 O.2    15  LEU15      -0.2715
     24  CB         4.3060  -11.5470   15.6170 C.3    15  LEU15       0.0311
     25  CG         4.7960  -12.9960   15.6720 C.3    15  LEU15       0.0022
     26  CD1        6.2180  -13.1020   15.1450 C.3    15  LEU15       0.0001
     27  CD2        4.7000  -13.5420   17.0890 C.3    15  LEU15       0.0001
     28  N          1.8220   -9.2900   15.4990 N.am   16  GLY16      -0.1940
     29  CA         1.4360   -7.8930   15.5440 C.3    16  GLY16       0.2014
     30  C          0.8820   -7.3340   14.2500 C.2    16  GLY16       0.2639
     31  O          0.9310   -7.9780   13.2020 O.2    16  GLY16      -0.2714
     32  N          0.3430   -6.1230   14.3360 N.am   17  GLU17      -0.1963
     33  CA        -0.1540   -5.4110   13.1670 C.3    17  GLU17       0.1733
     34  C         -0.0620   -3.9100   13.4070 C.2    17  GLU17       0.2617
     35  O         -0.0540   -3.4560   14.5510 O.2    17  GLU17      -0.2715
     36  CB        -1.5920   -5.8240   12.8440 C.3    17  GLU17       0.0429
     37  CG        -2.5910   -5.5820   13.9640 C.3    17  GLU17       0.1163
     38  CD        -3.9950   -6.0260   13.5960 C.2    17  GLU17       0.3649
     39  OE1       -4.9040   -5.8880   14.4390 O.co2  17  GLU17      -0.2457
     40  OE2       -4.1870   -6.5160   12.4630 O.co2  17  GLU17      -0.2457
     41  N          0.0190   -3.1440   12.3250 N.am   18  GLY18      -0.1940
     42  CA         0.1540   -1.7030   12.4220 C.3    18  GLY18       0.2014
     43  C          0.2420   -1.0430   11.0620 C.2    18  GLY18       0.2638
     44  O          0.7820   -1.6210   10.1180 O.2    18  GLY18      -0.2714
     45  N         -0.2850    0.1720   10.9640 N.am   19  HIS19      -0.1973
     46  CA        -0.3460    0.8790    9.6910 C.3    19  HIS19       0.1656
     47  C         -0.9620    0.0000    8.6070 C.2    19  HIS19       0.2291
     48  O         -2.1740   -0.2040    8.5640 O.2    19  HIS19      -0.2864
     49  CB         1.0470    1.3370    9.2500 C.3    19  HIS19       0.0771
     50  CG         1.8010    2.0970   10.2960 C.ar   19  HIS19       0.0820
     51  ND1        1.3250    3.2600   10.8620 N.ar   19  HIS19      -0.2267
     52  CD2        3.0070    1.8670   10.8670 C.ar   19  HIS19       0.1154
     53  CE1        2.2000    3.7080   11.7440 C.ar   19  HIS19       0.1986
     54  NE2        3.2300    2.8800   11.7660 N.ar   19  HIS19      -0.2212
     55  N          0.1760   -3.4240    7.3730 N.3    21  GLY21      -0.1225
     56  CA         0.1390   -4.8750    7.3970 C.3    21  GLY21       0.1811
     57  C          0.0180   -5.5850    8.7310 C.2    21  GLY21       0.2280
     58  O         -0.1350   -4.9660    9.7850 O.2    21  GLY21      -0.2866
     59  N          1.7200   -9.1210   10.9880 N.3    23  VAL23      -0.1245
     60  CA         2.8810   -9.9970   11.0940 C.3    23  VAL23       0.1561
     61  C          2.5450  -11.2360   11.9130 C.2    23  VAL23       0.2260
     62  O          2.0560  -11.1360   13.0370 O.2    23  VAL23      -0.2867
     63  CB         4.0820   -9.2510   11.7010 C.3    23  VAL23       0.0252
     64  CG1        5.2710  -10.1890   11.8480 C.3    23  VAL23       0.0019
     65  CG2        4.4460   -8.0520   10.8420 C.3    23  VAL23       0.0019
     66  N          8.9850  -15.0680   10.7190 N.3    32  ALA32      -0.1245
     67  CA         7.9530  -14.0560   10.8760 C.3    32  ALA32       0.1562
     68  C          7.5690  -13.5360    9.4950 C.2    32  ALA32       0.2260
     69  O          8.4190  -13.0450    8.7510 O.2    32  ALA32      -0.2867
     70  CB         8.4330  -12.9250   11.7680 C.3    32  ALA32       0.0290
     71  N          5.2260  -11.0090    7.1310 N.3    34  LYS34      -0.1245
     72  CA         4.4420   -9.7820    7.1210 C.3    34  LYS34       0.1561
     73  C          3.6230   -9.6770    5.8400 C.2    34  LYS34       0.2260
     74  O          4.1380   -9.9020    4.7450 O.2    34  LYS34      -0.2867
     75  CB         5.3530   -8.5640    7.2720 C.3    34  LYS34       0.0271
     76  CG         4.6400   -7.2350    7.1100 C.3    34  LYS34       0.0035
     77  CD         5.5620   -6.0720    7.4410 C.3    34  LYS34       0.0206
     78  CE         4.8510   -4.7400    7.2760 C.3    34  LYS34       0.1093
     79  NZ         5.6890   -3.6000    7.7400 N.3    34  LYS34      -0.1314
     80  N         16.6660   -6.2210   11.1820 N.3    59  ILE59      -0.1245
     81  CA        16.0450   -7.5290   11.0190 C.3    59  ILE59       0.1561
     82  C         16.4340   -8.1160    9.6670 C.2    59  ILE59       0.2260
     83  O         16.5360   -7.3980    8.6730 O.2    59  ILE59      -0.2867
     84  CB        14.5180   -7.4480   11.1740 C.3    59  ILE59       0.0252
     85  CG1       13.9150   -8.8510   11.2490 C.3    59  ILE59       0.0019
     86  CG2       13.9110   -6.6650   10.0240 C.3    59  ILE59       0.0019
     87  CD1       12.4320   -8.8620   11.5330 C.3    59  ILE59       0.0001
     88  N         10.7150  -12.8590    7.2230 N.3    77  MET77      -0.1230
     89  CA        11.8690  -12.3680    7.9620 C.3    77  MET77       0.1702
     90  C         12.2510  -13.3600    9.0530 C.2    77  MET77       0.2592
     91  O         11.5650  -14.3610    9.2590 O.2    77  MET77      -0.2718
     92  CB        11.5710  -11.0000    8.5770 C.3    77  MET77       0.0401
     93  CG        10.7550  -10.0810    7.6850 C.3    77  MET77       0.0596
     94  SD        10.1370   -8.6510    8.5910 S.3    77  MET77      -0.1393
     95  CE         9.2050   -9.4570    9.8930 C.3    77  MET77       0.0692
     96  N         13.3480  -13.0800    9.7490 N.am   78  GLU78      -0.1966
     97  CA        13.7650  -13.9180   10.8650 C.3    78  GLU78       0.1733
     98  C         12.8420  -13.6920   12.0530 C.2    78  GLU78       0.2616
     99  O         12.2900  -12.6030   12.2270 O.2    78  GLU78      -0.2715
    100  CB        15.2130  -13.6210   11.2590 C.3    78  GLU78       0.0429
    101  CG        15.3910  -12.2380   11.8760 C.3    78  GLU78       0.1163
    102  CD        16.8180  -11.9510   12.3040 C.2    78  GLU78       0.3649
    103  OE1       17.2980  -10.8210   12.0680 O.co2  78  GLU78      -0.2457
    104  OE2       17.4560  -12.8520   12.8850 O.co2  78  GLU78      -0.2457
    105  N         12.6670  -14.7270   12.8650 N.am   79  TYR79      -0.1960
    106  CA        11.8920  -14.6040   14.0870 C.3    79  TYR79       0.1771
    107  C         12.7910  -14.1680   15.2360 C.2    79  TYR79       0.2619
    108  O         13.6490  -14.9250   15.6850 O.2    79  TYR79      -0.2715
    109  CB        11.2000  -15.9230   14.4290 C.3    79  TYR79       0.0574
    110  CG        10.5040  -15.9270   15.7730 C.ar   79  TYR79      -0.0198
    111  CD1        9.3790  -15.1440   15.9970 C.ar   79  TYR79      -0.0009
    112  CD2       10.9660  -16.7220   16.8140 C.ar   79  TYR79      -0.0009
    113  CE1        8.7370  -15.1460   17.2240 C.ar   79  TYR79       0.0417
    114  CE2       10.3290  -16.7340   18.0430 C.ar   79  TYR79       0.0417
    115  CZ         9.2160  -15.9450   18.2430 C.ar   79  TYR79       0.1957
    116  OH         8.5800  -15.9510   19.4650 O.3    79  TYR79      -0.2866
    117  N         12.5970  -12.9370   15.6940 N.am   80  VAL80      -0.1964
    118  CA        13.2900  -12.4600   16.8790 C.3    80  VAL80       0.1712
    119  C         12.5130  -12.9540   18.0910 C.2    80  VAL80       0.2458
    120  O         11.3840  -12.5200   18.3280 O.2    80  VAL80      -0.2730
    121  CB        13.4330  -10.9340   16.8710 C.3    80  VAL80       0.0289
    122  CG1       14.4140  -10.4940   17.9370 C.3    80  VAL80       0.0023
    123  CG2       13.8810  -10.4530   15.4970 C.3    80  VAL80       0.0023
    124  N         13.1180  -13.8630   18.8680 N.am   81  PRO81      -0.2716
    125  CA        12.4140  -14.6700   19.8750 C.3    81  PRO81       0.1536
    126  C         11.8260  -13.8850   21.0480 C.2    81  PRO81       0.2598
    127  O         10.7460  -14.2410   21.5190 O.2    81  PRO81      -0.2715
    128  CB        13.5040  -15.6260   20.3700 C.3    81  PRO81       0.0310
    129  CG        14.7790  -14.8850   20.1500 C.3    81  PRO81       0.0237
    130  CD        14.5730  -14.0930   18.8900 C.3    81  PRO81       0.0939
    131  N         12.5130  -12.8450   21.5110 N.am   82  LEU82      -0.1964
    132  CA        12.0820  -12.1440   22.7180 C.3    82  LEU82       0.1728
    133  C         11.1610  -10.9610   22.4210 C.2    82  LEU82       0.2617
    134  O         10.7440  -10.2480   23.3330 O.2    82  LEU82      -0.2715
    135  CB        13.2980  -11.6700   23.5180 C.3    82  LEU82       0.0311
    136  CG        14.1700  -12.7880   24.0950 C.3    82  LEU82       0.0022
    137  CD1       15.1840  -12.2260   25.0780 C.3    82  LEU82       0.0001
    138  CD2       13.3140  -13.8600   24.7530 C.3    82  LEU82       0.0001
    139  N         10.8440  -10.7620   21.1460 N.am   83  GLY83      -0.1940
    140  CA         9.9050   -9.7270   20.7490 C.3    83  GLY83       0.2014
    141  C         10.4440   -8.3130   20.8550 C.2    83  GLY83       0.2639
    142  O         11.6540   -8.1060   20.9360 O.2    83  GLY83      -0.2714
    143  N          9.5390   -7.3380   20.8550 N.am   84  SER84      -0.1949
    144  CA         9.9270   -5.9310   20.9030 C.3    84  SER84       0.1924
    145  C         10.2010   -5.4770   22.3330 C.2    84  SER84       0.2314
    146  O          9.7520   -6.1080   23.2910 O.2    84  SER84      -0.2863
    147  CB         8.8420   -5.0510   20.2800 C.3    84  SER84       0.2116
    148  OG         7.7520   -4.8800   21.1700 O.3    84  SER84      -0.2180
    149  N          7.2240   -4.9270   24.4340 N.3    87  ASP87      -0.1239
    150  CA         6.7040   -6.1670   24.9900 C.3    87  ASP87       0.1674
    151  C          7.5610   -6.6170   26.1670 C.2    87  ASP87       0.2266
    152  O          7.0510   -6.9560   27.2370 O.2    87  ASP87      -0.2867
    153  CB         6.6680   -7.2710   23.9280 C.3    87  ASP87       0.1410
    154  CG         5.7920   -6.9190   22.7440 C.2    87  ASP87       0.3668
    155  OD1        4.7730   -6.2260   22.9370 O.co2  87  ASP87      -0.2456
    156  OD2        6.1210   -7.3420   21.6180 O.co2  87  ASP87      -0.2456
    157  N          8.3620   -0.0690   20.1450 N.3   126  ARG126     -0.1231
    158  CA         7.5420   -1.1500   19.6100 C.3   126  ARG126      0.1694
    159  C          8.1560   -1.7640   18.3570 C.2   126  ARG126      0.2592
    160  O          7.7460   -2.8380   17.9200 O.2   126  ARG126     -0.2718
    161  CB         6.1360   -0.6400   19.2920 C.3   126  ARG126      0.0321
    162  CG         6.1160    0.4590   18.2450 C.3   126  ARG126      0.0489
    163  CD         4.7220    1.0320   18.0590 C.3   126  ARG126      0.2205
    164  NE         4.7260    2.1520   17.1230 N.pl3 126  ARG126     -0.0865
    165  CZ         4.8940    3.4210   17.4780 C.cat 126  ARG126      0.5346
    166  NH1        4.8860    4.3760   16.5580 N.pl3 126  ARG126      0.1354
    167  NH2        5.0700    3.7370   18.7540 N.pl3 126  ARG126      0.1354
    168  N          9.1260   -1.0670   17.7720 N.am  127  ASN127     -0.1974
    169  CA         9.7540   -1.5220   16.5360 C.3   127  ASN127      0.1688
    170  C         11.2130   -1.9390   16.7200 C.2   127  ASN127      0.2292
    171  O         11.9330   -2.1500   15.7430 O.2   127  ASN127     -0.2864
    172  CB         9.6590   -0.4300   15.4690 C.3   127  ASN127      0.1181
    173  CG         8.2880   -0.3620   14.8270 C.2   127  ASN127      0.2629
    174  OD1        7.6690   -1.3900   14.5490 O.2   127  ASN127     -0.2716
    175  ND2        7.8050    0.8510   14.5870 N.am  127  ASN127     -0.0877
    176  N         13.5370   -4.9140   18.2620 N.3   129  LEU129     -0.1245
    177  CA        13.3780   -6.3090   18.6530 C.3   129  LEU129      0.1561
    178  C         14.5830   -6.8600   19.4110 C.2   129  LEU129      0.2260
    179  O         15.7300   -6.5290   19.1100 O.2   129  LEU129     -0.2867
    180  CB        13.1090   -7.1690   17.4180 C.3   129  LEU129      0.0270
    181  CG        11.8290   -6.8060   16.6620 C.3   129  LEU129      0.0019
    182  CD1       11.6240   -7.7240   15.4690 C.3   129  LEU129      0.0001
    183  CD2       10.6290   -6.8550   17.5930 C.3   129  LEU129      0.0001
    184  N         13.0680   -3.7650   13.7240 N.3   139  GLY139     -0.1210
    185  CA        12.2460   -4.8300   13.1760 C.3   139  GLY139      0.1956
    186  C         11.1470   -4.4910   12.1840 C.2   139  GLY139      0.2611
    187  O         10.4250   -5.3840   11.7410 O.2   139  GLY139     -0.2717
    188  N         11.0040   -3.2190   11.8280 N.am  140  ASP140     -0.1973
    189  CA         9.9810   -2.8390   10.8550 C.3   140  ASP140      0.1709
    190  C         10.3570   -1.5800   10.0830 C.2   140  ASP140      0.2293
    191  O         10.9870   -0.6680   10.6200 O.2   140  ASP140     -0.2864
    192  CB         8.6310   -2.6390   11.5490 C.3   140  ASP140      0.1436
    193  CG         7.4750   -2.5770   10.5650 C.2   140  ASP140      0.3671
    194  OD1        7.0620   -3.6440   10.0660 O.co2 140  ASP140     -0.2456
    195  OD2        6.9770   -1.4640   10.2940 O.co2 140  ASP140     -0.2456
@<TRIPOS>BOND
     1    74    73    2
     2    73    72    1
     3    76    75    1
     4    76    77    1
     5    72    71    1
     6    72    75    1
     7    88    89    1
     8    78    77    1
     9    78    79    1
    10    55    56    1
    11    56    57    1
    12    93    92    1
    13    93    94    1
    14    89    92    1
    15    89    90    1
    16    48    47    2
    17    94    95    1
    18    47    46    1
    19    83    82    2
    20    57    58    2
    21    69    68    2
    22    90    91    2
    23    90    96   am
    24    49    46    1
    25    49    50    1
    26    68    67    1
    27    82    81    1
    28    46    45    1
    29    96    97    1
    30    86    84    1
    31   194   193   ar
    32   190   191    2
    33   190   189    1
    34    44    43    2
    35   195   193   ar
    36    50    51   ar
    37    50    52   ar
    38   193   192    1
    39    66    67    1
    40    65    63    1
    41   189   192    1
    42   189   188    1
    43    51    53   ar
    44    97   100    1
    45    97    98    1
    46    52    54   ar
    47    67    70    1
    48    45    43   am
    49    59    60    1
    50    81    84    1
    51    81    80    1
    52    43    42    1
    53    60    63    1
    54    60    61    1
    55    84    85    1
    56    85    87    1
    57   100   101    1
    58    63    64    1
    59   187   186    2
    60    53    54   ar
    61   188   186   am
    62   101   102    1
    63    61    62    2
    64    98    99    2
    65    98   105   am
    66   103   102   ar
    67   186   185    1
    68   102   104   ar
    69    41    42    1
    70    41    34   am
    71    40    38   ar
    72    36    33    1
    73    36    37    1
    74   105   106    1
    75    33    34    1
    76    33    32    1
    77   185   184    1
    78    31    30    2
    79    18    17   ar
    80    34    35    2
    81    38    37    1
    82    38    39   ar
    83   106   109    1
    84   106   107    1
    85    30    32   am
    86    30    29    1
    87   109   110    1
    88    17    19   ar
    89    17    16    1
    90     4     3    2
    91   174   173    2
    92   175   173   am
    93   173   172    1
    94    26    25    1
    95     1     2    1
    96   107   108    2
    97   107   117   am
    98     3    12   am
    99     3     2    1
   100    13    16    1
   101    13    12    1
   102    13    14    1
   103   172   169    1
   104   182   181    1
   105   123   121    1
   106    28    29    1
   107    28    22   am
   108    20    14   am
   109    20    21    1
   110    24    25    1
   111    24    21    1
   112    25    27    1
   113   117   118    1
   114   171   170    2
   115   110   111   ar
   116   110   112   ar
   117     2     5    1
   118   111   113   ar
   119    14    15    2
   120    21    22    1
   121    22    23    2
   122   169   170    1
   123   169   168    1
   124   166   165    1
   125   181   180    1
   126   181   183    1
   127   112   114   ar
   128   121   118    1
   129   121   122    1
   130   118   119    1
   131   164   165    2
   132   164   163    1
   133   113   115   ar
   134     5     6    1
   135   180   177    1
   136   165   167    1
   137     6     7    1
   138   168   159   am
   139   160   159    2
   140   114   115   ar
   141   163   162    1
   142   119   120    2
   143   119   124   am
   144   115   116    1
   145   162   161    1
   146   176   177    1
   147   159   158    1
   148   177   178    1
   149   124   130    1
   150   124   125    1
   151   130   129    1
   152   179   178    2
   153     7     8    1
   154   161   158    1
   155   158   157    1
   156     8     9    2
   157    10     9    1
   158     9    11    1
   159   125   128    1
   160   125   126    1
   161   129   128    1
   162   147   144    1
   163   147   148    1
   164   140   141    1
   165   140   139    1
   166   141   143   am
   167   141   142    2
   168   143   144    1
   169   144   145    1
   170   126   131   am
   171   126   127    2
   172   139   133   am
   173   131   132    1
   174   156   154   ar
   175   145   146    2
   176   133   132    1
   177   133   134    2
   178   132   135    1
   179   154   155   ar
   180   154   153    1
   181   135   136    1
   182   153   150    1
   183   136   138    1
   184   136   137    1
   185   149   150    1
   186   150   151    1
   187   151   152    2
