@<TRIPOS>MOLECULE
tmp/6dbnA00.pdb
 192 182 0 0 0
SMALL
GASTEIGER

@<TRIPOS>ATOM
      1  N         12.1850   26.7750  -13.9630 N.3    13  ARG13      -0.1245
      2  CA        12.4300   26.2730  -15.3270 C.3    13  ARG13       0.1563
      3  C         11.6810   24.9750  -15.6280 C.2    13  ARG13       0.2260
      4  O         11.4250   24.1850  -14.7200 O.2    13  ARG13      -0.2867
      5  CB        13.9380   26.0990  -15.6160 C.3    13  ARG13       0.0307
      6  CG        14.6980   25.2620  -14.5810 C.3    13  ARG13       0.0489
      7  CD        16.0030   24.6930  -15.1220 C.3    13  ARG13       0.2205
      8  NE        16.8090   24.0830  -14.0600 N.pl3  13  ARG13      -0.0865
      9  CZ        17.3160   22.8520  -14.1010 C.cat  13  ARG13       0.5346
     10  NH1       17.1030   22.0730  -15.1550 N.pl3  13  ARG13       0.1354
     11  NH2       18.0410   22.3920  -13.0890 N.pl3  13  ARG13       0.1354
     12  N         11.1700   21.1450  -16.9300 N.3    15  LEU15      -0.1231
     13  CA        11.9530   19.9020  -16.7880 C.3    15  LEU15       0.1693
     14  C         11.6270   18.8040  -17.8290 C.2    15  LEU15       0.2593
     15  O         12.5340   18.0820  -18.2410 O.2    15  LEU15      -0.2718
     16  CB        11.8490   19.3380  -15.3500 C.3    15  LEU15       0.0284
     17  CG        12.4490   20.2140  -14.2310 C.3    15  LEU15       0.0019
     18  CD1       12.0800   19.6750  -12.8850 C.3    15  LEU15       0.0001
     19  CD2       13.9700   20.3470  -14.3470 C.3    15  LEU15       0.0001
     20  N         10.3670   18.7000  -18.2470 N.am   16  GLY16      -0.1942
     21  CA         9.9320   17.7180  -19.2320 C.3    16  GLY16       0.2014
     22  C          8.4570   17.8040  -19.5630 C.2    16  GLY16       0.2639
     23  O          7.6440   18.1080  -18.6940 O.2    16  GLY16      -0.2714
     24  N          8.1000   17.5240  -20.8240 N.am   17  GLU17      -0.1963
     25  CA         6.7200   17.5430  -21.3200 C.3    17  GLU17       0.1733
     26  C          6.2930   16.1370  -21.7520 C.2    17  GLU17       0.2616
     27  O          7.1110   15.2200  -21.8070 O.2    17  GLU17      -0.2715
     28  CB         6.5930   18.5090  -22.5220 C.3    17  GLU17       0.0429
     29  CG         6.5870   19.9880  -22.1560 C.3    17  GLU17       0.1163
     30  CD         6.2810   20.9910  -23.2610 C.2    17  GLU17       0.3649
     31  OE1        6.1500   22.1950  -22.9360 O.co2  17  GLU17      -0.2457
     32  OE2        6.1660   20.5840  -24.4410 O.co2  17  GLU17      -0.2457
     33  N          5.0150   16.0000  -22.0750 N.am   18  GLY18      -0.1955
     34  CA         4.4230   14.7800  -22.6070 C.3    18  GLY18       0.1869
     35  C          3.4320   15.1490  -23.6910 C.2    18  GLY18       0.2309
     36  O          3.7870   15.8280  -24.6600 O.2    18  GLY18      -0.2863
     37  N          0.6610   16.1460  -19.9680 N.3    21  GLY21      -0.1210
     38  CA         1.4390   16.4470  -18.7710 C.3    21  GLY21       0.1956
     39  C          2.7210   17.2030  -19.0440 C.2    21  GLY21       0.2612
     40  O          3.3080   17.0920  -20.1230 O.2    21  GLY21      -0.2717
     41  N          3.1350   18.0070  -18.0740 N.am   22  LYS22      -0.1965
     42  CA         4.3730   18.7880  -18.1050 C.3    22  LYS22       0.1728
     43  C          4.9570   18.8860  -16.6820 C.2    22  LYS22       0.2616
     44  O          4.2070   18.8920  -15.7020 O.2    22  LYS22      -0.2715
     45  CB         4.1850   20.1640  -18.7760 C.3    22  LYS22       0.0311
     46  CG         3.4250   21.2210  -17.9480 C.3    22  LYS22       0.0038
     47  CD         3.8210   22.6490  -18.3540 C.3    22  LYS22       0.0206
     48  CE         3.4580   23.6950  -17.3220 C.3    22  LYS22       0.1093
     49  NZ         2.0460   24.1480  -17.4380 N.3    22  LYS22      -0.1314
     50  N          6.2880   18.9400  -16.5760 N.am   23  VAL23      -0.1977
     51  CA         6.9950   18.9780  -15.2890 C.3    23  VAL23       0.1596
     52  C          7.8810   20.2300  -15.1630 C.2    23  VAL23       0.2287
     53  O          8.6300   20.5510  -16.0880 O.2    23  VAL23      -0.2864
     54  CB         7.7650   17.6440  -15.0390 C.3    23  VAL23       0.0276
     55  CG1        8.6990   17.7310  -13.8360 C.3    23  VAL23       0.0022
     56  CG2        6.7850   16.4860  -14.8710 C.3    23  VAL23       0.0022
     57  N          9.7500   19.2660   -7.9240 N.3    40  ALA40      -0.1245
     58  CA         9.3220   18.9670   -9.2880 C.3    40  ALA40       0.1562
     59  C          7.8070   19.0090   -9.2380 C.2    40  ALA40       0.2260
     60  O          7.1940   18.4660   -8.3060 O.2    40  ALA40      -0.2867
     61  CB         9.7920   17.5880   -9.7050 C.3    40  ALA40       0.0290
     62  N          4.4420   18.3090  -11.5120 N.3    42  LYS42      -0.1245
     63  CA         3.7830   17.7360  -12.6700 C.3    42  LYS42       0.1561
     64  C          2.3830   18.3450  -12.7810 C.2    42  LYS42       0.2260
     65  O          1.6020   18.3130  -11.8200 O.2    42  LYS42      -0.2867
     66  CB         3.7220   16.2000  -12.5560 C.3    42  LYS42       0.0271
     67  CG         2.9910   15.5380  -13.7290 C.3    42  LYS42       0.0035
     68  CD         3.5940   14.1970  -14.1230 C.3    42  LYS42       0.0206
     69  CE         2.7500   13.5990  -15.2090 C.3    42  LYS42       0.1093
     70  NZ         3.1170   12.2030  -15.5300 N.3    42  LYS42      -0.1314
     71  N         10.9700    7.9700   -7.1150 N.3    68  VAL68      -0.1245
     72  CA        10.9310    9.4100   -6.8350 C.3    68  VAL68       0.1561
     73  C          9.9050    9.6420   -5.7310 C.2    68  VAL68       0.2260
     74  O          8.8130    9.0510   -5.7760 O.2    68  VAL68      -0.2867
     75  CB        10.7290   10.2740   -8.1180 C.3    68  VAL68       0.0252
     76  CG1        9.3200   10.1490   -8.7000 C.3    68  VAL68       0.0019
     77  CG2       11.0940   11.7330   -7.8810 C.3    68  VAL68       0.0019
     78  N          6.5530   16.4810   -6.3090 N.3    83  MET83      -0.1230
     79  CA         7.5750   15.5000   -5.9230 C.3    83  MET83       0.1702
     80  C          8.9670   16.1320   -5.7160 C.2    83  MET83       0.2595
     81  O          9.1340   17.3610   -5.8810 O.2    83  MET83      -0.2718
     82  CB         7.6530   14.2700   -6.8700 C.3    83  MET83       0.0401
     83  CG         6.8930   14.3880   -8.1720 C.3    83  MET83       0.0596
     84  SD         7.8530   13.7670   -9.5750 S.3    83  MET83      -0.1393
     85  CE         7.1130   14.7750  -10.8640 C.3    83  MET83       0.0692
     86  N          9.9530   15.2870   -5.3020 N.am   84  GLU84      -0.1920
     87  CA        11.3320   15.6910   -5.0810 C.3    84  GLU84       0.1949
     88  C         12.0040   15.9960   -6.4170 C.2    84  GLU84       0.2659
     89  O         11.6720   15.4210   -7.4550 O.2    84  GLU84      -0.2711
     90  CB        12.1250   14.6560   -4.2520 C.2    84  GLU84       0.0111
     91  CG        12.3920   13.3240   -4.9400 C.2    84  GLU84       0.0838
     92  CD        13.2920   12.3250   -4.2360 C.2    84  GLU84       0.3877
     93  OE1       14.2340   12.7550   -3.5310 O.co2  84  GLU84      -0.2406
     94  OE2       13.0950   11.1060   -4.4460 O.co2  84  GLU84      -0.2406
     95  N         12.9010   16.9620   -6.3890 N.am   85  PHE85      -0.1957
     96  CA        13.5980   17.4310   -7.5590 C.3    85  PHE85       0.1771
     97  C         14.9560   16.7740   -7.5420 C.2    85  PHE85       0.2619
     98  O         15.6600   16.8300   -6.5230 O.2    85  PHE85      -0.2715
     99  CB        13.6930   18.9770   -7.5280 C.3    85  PHE85       0.0574
    100  CG        14.6040   19.5190   -8.5960 C.ar   85  PHE85      -0.0200
    101  CD1       14.2480   19.4510   -9.9390 C.ar   85  PHE85      -0.0042
    102  CD2       15.8440   20.0380   -8.2730 C.ar   85  PHE85      -0.0042
    103  CE1       15.1200   19.9000  -10.9370 C.ar   85  PHE85      -0.0003
    104  CE2       16.6980   20.5280   -9.2680 C.ar   85  PHE85      -0.0003
    105  CZ        16.3320   20.4510  -10.5950 C.ar   85  PHE85      -0.0000
    106  N         15.3210   16.1330   -8.6410 N.am   86  LEU86      -0.1964
    107  CA        16.6090   15.4500   -8.7090 C.3    86  LEU86       0.1713
    108  C         17.4100   16.2050   -9.6920 C.2    86  LEU86       0.2458
    109  O         17.0960   16.1430  -10.8650 O.2    86  LEU86      -0.2730
    110  CB        16.4700   13.9390   -9.0540 C.3    86  LEU86       0.0310
    111  CG        15.6260   13.0430   -8.0830 C.3    86  LEU86       0.0022
    112  CD1       16.2010   11.6400   -8.0240 C.3    86  LEU86       0.0001
    113  CD2       15.7090   13.4920   -6.6550 C.3    86  LEU86       0.0001
    114  N         18.3270   17.0680   -9.2090 N.am   87  PRO87      -0.2716
    115  CA        19.0410   18.0030  -10.1060 C.3    87  PRO87       0.1536
    116  C         19.8260   17.4380  -11.2870 C.2    87  PRO87       0.2599
    117  O         20.0350   18.1750  -12.2610 O.2    87  PRO87      -0.2715
    118  CB        19.9990   18.7350   -9.1570 C.3    87  PRO87       0.0310
    119  CG        19.3750   18.6330   -7.8350 C.3    87  PRO87       0.0237
    120  CD        18.7220   17.2900   -7.8010 C.3    87  PRO87       0.0939
    121  N         20.2790   16.1700  -11.2150 N.am   88  SER88      -0.1936
    122  CA        21.1010   15.5940  -12.2850 C.3    88  SER88       0.2055
    123  C         20.3000   15.2590  -13.5360 C.2    88  SER88       0.2644
    124  O         20.8850   15.0490  -14.6000 O.2    88  SER88      -0.2714
    125  CB        21.9060   14.3960  -11.7920 C.3    88  SER88       0.2130
    126  OG        22.5850   14.6950  -10.5820 O.3    88  SER88      -0.2179
    127  N         18.9750   15.2870  -13.4100 N.am   89  GLY89      -0.1939
    128  CA        18.0610   14.9720  -14.4940 C.3    89  GLY89       0.2014
    129  C         17.8620   13.4830  -14.6080 C.2    89  GLY89       0.2639
    130  O         18.0580   12.7630  -13.6290 O.2    89  GLY89      -0.2714
    131  N         17.4630   13.0180  -15.7900 N.am   90  SER90      -0.1949
    132  CA        17.2600   11.5900  -16.0600 C.3    90  SER90       0.1924
    133  C         18.5780   11.0220  -16.6060 C.2    90  SER90       0.2314
    134  O         19.5190   11.7930  -16.8100 O.2    90  SER90      -0.2863
    135  CB        16.1060   11.3870  -17.0550 C.3    90  SER90       0.2116
    136  OG        16.4870   11.5030  -18.4200 O.3    90  SER90      -0.2180
    137  N         19.9430   12.6640  -20.0390 N.3    93  GLU93      -0.1245
    138  CA        20.7150   13.9020  -19.9570 C.3    93  GLU93       0.1567
    139  C         22.0390   13.6390  -19.2150 C.2    93  GLU93       0.2260
    140  O         23.0420   14.3110  -19.4870 O.2    93  GLU93      -0.2867
    141  CB        19.9420   15.0010  -19.1920 C.3    93  GLU93       0.0388
    142  CG        18.6250   15.4550  -19.8010 C.3    93  GLU93       0.1160
    143  CD        17.4090   14.5840  -19.5210 C.2    93  GLU93       0.3649
    144  OE1       17.0270   14.4440  -18.3350 O.co2  93  GLU93      -0.2457
    145  OE2       16.8070   14.0860  -20.5010 O.co2  93  GLU93      -0.2457
    146  N          5.8270    2.4160  -19.2060 N.3   130  ASP130     -0.1239
    147  CA         6.6400    3.4790  -19.8100 C.3   130  ASP130      0.1674
    148  C          8.0890    3.3830  -19.2600 C.2   130  ASP130      0.2266
    149  O          8.7000    4.3960  -18.9020 O.2   130  ASP130     -0.2867
    150  CB         5.9880    4.8500  -19.4790 C.3   130  ASP130      0.1410
    151  CG         6.4350    6.0770  -20.2670 C.2   130  ASP130      0.3668
    152  OD1        6.8860    5.9150  -21.4140 O.co2 130  ASP130     -0.2456
    153  OD2        6.2580    7.2050  -19.7600 O.co2 130  ASP130     -0.2456
    154  N         14.6080    7.7660  -20.0390 N.3   134  ARG134     -0.1231
    155  CA        14.1470    9.1530  -19.9400 C.3   134  ARG134      0.1694
    156  C         13.3260    9.3080  -18.6710 C.2   134  ARG134      0.2592
    157  O         13.1180   10.4350  -18.2130 O.2   134  ARG134     -0.2718
    158  CB        13.3210    9.5760  -21.1820 C.3   134  ARG134      0.0321
    159  CG        12.1070    8.6920  -21.4730 C.3   134  ARG134      0.0489
    160  CD        11.2350    9.2300  -22.5840 C.3   134  ARG134      0.2205
    161  NE         9.9770    8.4880  -22.6690 N.pl3 134  ARG134     -0.0865
    162  CZ         9.7940    7.3850  -23.3910 C.cat 134  ARG134      0.5346
    163  NH1       10.7860    6.8850  -24.1200 N.pl3 134  ARG134      0.1354
    164  NH2        8.6150    6.7810  -23.3980 N.pl3 134  ARG134      0.1354
    165  N         12.8370    8.1740  -18.1180 N.am  135  ASN135     -0.1974
    166  CA        12.0290    8.1880  -16.8850 C.3   135  ASN135      0.1688
    167  C         12.8370    7.7150  -15.6640 C.2   135  ASN135      0.2292
    168  O         12.2980    7.6970  -14.5550 O.2   135  ASN135     -0.2864
    169  CB        10.6910    7.4440  -17.0250 C.3   135  ASN135      0.1181
    170  CG         9.7140    8.0270  -18.0150 C.2   135  ASN135      0.2629
    171  OD1        9.5040    9.2380  -18.1470 O.2   135  ASN135     -0.2716
    172  ND2        9.0340    7.1610  -18.6840 N.am  135  ASN135     -0.0877
    173  N         15.6430    8.7060  -13.1780 N.3   137  LEU137     -0.1245
    174  CA        16.3180    9.9020  -12.6850 C.3   137  LEU137      0.1561
    175  C         17.5380    9.5440  -11.9000 C.2   137  LEU137      0.2260
    176  O         17.5160    8.5400  -11.2010 O.2   137  LEU137     -0.2867
    177  CB        15.3840   10.6820  -11.7490 C.3   137  LEU137      0.0270
    178  CG        14.0000   11.0500  -12.2280 C.3   137  LEU137      0.0019
    179  CD1       13.1880   11.5260  -11.0580 C.3   137  LEU137      0.0001
    180  CD2       14.0680   12.1370  -13.2760 C.3   137  LEU137      0.0001
    181  N         11.1270    7.9330  -12.1150 N.3   147  GLY147     -0.1210
    182  CA        10.6160    9.3000  -12.0260 C.3   147  GLY147      0.1956
    183  C          9.2960    9.6650  -12.6600 C.2   147  GLY147      0.2611
    184  O          8.9270   10.8320  -12.6210 O.2   147  GLY147     -0.2717
    185  N          8.5900    8.7100  -13.2620 N.am  148  ASP148     -0.1973
    186  CA         7.2780    8.9570  -13.8730 C.3   148  ASP148      0.1709
    187  C          6.4480    7.6780  -13.8270 C.2   148  ASP148      0.2293
    188  O          6.9980    6.5840  -13.9060 O.2   148  ASP148     -0.2864
    189  CB         7.3700    9.4830  -15.3170 C.3   148  ASP148      0.1436
    190  CG         6.0270    9.9700  -15.8520 C.2   148  ASP148      0.3671
    191  OD1        5.6070   11.0750  -15.4660 O.co2 148  ASP148     -0.2456
    192  OD2        5.3580    9.1980  -16.5860 O.co2 148  ASP148     -0.2456
@<TRIPOS>BOND
     1    36    35    2
     2    32    30   ar
     3   163   162    1
     4    35    34    1
     5   164   162    1
     6   162   161    2
     7    30    31   ar
     8    30    29    1
     9   161   160    1
    10    34    33    1
    11   160   159    1
    12    28    29    1
    13    28    25    1
    14    33    26   am
    15    27    26    2
    16    26    25    1
    17   159   158    1
    18   152   151   ar
    19    25    24    1
    20   158   155    1
    21    24    22   am
    22   145   143   ar
    23   151   153   ar
    24   151   150    1
    25    40    39    2
    26   154   155    1
    27   137   138    1
    28    37    38    1
    29   138   139    1
    30   138   141    1
    31   155   156    1
    32   147   150    1
    33   147   148    1
    34   147   146    1
    35   142   143    1
    36   142   141    1
    37    22    21    1
    38    22    23    2
    39   143   144   ar
    40   140   139    2
    41   148   149    2
    42    21    20    1
    43    39    38    1
    44    39    41   am
    45    45    42    1
    46    45    46    1
    47   172   170   am
    48   156   157    2
    49   156   165   am
    50   136   135    1
    51    47    46    1
    52    47    48    1
    53    20    14   am
    54    15    14    2
    55   171   170    2
    56   165   166    1
    57    42    41    1
    58    42    43    1
    59   170   169    1
    60    14    13    1
    61    49    48    1
    62   135   132    1
    63   169   166    1
    64    12    13    1
    65   166   167    1
    66   134   133    2
    67    13    16    1
    68    43    50   am
    69    43    44    2
    70   133   132    1
    71   192   190   ar
    72    50    51    1
    73    53    52    2
    74   132   131    1
    75   190   191   ar
    76   190   189    1
    77   131   129   am
    78   167   168    2
    79     3     2    1
    80     3     4    2
    81     5     2    1
    82     5     6    1
    83    70    69    1
    84    16    17    1
    85     2     1    1
    86   189   186    1
    87    51    52    1
    88    51    54    1
    89    69    68    1
    90    10     9    1
    91     7     6    1
    92     7     8    1
    93    54    56    1
    94    54    55    1
    95   129   128    1
    96   129   130    2
    97   124   123    2
    98   128   127    1
    99    19    17    1
   100    17    18    1
   101    68    67    1
   102     9     8    2
   103     9    11    1
   104   188   187    2
   105   186   187    1
   106   186   185    1
   107    67    66    1
   108   123   127   am
   109   123   122    1
   110   180   178    1
   111   185   183   am
   112   173   174    1
   113    64    63    1
   114    64    65    2
   115   174   175    1
   116   174   177    1
   117    63    66    1
   118    63    62    1
   119   183   184    2
   120   183   182    1
   121   122   125    1
   122   122   121    1
   123   117   116    2
   124   178   177    1
   125   178   179    1
   126   181   182    1
   127   175   176    2
   128   125   126    1
   129   116   121   am
   130   116   115    1
   131   103   105   ar
   132   103   101   ar
   133   109   108    2
   134    85    84    1
   135   105   104   ar
   136   115   114    1
   137   115   118    1
   138   101   100   ar
   139    61    58    1
   140   108   114   am
   141   108   107    1
   142    84    83    1
   143    58    59    1
   144    58    57    1
   145   104   102   ar
   146    59    60    2
   147   114   120    1
   148   118   119    1
   149   110   107    1
   150   110   111    1
   151   107   106    1
   152    76    75    1
   153   106    97   am
   154   100   102   ar
   155   100    99    1
   156    83    82    1
   157    75    77    1
   158    75    72    1
   159   111   112    1
   160   111   113    1
   161   119   120    1
   162    96    97    1
   163    96    99    1
   164    96    95    1
   165    97    98    2
   166    89    88    2
   167    71    72    1
   168    82    79    1
   169    72    73    1
   170    88    95   am
   171    88    87    1
   172    78    79    1
   173    79    80    1
   174    81    80    2
   175    74    73    2
   176    80    86   am
   177    86    87    1
   178    87    90    1
   179    91    90    2
   180    91    92    1
   181    94    92   ar
   182    92    93   ar
