@<TRIPOS>MOLECULE
tmp/6dbzA00.pdb
 126 117 0 0 0
SMALL
GASTEIGER

@<TRIPOS>ATOM
      1  N         11.2520   -3.1220   11.2530 N.3     6  ALA6       -0.1245
      2  CA        12.0410   -2.7140   10.1100 C.3     6  ALA6        0.1562
      3  C         12.4110   -1.2670   10.3510 C.2     6  ALA6        0.2260
      4  O         11.6590   -0.5320   10.9910 O.2     6  ALA6       -0.2867
      5  CB        11.2520   -2.8530    8.7960 C.3     6  ALA6        0.0290
      6  N         11.2320   -2.3240   -5.5370 N.3    22  ARG22      -0.1245
      7  CA        11.4620   -3.5900   -4.8560 C.3    22  ARG22       0.1563
      8  C         11.4290   -4.7690   -5.8290 C.2    22  ARG22       0.2260
      9  O         10.6760   -4.7730   -6.7990 O.2    22  ARG22      -0.2867
     10  CB        10.4010   -3.8110   -3.8030 C.3    22  ARG22       0.0307
     11  CG        10.4310   -2.7830   -2.7080 C.3    22  ARG22       0.0489
     12  CD         9.0920   -2.7320   -1.9470 C.3    22  ARG22       0.2205
     13  NE         8.8210   -3.9540   -1.2030 N.pl3  22  ARG22      -0.0865
     14  CZ         9.5560   -4.3870   -0.1780 C.cat  22  ARG22       0.5346
     15  NH1       10.6380   -3.7220    0.2340 N.pl3  22  ARG22       0.1354
     16  NH2        9.2120   -5.5080    0.4280 N.pl3  22  ARG22       0.1354
     17  N         10.5910   -8.4140   -4.7570 N.3    24  SER24      -0.1217
     18  CA        10.1140   -8.9180   -3.4740 C.3    24  SER24       0.1889
     19  C          8.8040   -9.6610   -3.6710 C.2    24  SER24       0.2288
     20  O          8.0480   -9.3900   -4.6090 O.2    24  SER24      -0.2866
     21  CB         9.9200   -7.7650   -2.4540 C.3    24  SER24       0.2089
     22  OG         9.5380   -8.2180   -1.1590 O.3    24  SER24      -0.2183
     23  N          6.6000   -9.0450   -1.5940 N.3    26  ILE26      -0.1245
     24  CA         5.7190   -8.0210   -1.0360 C.3    26  ILE26       0.1561
     25  C          6.0270   -6.6860   -1.7040 C.2    26  ILE26       0.2260
     26  O          7.1670   -6.2130   -1.6520 O.2    26  ILE26      -0.2867
     27  CB         5.9070   -7.9100    0.4840 C.3    26  ILE26       0.0252
     28  CG1        5.3140   -9.1390    1.1820 C.3    26  ILE26       0.0019
     29  CG2        5.3050   -6.6000    1.0350 C.3    26  ILE26       0.0019
     30  CD1        5.7520   -9.2620    2.6190 C.3    26  ILE26       0.0001
     31  N         11.8340    2.8680    0.0800 N.3    33  LEU33      -0.1245
     32  CA        13.0120    3.4440    0.6650 C.3    33  LEU33       0.1561
     33  C         14.0070    2.3610    0.9470 C.2    33  LEU33       0.2260
     34  O         13.6230    1.2180    1.1500 O.2    33  LEU33      -0.2867
     35  CB        12.6730    4.0830    1.9900 C.3    33  LEU33       0.0270
     36  CG        11.6270    5.1750    1.9980 C.3    33  LEU33       0.0019
     37  CD1       11.2350    5.4240    3.4360 C.3    33  LEU33       0.0001
     38  CD2       12.2060    6.3780    1.3920 C.3    33  LEU33       0.0001
     39  N         16.1950    0.2370    3.4940 N.3    35  GLY35      -0.1210
     40  CA        16.0090   -0.1270    4.8780 C.3    35  GLY35       0.1956
     41  C         15.9530   -1.6330    4.9750 C.2    35  GLY35       0.2612
     42  O         16.1850   -2.3340    4.0040 O.2    35  GLY35      -0.2717
     43  N         15.6490   -2.1060    6.1740 N.am   36  GLY36      -0.1942
     44  CA        15.5480   -3.5290    6.3860 C.3    36  GLY36       0.2014
     45  C         15.2780   -3.8440    7.8360 C.2    36  GLY36       0.2638
     46  O         14.9050   -2.9670    8.6180 O.2    36  GLY36      -0.2714
     47  N         15.5270   -5.0960    8.1970 N.am   37  HIS37      -0.1973
     48  CA        15.1700   -5.5850    9.5250 C.3    37  HIS37       0.1656
     49  C         16.1520   -5.0870   10.5700 C.2    37  HIS37       0.2291
     50  O         17.3670   -5.1020   10.3670 O.2    37  HIS37      -0.2864
     51  CB        15.1330   -7.1160    9.5660 C.3    37  HIS37       0.0771
     52  CG        14.0720   -7.7120    8.7000 C.ar   37  HIS37       0.0820
     53  ND1       14.3360   -8.2310    7.4500 N.ar   37  HIS37      -0.2267
     54  CD2       12.7400   -7.8600    8.8960 C.ar   37  HIS37       0.1154
     55  CE1       13.2110   -8.6670    6.9110 C.ar   37  HIS37       0.1986
     56  NE2       12.2290   -8.4550    7.7680 N.ar   37  HIS37      -0.2212
     57  N         21.9290   -0.8130    6.9270 N.3    51  GLU51      -0.1245
     58  CA        21.1030   -1.2210    5.7950 C.3    51  GLU51       0.1567
     59  C         21.3520   -0.3390    4.5850 C.2    51  GLU51       0.2260
     60  O         21.3410   -0.8150    3.4430 O.2    51  GLU51      -0.2867
     61  CB        19.6220   -1.1940    6.1590 C.3    51  GLU51       0.0388
     62  CG        19.1810   -2.3680    7.0190 C.3    51  GLU51       0.1160
     63  CD        19.2530   -3.6910    6.2640 C.2    51  GLU51       0.3649
     64  OE1       19.5760   -3.6580    5.0600 O.co2  51  GLU51      -0.2457
     65  OE2       18.9810   -4.7550    6.8620 O.co2  51  GLU51      -0.2457
     66  N         22.6820   -1.8700    0.9920 N.3    55  GLU55      -0.1245
     67  CA        21.8040   -1.8430   -0.1570 C.3    55  GLU55       0.1567
     68  C         22.2460   -0.8500   -1.2080 C.2    55  GLU55       0.2260
     69  O         21.9760   -1.0560   -2.3860 O.2    55  GLU55      -0.2867
     70  CB        20.3860   -1.4980    0.2750 C.3    55  GLU55       0.0388
     71  CG        19.8680   -2.5020    1.2390 C.3    55  GLU55       0.1160
     72  CD        18.4030   -2.3030    1.5840 C.2    55  GLU55       0.3649
     73  OE1       17.8640   -1.1790    1.3840 O.co2  55  GLU55      -0.2457
     74  OE2       17.7900   -3.3090    2.0110 O.co2  55  GLU55      -0.2457
     75  N          0.3890   -6.8330    6.2660 N.3    73  PHE73      -0.1241
     76  CA         0.2940   -7.2200    4.8570 C.3    73  PHE73       0.1605
     77  C         -0.6220   -8.4360    4.7860 C.2    73  PHE73       0.2264
     78  O         -0.1780   -9.5860    4.8950 O.2    73  PHE73      -0.2867
     79  CB         1.6660   -7.4900    4.2570 C.3    73  PHE73       0.0534
     80  CG         2.5620   -6.2850    4.2520 C.ar   73  PHE73      -0.0203
     81  CD1        2.4580   -5.3360    3.2490 C.ar   73  PHE73      -0.0042
     82  CD2        3.5040   -6.0940    5.2580 C.ar   73  PHE73      -0.0042
     83  CE1        3.2730   -4.2200    3.2480 C.ar   73  PHE73      -0.0003
     84  CE2        4.3250   -4.9880    5.2630 C.ar   73  PHE73      -0.0003
     85  CZ         4.2140   -4.0440    4.2540 C.ar   73  PHE73      -0.0000
     86  N          4.7760   -5.8280    9.8970 N.3    82  TYR82      -0.1241
     87  CA         5.9920   -5.0810   10.1570 C.3    82  TYR82       0.1605
     88  C          5.6790   -3.7520   10.8060 C.2    82  TYR82       0.2264
     89  O          4.7370   -3.0600   10.4320 O.2    82  TYR82      -0.2867
     90  CB         6.7930   -4.8520    8.8740 C.3    82  TYR82       0.0534
     91  CG         7.4590   -6.0970    8.4220 C.ar   82  TYR82      -0.0201
     92  CD1        8.7030   -6.4520    8.9230 C.ar   82  TYR82      -0.0009
     93  CD2        6.8310   -6.9500    7.5160 C.ar   82  TYR82      -0.0009
     94  CE1        9.3230   -7.6180    8.5150 C.ar   82  TYR82       0.0417
     95  CE2        7.4400   -8.1060    7.0920 C.ar   82  TYR82       0.0417
     96  CZ         8.6860   -8.4420    7.5970 C.ar   82  TYR82       0.1957
     97  OH         9.2950   -9.6020    7.1860 O.3    82  TYR82      -0.2866
     98  N         22.4280   -4.8490   -4.0730 N.3   102  GLU102     -0.1245
     99  CA        21.6340   -6.0680   -3.9010 C.3   102  GLU102      0.1567
    100  C         20.6180   -6.1550   -5.0220 C.2   102  GLU102      0.2260
    101  O         19.4210   -5.9370   -4.8040 O.2   102  GLU102     -0.2867
    102  CB        20.9290   -6.0820   -2.5490 C.3   102  GLU102      0.0388
    103  CG        21.8750   -6.0780   -1.3570 C.3   102  GLU102      0.1160
    104  CD        21.1180   -6.1960   -0.0670 C.2   102  GLU102      0.3649
    105  OE1       19.8710   -5.9940   -0.1140 O.co2 102  GLU102     -0.2457
    106  OE2       21.7550   -6.5010    0.9690 O.co2 102  GLU102     -0.2457
    107  N         17.1540   -7.8340   -4.6770 N.3   105  LYS105     -0.1245
    108  CA        16.0850   -7.2370   -3.8930 C.3   105  LYS105      0.1561
    109  C         15.6480   -5.8710   -4.4100 C.2   105  LYS105      0.2260
    110  O         14.6460   -5.3250   -3.9120 O.2   105  LYS105     -0.2867
    111  CB        16.5310   -7.1130   -2.4180 C.3   105  LYS105      0.0271
    112  CG        16.8490   -8.4600   -1.7490 C.3   105  LYS105      0.0035
    113  CD        17.5360   -8.2970   -0.3740 C.3   105  LYS105      0.0206
    114  CE        18.7430   -9.2470   -0.2200 C.3   105  LYS105      0.1093
    115  NZ        19.5160   -9.0660    1.0780 N.3   105  LYS105     -0.1314
    116  N          5.3720    1.9530   -2.8390 N.3   122  PHE122     -0.1241
    117  CA         5.0580    0.9010   -1.8780 C.3   122  PHE122      0.1605
    118  C          3.9320    1.3700   -0.9470 C.2   122  PHE122      0.2264
    119  O          3.9600    2.4920   -0.4450 O.2   122  PHE122     -0.2867
    120  CB         6.3390    0.5710   -1.1110 C.3   122  PHE122      0.0534
    121  CG         6.2600   -0.6400   -0.2410 C.ar  122  PHE122     -0.0203
    122  CD1        5.3600   -1.6730   -0.5040 C.ar  122  PHE122     -0.0042
    123  CD2        7.0940   -0.7410    0.8510 C.ar  122  PHE122     -0.0042
    124  CE1        5.3050   -2.7840    0.3120 C.ar  122  PHE122     -0.0003
    125  CE2        7.0460   -1.8470    1.6670 C.ar  122  PHE122     -0.0003
    126  CZ         6.1500   -2.8790    1.3850 C.ar  122  PHE122     -0.0000
@<TRIPOS>BOND
     1     9     8    2
     2     8     7    1
     3     6     7    1
     4   100   101    2
     5   100    99    1
     6     7    10    1
     7    17    18    1
     8   107   108    1
     9    20    19    2
    10   109   110    2
    11   109   108    1
    12    98    99    1
    13    99   102    1
    14   108   111    1
    15    10    11    1
    16    19    18    1
    17    18    21    1
    18   116   117    1
    19    11    12    1
    20   102   103    1
    21    21    22    1
    22   111   112    1
    23    69    68    2
    24    12    13    1
    25   117   120    1
    26   117   118    1
    27   112   113    1
    28    25    26    2
    29    25    24    1
    30    23    24    1
    31   103   104    1
    32    68    67    1
    33    13    14    2
    34   120   121    1
    35    24    27    1
    36   118   119    2
    37   122   121   ar
    38   122   124   ar
    39   113   114    1
    40   121   123   ar
    41   114   115    1
    42    14    15    1
    43    14    16    1
    44    67    70    1
    45    67    66    1
    46   105   104   ar
    47   104   106   ar
    48    31    32    1
    49    70    71    1
    50   124   126   ar
    51    27    29    1
    52    27    28    1
    53    32    33    1
    54    32    35    1
    55   123   125   ar
    56    33    34    2
    57    28    30    1
    58    71    72    1
    59    73    72   ar
    60   126   125   ar
    61    38    36    1
    62    72    74   ar
    63    35    36    1
    64    36    37    1
    65    83    81   ar
    66    83    85   ar
    67    81    80   ar
    68    60    59    2
    69    39    40    1
    70    42    41    2
    71    80    79    1
    72    80    82   ar
    73    85    84   ar
    74    79    76    1
    75    59    58    1
    76    77    76    1
    77    77    78    2
    78    76    75    1
    79    40    41    1
    80    41    43   am
    81    64    63   ar
    82    82    84   ar
    83    58    61    1
    84    58    57    1
    85    61    62    1
    86    43    44    1
    87    63    65   ar
    88    63    62    1
    89    44    45    1
    90    55    53   ar
    91    55    56   ar
    92    95    93   ar
    93    95    96   ar
    94    97    96    1
    95    53    52   ar
    96    93    91   ar
    97    96    94   ar
    98    56    54   ar
    99    45    47   am
   100    45    46    2
   101    47    48    1
   102    91    90    1
   103    91    92   ar
   104    94    92   ar
   105    52    54   ar
   106    52    51    1
   107     5     2    1
   108    90    87    1
   109    48    51    1
   110    48    49    1
   111    86    87    1
   112     2     3    1
   113     2     1    1
   114    87    88    1
   115     3     4    2
   116    50    49    2
   117    89    88    2
