@<TRIPOS>MOLECULE
tmp/6dc1A01.pdb
 82 76 0 0 0
SMALL
GASTEIGER

@<TRIPOS>ATOM
      1  N          9.8640   20.6470   15.8850 N.3   113  THR113     -0.1218
      2  CA        11.0890   20.0360   16.3830 C.3   113  THR113      0.1862
      3  C         11.0590   19.9220   17.9020 C.2   113  THR113      0.2287
      4  O         11.5560   18.9360   18.4620 O.2   113  THR113     -0.2866
      5  CB        12.3020   20.8480   15.9160 C.3   113  THR113      0.1770
      6  OG1       12.1770   21.1550   14.5120 O.3   113  THR113     -0.2211
      7  CG2       13.6150   20.0730   16.1670 C.3   113  THR113      0.0375
      8  N          8.7180   17.1360   18.7480 N.3   116  ALA116     -0.1231
      9  CA         9.3780   15.9270   18.2690 C.3   116  ALA116      0.1694
     10  C         10.4840   15.4900   19.2180 C.2   116  ALA116      0.2591
     11  O         10.5160   14.3360   19.6560 O.2   116  ALA116     -0.2718
     12  CB         9.9340   16.1430   16.8660 C.3   116  ALA116      0.0304
     13  N         11.3950   16.4040   19.5550 N.am  117  GLN117     -0.1979
     14  CA        12.5330   16.0440   20.3990 C.3   117  GLN117      0.1601
     15  C         12.0930   15.3810   21.7070 C.2   117  GLN117      0.2287
     16  O         12.7070   14.3990   22.1540 O.2   117  GLN117     -0.2864
     17  CB        13.3790   17.2850   20.6730 C.3   117  GLN117      0.0394
     18  CG        14.5520   17.4040   19.7230 C.3   117  GLN117      0.0908
     19  CD        15.5920   16.3350   19.9870 C.2   117  GLN117      0.2608
     20  OE1       16.3660   16.4310   20.9440 O.2   117  GLN117     -0.2717
     21  NE2       15.6000   15.2900   19.1550 N.am  117  GLN117     -0.0878
     22  N          9.1360   12.2420   20.4100 N.3   120  GLY120     -0.1210
     23  CA         9.3500   11.4640   19.2020 C.3   120  GLY120      0.1956
     24  C          8.5730   11.9780   17.9960 C.2   120  GLY120      0.2613
     25  O          7.4160   12.3820   18.1480 O.2   120  GLY120     -0.2717
     26  N          9.1940   11.9440   16.7990 N.am  121  SER121     -0.1938
     27  CA         8.5910   12.5290   15.5960 C.3   121  SER121      0.2055
     28  C          7.2050   11.9540   15.3180 C.2   121  SER121      0.2642
     29  O          6.2800   12.6890   14.9540 O.2   121  SER121     -0.2714
     30  CB         9.5080   12.3080   14.4000 C.3   121  SER121      0.2130
     31  OG        10.4830   13.3370   14.3040 O.3   121  SER121     -0.2179
     32  N          7.0380   10.6490   15.5260 N.am  122  GLN122     -0.1976
     33  CA         5.7760    9.9140   15.4460 C.3   122  GLN122      0.1601
     34  C          4.6170   10.5320   16.2060 C.2   122  GLN122      0.2287
     35  O          3.4810   10.0640   16.0830 O.2   122  GLN122     -0.2864
     36  CB         5.9720    8.5020   15.9970 C.3   122  GLN122      0.0394
     37  CG         6.4190    8.4950   17.4630 C.3   122  GLN122      0.0908
     38  CD         7.9190    8.3660   17.6060 C.2   122  GLN122      0.2608
     39  OE1        8.6690    9.0370   16.9000 O.2   122  GLN122     -0.2717
     40  NE2        8.3700    7.4950   18.5150 N.am  122  GLN122     -0.0878
     41  N          8.9410   18.2370    6.9520 N.3   160  GLU160     -0.1231
     42  CA         9.7340   17.0220    7.1060 C.3   160  GLU160      0.1699
     43  C         11.0230   17.3070    7.8640 C.2   160  GLU160      0.2592
     44  O         11.3650   16.6090    8.8210 O.2   160  GLU160     -0.2718
     45  CB        10.0570   16.4020    5.7390 C.3   160  GLU160      0.0402
     46  CG        10.8460   15.1140    5.8690 C.3   160  GLU160      0.1161
     47  CD        11.0290   14.3230    4.5830 C.2   160  GLU160      0.3649
     48  OE1       10.0460   14.0980    3.8450 O.co2 160  GLU160     -0.2457
     49  OE2       12.1700   13.8850    4.3270 O.co2 160  GLU160     -0.2457
     50  N         11.7470   18.3400    7.4380 N.am  161  LYS161     -0.1980
     51  CA        13.0840   18.6070    7.9480 C.3   161  LYS161      0.1596
     52  C         13.0540   18.9750    9.4270 C.2   161  LYS161      0.2287
     53  O         13.9960   18.6640   10.1720 O.2   161  LYS161     -0.2864
     54  CB        13.7170   19.7300    7.1200 C.3   161  LYS161      0.0298
     55  CG        15.1630   20.0720    7.4360 C.3   161  LYS161      0.0038
     56  CD        15.8240   20.7900    6.2630 C.3   161  LYS161      0.0206
     57  CE        15.7030   22.2980    6.3910 C.3   161  LYS161      0.1093
     58  NZ        16.8050   22.8700    7.2270 N.3   161  LYS161     -0.1314
     59  N         11.1850   17.7460   11.6350 N.3   163  GLY163     -0.1210
     60  CA        10.9610   16.5630   12.4290 C.3   163  GLY163      0.1956
     61  C          9.5420   16.0550   12.5140 C.2   163  GLY163      0.2611
     62  O          9.2790   15.1750   13.3350 O.2   163  GLY163     -0.2717
     63  N          8.6210   16.5440   11.6940 N.am  164  ALA164     -0.1979
     64  CA         7.2550   16.0410   11.7540 C.3   164  ALA164      0.1597
     65  C          7.1960   14.5510   11.4260 C.2   164  ALA164      0.2287
     66  O          8.0890   13.9890   10.7960 O.2   164  ALA164     -0.2864
     67  CB         6.3560   16.8060   10.7930 C.3   164  ALA164      0.0319
     68  N          9.1840   12.0540    1.8380 N.3   194  THR194     -0.1203
     69  CA         9.0280   10.6670    2.2340 C.3   194  THR194      0.1994
     70  C          8.0610   10.4810    3.3990 C.2   194  THR194      0.2617
     71  O          7.6950    9.3400    3.7050 O.2   194  THR194     -0.2717
     72  CB        10.3820   10.1110    2.6320 C.3   194  THR194      0.1784
     73  OG1       10.9570   10.9630    3.6430 O.3   194  THR194     -0.2211
     74  CG2       11.3130   10.0250    1.3990 C.3   194  THR194      0.0376
     75  N          7.6580   11.5620    4.0600 N.am  195  LEU195     -0.1979
     76  CA         6.7040   11.4930    5.1530 C.3   195  LEU195      0.1596
     77  C          5.3990   10.8290    4.7230 C.2   195  LEU195      0.2287
     78  O          4.9890   10.9400    3.5620 O.2   195  LEU195     -0.2864
     79  CB         6.3980   12.8980    5.6530 C.3   195  LEU195      0.0297
     80  CG         7.3870   13.6020    6.5710 C.3   195  LEU195      0.0022
     81  CD1        6.7350   14.8800    7.0560 C.3   195  LEU195      0.0001
     82  CD2        7.7680   12.6980    7.7280 C.3   195  LEU195      0.0001
@<TRIPOS>BOND
     1    74    72    1
     2    68    69    1
     3    69    72    1
     4    69    70    1
     5    72    73    1
     6    70    71    2
     7    70    75   am
     8    78    77    2
     9    48    47   ar
    10    75    76    1
    11    49    47   ar
    12    47    46    1
    13    77    76    1
    14    76    79    1
    15    79    80    1
    16    45    46    1
    17    45    42    1
    18    56    57    1
    19    56    55    1
    20    57    58    1
    21    80    81    1
    22    80    82    1
    23    41    42    1
    24    42    43    1
    25    54    55    1
    26    54    51    1
    27    50    43   am
    28    50    51    1
    29    43    44    2
    30    51    52    1
    31    52    53    2
    32    67    64    1
    33    66    65    2
    34    65    64    1
    35    59    60    1
    36    63    64    1
    37    63    61   am
    38    60    61    1
    39    61    62    2
    40    31    30    1
    41    30    27    1
    42     6     5    1
    43    29    28    2
    44    28    32   am
    45    28    27    1
    46    33    32    1
    47    33    36    1
    48    33    34    1
    49    27    26    1
    50     1     2    1
    51     5     7    1
    52     5     2    1
    53    36    37    1
    54    35    34    2
    55     2     3    1
    56    26    24   am
    57    12     9    1
    58    39    38    2
    59    37    38    1
    60    38    40   am
    61     3     4    2
    62    24    25    2
    63    24    23    1
    64     9     8    1
    65     9    10    1
    66    21    19   am
    67    23    22    1
    68    10    13   am
    69    10    11    2
    70    13    14    1
    71    18    19    1
    72    18    17    1
    73    19    20    2
    74    14    17    1
    75    14    15    1
    76    15    16    2
