@<TRIPOS>MOLECULE
tmp/6dc1A00.pdb
 114 106 0 0 0
SMALL
GASTEIGER

@<TRIPOS>ATOM
      1  N        -12.5240   11.0920   11.5130 N.3     8  ALA8       -0.1245
      2  CA       -12.3050   12.3700   12.1750 C.3     8  ALA8        0.1562
      3  C        -13.5950   12.8000   12.8480 C.2     8  ALA8        0.2260
      4  O        -14.6680   12.7390   12.2300 O.2     8  ALA8       -0.2867
      5  CB       -11.8470   13.4450   11.1810 C.3     8  ALA8        0.0290
      6  N        -15.3790   15.8890   14.9290 N.3    10  ILE10      -0.1245
      7  CA       -15.3750   17.3140   15.2510 C.3    10  ILE10       0.1561
      8  C        -16.1410   17.5200   16.5590 C.2    10  ILE10       0.2260
      9  O        -17.3040   17.1040   16.6830 O.2    10  ILE10      -0.2867
     10  CB       -15.9940   18.1420   14.1070 C.3    10  ILE10       0.0252
     11  CG1      -15.1030   18.1340   12.8610 C.3    10  ILE10       0.0019
     12  CG2      -16.1930   19.5870   14.5310 C.3    10  ILE10       0.0019
     13  CD1      -15.5240   17.1180   11.7990 C.3    10  ILE10       0.0001
     14  N         -9.1930   10.7760   14.6680 N.3    47  SER47      -0.1217
     15  CA        -8.8840   12.1700   14.9200 C.3    47  SER47       0.1889
     16  C         -9.9850   12.7590   15.7840 C.2    47  SER47       0.2288
     17  O        -11.1820   12.5670   15.5040 O.2    47  SER47      -0.2866
     18  CB        -8.7600   12.9590   13.6170 C.3    47  SER47       0.2089
     19  OG        -7.4310   12.9090   13.1800 O.3    47  SER47      -0.2183
     20  N        -11.0250   16.3740   16.8400 N.3    49  TRP49      -0.1241
     21  CA       -10.7050   17.7270   16.4110 C.3    49  TRP49       0.1605
     22  C        -11.7350   18.6460   17.0360 C.2    49  TRP49       0.2264
     23  O        -12.9400   18.4750   16.8220 O.2    49  TRP49      -0.2867
     24  CB       -10.6850   17.8310   14.8830 C.3    49  TRP49       0.0550
     25  CG        -9.6950   18.8090   14.3270 C.ar   49  TRP49       0.0003
     26  CD1       -8.4200   18.5550   13.9120 C.ar   49  TRP49       0.0946
     27  CD2       -9.9280   20.1890   14.0790 C.ar   49  TRP49       0.0152
     28  NE1       -7.8380   19.7070   13.4300 N.ar   49  TRP49      -0.2442
     29  CE2       -8.7500   20.7240   13.5180 C.ar   49  TRP49       0.0810
     30  CE3      -11.0200   21.0300   14.2830 C.ar   49  TRP49       0.0012
     31  CZ2       -8.6330   22.0620   13.1710 C.ar   49  TRP49       0.0191
     32  CZ3      -10.9060   22.3610   13.9190 C.ar   49  TRP49       0.0001
     33  CH2       -9.7230   22.8620   13.3710 C.ar   49  TRP49       0.0015
     34  N        -13.4980   22.1560   18.0340 N.3    51  ILE51      -0.1245
     35  CA       -13.7730   23.5220   17.5880 C.3    51  ILE51       0.1561
     36  C        -14.2390   24.4020   18.7540 C.2    51  ILE51       0.2260
     37  O        -14.8010   25.4740   18.5210 O.2    51  ILE51      -0.2867
     38  CB       -14.7750   23.5600   16.4160 C.3    51  ILE51       0.0252
     39  CG1      -16.0530   22.8240   16.7850 C.3    51  ILE51       0.0019
     40  CG2      -14.1900   22.9190   15.1560 C.3    51  ILE51       0.0019
     41  CD1      -17.2930   23.2950   16.0410 C.3    51  ILE51       0.0001
     42  N         -1.9100   17.3910   16.5900 N.3   100  GLU100     -0.1245
     43  CA        -1.8960   18.1080   15.3320 C.3   100  GLU100      0.1567
     44  C         -1.6990   19.5980   15.5590 C.2   100  GLU100      0.2260
     45  O         -2.3400   20.2050   16.4270 O.2   100  GLU100     -0.2867
     46  CB        -3.1940   17.8760   14.5710 C.3   100  GLU100      0.0388
     47  CG        -3.1460   18.3580   13.0940 C.3   100  GLU100      0.1160
     48  CD        -4.5400   18.5400   12.5360 C.2   100  GLU100      0.3649
     49  OE1       -5.1530   17.5330   12.0890 O.co2 100  GLU100     -0.2457
     50  OE2       -5.0470   19.6840   12.6300 O.co2 100  GLU100     -0.2457
     51  N         -0.9770   23.4040   13.1990 N.3   102  ASN102     -0.1240
     52  CA        -1.0680   23.9840   11.8680 C.3   102  ASN102      0.1653
     53  C         -0.5670   25.4190   11.9080 C.2   102  ASN102      0.2266
     54  O          0.6250   25.6700   11.7030 O.2   102  ASN102     -0.2867
     55  CB        -2.5040   23.9160   11.3370 C.3   102  ASN102      0.1155
     56  CG        -2.6110   24.3890    9.9000 C.2   102  ASN102      0.2627
     57  OD1       -1.6230   24.8190    9.3170 O.2   102  ASN102     -0.2716
     58  ND2       -3.8000   24.3120    9.3230 N.am  102  ASN102     -0.0877
     59  N         -0.8120   19.5030    9.9050 N.3   127  TYR127     -0.1241
     60  CA        -1.8800   19.7050    8.9400 C.3   127  TYR127      0.1605
     61  C         -1.5270   20.8690    8.0140 C.2   127  TYR127      0.2264
     62  O         -1.3160   21.9920    8.4770 O.2   127  TYR127     -0.2867
     63  CB        -3.1750   19.9920    9.6850 C.3   127  TYR127      0.0534
     64  CG        -4.4260   19.9490    8.8560 C.ar  127  TYR127     -0.0201
     65  CD1       -4.7240   20.9670    7.9480 C.ar  127  TYR127     -0.0009
     66  CD2       -5.3150   18.9010    8.9830 C.ar  127  TYR127     -0.0009
     67  CE1       -5.8790   20.9340    7.2000 C.ar  127  TYR127      0.0417
     68  CE2       -6.4800   18.8650    8.2490 C.ar  127  TYR127      0.0417
     69  CZ        -6.7550   19.8780    7.3490 C.ar  127  TYR127      0.1957
     70  OH        -7.9090   19.8220    6.5970 O.3   127  TYR127     -0.2866
     71  N         -7.6990   28.5780    9.7820 N.3   143  SER143     -0.1217
     72  CA        -8.8630   27.9120    9.2040 C.3   143  SER143      0.1889
     73  C         -8.9480   28.1560    7.6970 C.2   143  SER143      0.2288
     74  O        -10.0380   28.2390    7.1150 O.2   143  SER143     -0.2866
     75  CB       -10.1390   28.3470    9.9290 C.3   143  SER143      0.2089
     76  OG       -10.0340   28.0610   11.3290 O.3   143  SER143     -0.2183
     77  N         -7.0780   14.6450    2.8850 N.3   200  HIS200     -0.1226
     78  CA        -8.2350   15.1760    3.5920 C.3   200  HIS200      0.1752
     79  C         -8.9380   16.2450    2.7680 C.2   200  HIS200      0.2595
     80  O         -8.2690   17.1310    2.2200 O.2   200  HIS200     -0.2718
     81  CB        -7.8140   15.7690    4.9490 C.3   200  HIS200      0.0759
     82  CG        -8.9630   16.2130    5.7860 C.ar  200  HIS200      0.0818
     83  ND1       -9.1280   17.5190    6.1850 N.ar  200  HIS200     -0.2268
     84  CD2      -10.0110   15.5230    6.2940 C.ar  200  HIS200      0.1154
     85  CE1      -10.2370   17.6180    6.8950 C.ar  200  HIS200      0.1986
     86  NE2      -10.7920   16.4190    6.9770 N.ar  200  HIS200     -0.2212
     87  N        -10.2890   16.1860    2.7740 N.am  201  ARG201     -0.1980
     88  CA       -11.2750   17.0690    2.1190 C.3   201  ARG201      0.1597
     89  C        -11.5790   16.6660    0.6690 C.2   201  ARG201      0.2287
     90  O        -10.6860   16.5550   -0.1830 O.2   201  ARG201     -0.2864
     91  CB       -10.8670   18.5470    2.1690 C.3   201  ARG201      0.0334
     92  CG       -10.6210   19.0680    3.5820 C.3   201  ARG201      0.0492
     93  CD       -11.9220   19.2140    4.3830 C.3   201  ARG201      0.2205
     94  NE       -11.6930   20.1160    5.5060 N.pl3 201  ARG201     -0.0865
     95  CZ       -12.3380   20.0800    6.6660 C.cat 201  ARG201      0.5346
     96  NH1      -13.2940   19.1790    6.9040 N.pl3 201  ARG201      0.1354
     97  NH2      -12.0140   20.9600    7.6000 N.pl3 201  ARG201      0.1354
     98  N         -8.4530   10.5420    5.3220 N.3   221  LYS221     -0.1245
     99  CA        -9.3750   10.8630    6.3950 C.3   221  LYS221      0.1561
    100  C        -10.6590   11.4630    5.8360 C.2   221  LYS221      0.2260
    101  O        -10.6320   12.2220    4.8690 O.2   221  LYS221     -0.2867
    102  CB        -8.7260   11.8270    7.4040 C.3   221  LYS221      0.0271
    103  CG        -9.5690   12.0610    8.6490 C.3   221  LYS221      0.0035
    104  CD        -8.7150   12.3400    9.8750 C.3   221  LYS221      0.0206
    105  CE        -7.9720   13.6370    9.7440 C.3   221  LYS221      0.1093
    106  NZ        -6.6400   13.4750   10.3360 N.3   221  LYS221     -0.1314
    107  N        -14.9890   12.4360    7.5060 N.3   223  ASP223     -0.1239
    108  CA       -15.7190   12.6090    8.7450 C.3   223  ASP223      0.1674
    109  C        -17.2140   12.4470    8.5290 C.2   223  ASP223      0.2266
    110  O        -17.7400   11.3400    8.6700 O.2   223  ASP223     -0.2867
    111  CB       -15.3900   13.9700    9.3560 C.3   223  ASP223      0.1410
    112  CG       -15.3810   15.0930    8.3540 C.2   223  ASP223      0.3668
    113  OD1      -16.4120   15.2740    7.6760 O.co2 223  ASP223     -0.2456
    114  OD2      -14.3590   15.8230    8.2840 O.co2 223  ASP223     -0.2456
@<TRIPOS>BOND
     1    90    89    2
     2    89    88    1
     3    88    91    1
     4    88    87    1
     5    91    92    1
     6    80    79    2
     7    79    87   am
     8    79    78    1
     9    77    78    1
    10    92    93    1
    11    78    81    1
    12    93    94    1
    13   101   100    2
    14    81    82    1
    15    98    99    1
    16    94    95    2
    17    82    83   ar
    18    82    84   ar
    19   100    99    1
    20    83    85   ar
    21    84    86   ar
    22    99   102    1
    23    70    69    1
    24    95    96    1
    25    95    97    1
    26    85    86   ar
    27    74    73    2
    28    67    69   ar
    29    67    65   ar
    30    69    68   ar
    31   102   103    1
    32   107   108    1
    33   113   112   ar
    34    73    72    1
    35    65    64   ar
    36    61    62    2
    37    61    60    1
    38    68    66   ar
    39   114   112   ar
    40   112   111    1
    41   109   110    2
    42   109   108    1
    43   103   104    1
    44   108   111    1
    45    64    66   ar
    46    64    63    1
    47    60    63    1
    48    60    59    1
    49    72    71    1
    50    72    75    1
    51    57    56    2
    52    58    56   am
    53   105   104    1
    54   105   106    1
    55    56    55    1
    56    75    76    1
    57     5     2    1
    58    55    52    1
    59     1     2    1
    60    54    53    2
    61    13    11    1
    62    52    53    1
    63    52    51    1
    64    49    48   ar
    65     2     3    1
    66     4     3    2
    67    48    50   ar
    68    48    47    1
    69    11    10    1
    70    47    46    1
    71    31    33   ar
    72    31    29   ar
    73    19    18    1
    74    33    32   ar
    75    28    29   ar
    76    28    26   ar
    77    29    27   ar
    78    18    15    1
    79    26    25   ar
    80    32    30   ar
    81    27    30   ar
    82    27    25   ar
    83    10    12    1
    84    10     7    1
    85    25    24    1
    86    46    43    1
    87    14    15    1
    88    24    21    1
    89    15    16    1
    90     6     7    1
    91    40    38    1
    92     7     8    1
    93    43    44    1
    94    43    42    1
    95    17    16    2
    96    44    45    2
    97    41    39    1
    98    21    20    1
    99    21    22    1
   100    38    39    1
   101    38    35    1
   102     8     9    2
   103    23    22    2
   104    35    34    1
   105    35    36    1
   106    37    36    2
