@<TRIPOS>MOLECULE
tmp/6dc6C00.pdb
 121 111 0 0 0
SMALL
GASTEIGER

@<TRIPOS>ATOM
      1  N        486.9750  -56.8860  458.4870 N.3     9  ARG9       -0.1245
      2  CA       488.3880  -57.2020  458.3220 C.3     9  ARG9        0.1563
      3  C        488.8240  -58.3780  459.1860 C.2     9  ARG9        0.2260
      4  O        489.8680  -58.9770  458.9110 O.2     9  ARG9       -0.2867
      5  CB       489.2390  -55.9750  458.6510 C.3     9  ARG9        0.0307
      6  CG       488.8050  -54.7110  457.9270 C.3     9  ARG9        0.0489
      7  CD       488.9190  -54.8780  456.4230 C.3     9  ARG9        0.2205
      8  NE       487.6620  -54.6080  455.7310 N.pl3   9  ARG9       -0.0865
      9  CZ       487.3530  -53.4460  455.1640 C.cat   9  ARG9        0.5346
     10  NH1      488.2130  -52.4400  455.2040 N.pl3   9  ARG9        0.1354
     11  NH2      486.1860  -53.2930  454.5540 N.pl3   9  ARG9        0.1354
     12  N        496.1910  -45.6030  460.3900 N.3   429  GLY429     -0.1210
     13  CA       495.3890  -46.8050  460.2990 C.3   429  GLY429      0.1956
     14  C        495.5550  -47.7080  461.5010 C.2   429  GLY429      0.2611
     15  O        495.6630  -47.2290  462.6330 O.2   429  GLY429     -0.2717
     16  N        495.5800  -49.0220  461.2660 N.am  430  ALA430     -0.1979
     17  CA       495.7630  -49.9660  462.3620 C.3   430  ALA430      0.1597
     18  C        497.1310  -49.7940  463.0080 C.2   430  ALA430      0.2287
     19  O        497.2390  -49.6510  464.2300 O.2   430  ALA430     -0.2864
     20  CB       495.5770  -51.3960  461.8590 C.3   430  ALA430      0.0319
     21  N        492.4340  -40.2830  454.8250 N.3   458  ASP458     -0.1239
     22  CA       491.2510  -41.1250  454.9220 C.3   458  ASP458      0.1674
     23  C        490.3940  -40.7190  456.1180 C.2   458  ASP458      0.2266
     24  O        490.8900  -40.1910  457.1180 O.2   458  ASP458     -0.2867
     25  CB       491.6660  -42.5980  455.0330 C.3   458  ASP458      0.1410
     26  CG       490.5130  -43.5600  454.7940 C.2   458  ASP458      0.3668
     27  OD1      489.5220  -43.1550  454.1530 O.co2 458  ASP458     -0.2456
     28  OD2      490.6140  -44.7340  455.2160 O.co2 458  ASP458     -0.2456
     29  N        485.9810  -45.0920  458.9080 N.3   461  GLU461     -0.1245
     30  CA       484.8900  -45.9420  458.4640 C.3   461  GLU461      0.1567
     31  C        484.5140  -46.9050  459.5860 C.2   461  GLU461      0.2260
     32  O        485.2730  -47.1080  460.5370 O.2   461  GLU461     -0.2867
     33  CB       485.2890  -46.7130  457.2000 C.3   461  GLU461      0.0388
     34  CG       485.8560  -45.8340  456.0770 C.3   461  GLU461      0.1160
     35  CD       486.4760  -46.6340  454.9350 C.2   461  GLU461      0.3649
     36  OE1      486.2490  -47.8610  454.8650 O.co2 461  GLU461     -0.2457
     37  OE2      487.1990  -46.0350  454.1110 O.co2 461  GLU461     -0.2457
     38  N        484.2860  -50.1290  459.5740 N.3   463  SER463     -0.1202
     39  CA       485.1270  -51.3190  459.6360 C.3   463  SER463      0.2020
     40  C        486.4530  -51.0620  460.3400 C.2   463  SER463      0.2618
     41  O        487.0970  -52.0170  460.7860 O.2   463  SER463     -0.2717
     42  CB       485.3870  -51.8510  458.2260 C.3   463  SER463      0.2103
     43  OG       486.0570  -50.8860  457.4320 O.3   463  SER463     -0.2182
     44  N        486.8740  -49.8020  460.4500 N.am  464  ASN464     -0.1974
     45  CA       488.1460  -49.4910  461.0890 C.3   464  ASN464      0.1688
     46  C        488.0900  -49.6570  462.5970 C.2   464  ASN464      0.2292
     47  O        489.1380  -49.8170  463.2300 O.2   464  ASN464     -0.2864
     48  CB       488.5680  -48.0590  460.7620 C.3   464  ASN464      0.1181
     49  CG       488.8520  -47.8570  459.2990 C.2   464  ASN464      0.2629
     50  OD1      488.1810  -47.0760  458.6280 O.2   464  ASN464     -0.2716
     51  ND2      489.8580  -48.5570  458.7920 N.am  464  ASN464     -0.0877
     52  N        489.9880  -52.6200  464.6880 N.3   467  ARG467     -0.1231
     53  CA       491.4200  -52.7200  464.9390 C.3   467  ARG467      0.1694
     54  C        492.0040  -51.3930  465.4030 C.2   467  ARG467      0.2591
     55  O        493.0070  -51.3660  466.1240 O.2   467  ARG467     -0.2718
     56  CB       492.1460  -53.1760  463.6690 C.3   467  ARG467      0.0321
     57  CG       491.2170  -53.5120  462.5060 C.3   467  ARG467      0.0489
     58  CD       491.9450  -54.2610  461.4060 C.3   467  ARG467      0.2205
     59  NE       492.7890  -53.3680  460.6150 N.pl3 467  ARG467     -0.0865
     60  CZ       492.3330  -52.5150  459.7010 C.cat 467  ARG467      0.5346
     61  NH1      491.0330  -52.4290  459.4500 N.pl3 467  ARG467      0.1354
     62  NH2      493.1810  -51.7420  459.0370 N.pl3 467  ARG467      0.1354
     63  N        491.3850  -50.2900  464.9960 N.am  468  GLN468     -0.1979
     64  CA       491.8730  -48.9460  465.3010 C.3   468  GLN468      0.1601
     65  C        491.1260  -48.4390  466.5320 C.2   468  GLN468      0.2287
     66  O        490.0910  -47.7800  466.4300 O.2   468  GLN468     -0.2864
     67  CB       491.7040  -48.0410  464.0840 C.3   468  GLN468      0.0394
     68  CG       492.3510  -48.6280  462.8240 C.3   468  GLN468      0.0908
     69  CD       492.0170  -47.8740  461.5440 C.2   468  GLN468      0.2608
     70  OE1      491.3690  -46.8330  461.5690 O.2   468  GLN468     -0.2717
     71  NE2      492.4660  -48.4050  460.4150 N.am  468  GLN468     -0.0878
     72  N        490.9300  -39.2460  460.3560 N.3   480  LYS480     -0.1245
     73  CA       491.6340  -40.1400  461.2680 C.3   480  LYS480      0.1561
     74  C        492.7410  -39.4090  462.0120 C.2   480  LYS480      0.2260
     75  O        492.9360  -39.6260  463.2120 O.2   480  LYS480     -0.2867
     76  CB       492.2030  -41.3400  460.5100 C.3   480  LYS480      0.0271
     77  CG       491.1500  -42.2720  459.9320 C.3   480  LYS480      0.0035
     78  CD       491.7730  -43.5050  459.2990 C.3   480  LYS480      0.0206
     79  CE       490.7110  -44.3890  458.6720 C.3   480  LYS480      0.1093
     80  NZ       491.3240  -45.5160  457.9290 N.3   480  LYS480     -0.1314
     81  N        499.1930  -48.8440  453.8620 N.3   528  ASP528     -0.1239
     82  CA       498.4780  -50.0390  453.4360 C.3   528  ASP528      0.1674
     83  C        498.7260  -50.3830  451.9740 C.2   528  ASP528      0.2266
     84  O        497.9910  -51.1970  451.4080 O.2   528  ASP528     -0.2867
     85  CB       496.9730  -49.8900  453.6880 C.3   528  ASP528      0.1410
     86  CG       496.3890  -48.6330  453.0680 C.2   528  ASP528      0.3668
     87  OD1      497.0390  -48.0240  452.1930 O.co2 528  ASP528     -0.2456
     88  OD2      495.2600  -48.2600  453.4510 O.co2 528  ASP528     -0.2456
     89  N        483.0540  -50.4750  448.2130 N.3   790  LYS790     -0.1231
     90  CA       482.8510  -51.8510  448.6510 C.3   790  LYS790      0.1693
     91  C        482.0750  -51.9430  449.9600 C.2   790  LYS790      0.2592
     92  O        481.2420  -52.8420  450.1170 O.2   790  LYS790     -0.2718
     93  CB       484.2080  -52.5470  448.8040 C.3   790  LYS790      0.0285
     94  CG       485.2050  -51.7410  449.6290 C.3   790  LYS790      0.0035
     95  CD       486.6110  -52.3160  449.5900 C.3   790  LYS790      0.0206
     96  CE       487.5790  -51.4270  450.3660 C.3   790  LYS790      0.1093
     97  NZ       488.9820  -51.9210  450.2970 N.3   790  LYS790     -0.1314
     98  N        482.3140  -51.0150  450.8940 N.am  791  ASP791     -0.1974
     99  CA       481.7700  -51.0810  452.2470 C.3   791  ASP791      0.1709
    100  C        480.4250  -50.3770  452.3910 C.2   791  ASP791      0.2293
    101  O        480.1210  -49.8560  453.4710 O.2   791  ASP791     -0.2864
    102  CB       482.7690  -50.4900  453.2460 C.3   791  ASP791      0.1436
    103  CG       484.1020  -51.2120  453.2460 C.2   791  ASP791      0.3671
    104  OD1      484.1080  -52.4570  453.1610 O.co2 791  ASP791     -0.2456
    105  OD2      485.1460  -50.5320  453.3450 O.co2 791  ASP791     -0.2456
    106  N        489.9760  -56.3760  449.6040 N.3   829  ILE829     -0.1231
    107  CA       490.1920  -56.1360  451.0250 C.3   829  ILE829      0.1692
    108  C        491.3200  -57.0270  451.5230 C.2   829  ILE829      0.2591
    109  O        491.3110  -58.2440  451.3080 O.2   829  ILE829     -0.2718
    110  CB       488.8990  -56.3820  451.8150 C.3   829  ILE829      0.0266
    111  CG1      487.8890  -55.2670  451.5450 C.3   829  ILE829      0.0019
    112  CG2      489.1920  -56.5220  453.2940 C.3   829  ILE829      0.0020
    113  CD1      486.5730  -55.7530  451.0130 C.3   829  ILE829      0.0001
    114  N        492.2960  -56.4270  452.1920 N.am  830  ILE830     -0.1980
    115  CA       493.4120  -57.1620  452.7770 C.3   830  ILE830      0.1595
    116  C        493.0560  -57.4800  454.2260 C.2   830  ILE830      0.2287
    117  O        492.7860  -56.5490  455.0010 O.2   830  ILE830     -0.2864
    118  CB       494.7210  -56.3680  452.6820 C.3   830  ILE830      0.0276
    119  CG1      495.7910  -56.9660  453.5880 C.3   830  ILE830      0.0022
    120  CG2      494.5040  -54.8980  452.9940 C.3   830  ILE830      0.0022
    121  CD1      497.1920  -56.7100  453.0750 C.3   830  ILE830      0.0001
@<TRIPOS>BOND
     1    89    90    1
     2    90    93    1
     3    90    91    1
     4    93    94    1
     5    95    94    1
     6    95    96    1
     7   106   107    1
     8    91    92    2
     9    91    98   am
    10    97    96    1
    11    98    99    1
    12   113   111    1
    13   107   108    1
    14   107   110    1
    15   109   108    2
    16    84    83    2
    17   108   114   am
    18   111   110    1
    19   110   112    1
    20    83    82    1
    21   114   115    1
    22    87    86   ar
    23    99   100    1
    24    99   102    1
    25   100   101    2
    26   118   115    1
    27   118   120    1
    28   118   119    1
    29   115   116    1
    30    86    88   ar
    31    86    85    1
    32   121   119    1
    33   104   103   ar
    34   102   103    1
    35   103   105   ar
    36    82    85    1
    37    82    81    1
    38    37    35   ar
    39    27    26   ar
    40   116   117    2
    41    11     9    1
    42    26    25    1
    43    26    28   ar
    44    21    22    1
    45    36    35   ar
    46    22    25    1
    47    22    23    1
    48    35    34    1
    49     9    10    1
    50     9     8    2
    51     8     7    1
    52    34    33    1
    53    23    24    2
    54     7     6    1
    55    33    30    1
    56    43    42    1
    57     6     5    1
    58    80    79    1
    59    42    39    1
    60     2     1    1
    61     2     5    1
    62     2     3    1
    63    30    29    1
    64    30    31    1
    65    50    49    2
    66    79    78    1
    67    51    49   am
    68     4     3    2
    69    62    60    1
    70    78    77    1
    71    49    48    1
    72    61    60    1
    73    38    39    1
    74    31    32    2
    75    39    40    1
    76    60    59    2
    77    77    76    1
    78    13    12    1
    79    13    14    1
    80    40    44   am
    81    40    41    2
    82    72    73    1
    83    71    69   am
    84    44    45    1
    85    76    73    1
    86    59    58    1
    87    48    45    1
    88    45    46    1
    89    16    14   am
    90    16    17    1
    91    73    74    1
    92    58    57    1
    93    14    15    2
    94    69    70    2
    95    69    68    1
    96    20    17    1
    97    74    75    2
    98    17    18    1
    99    57    56    1
   100    46    47    2
   101    68    67    1
   102    18    19    2
   103    56    53    1
   104    67    64    1
   105    52    53    1
   106    53    54    1
   107    63    64    1
   108    63    54   am
   109    64    65    1
   110    54    55    2
   111    66    65    2
