@<TRIPOS>MOLECULE
tmp/6dcbB00.pdb
 244 241 0 0 0
SMALL
GASTEIGER

@<TRIPOS>ATOM
      1  N         50.4550   43.8420   42.9480 N.3     5  TYR5       -0.1227
      2  CA        49.5530   44.3730   41.9280 C.3     5  TYR5        0.1736
      3  C         48.4380   45.2180   42.5290 C.2     5  TYR5        0.2596
      4  O         47.4880   45.5810   41.8240 O.2     5  TYR5       -0.2718
      5  CB        48.9370   43.2270   41.1040 C.3     5  TYR5        0.0548
      6  CG        49.9570   42.3230   40.4740 C.ar    5  TYR5       -0.0200
      7  CD1       50.7380   42.7630   39.4110 C.ar    5  TYR5       -0.0009
      8  CD2       50.1440   41.0240   40.9340 C.ar    5  TYR5       -0.0009
      9  CE1       51.6750   41.9390   38.8260 C.ar    5  TYR5        0.0417
     10  CE2       51.0920   40.1870   40.3590 C.ar    5  TYR5        0.0417
     11  CZ        51.8490   40.6570   39.3020 C.ar    5  TYR5        0.1957
     12  OH        52.7870   39.8500   38.7120 O.3     5  TYR5       -0.2866
     13  N         48.5180   45.5350   43.8150 N.am    6  GLY6       -0.1942
     14  CA        47.3460   46.0850   44.4660 C.3     6  GLY6        0.2014
     15  C         46.2440   45.0770   44.6470 C.2     6  GLY6        0.2639
     16  O         45.1000   45.4630   44.9350 O.2     6  GLY6       -0.2714
     17  N         46.5590   43.7890   44.4870 N.am    7  ASN7       -0.1958
     18  CA        45.5640   42.7320   44.5910 C.3     7  ASN7        0.1819
     19  C         45.2410   42.4100   46.0500 C.2     7  ASN7        0.2621
     20  O         45.2880   41.2460   46.4620 O.2     7  ASN7       -0.2715
     21  CB        46.0410   41.4730   43.8420 C.3     7  ASN7        0.1195
     22  CG        47.4980   41.0840   44.1550 C.2     7  ASN7        0.2630
     23  OD1       48.3720   41.9270   44.3460 O.2     7  ASN7       -0.2716
     24  ND2       47.7600   39.7930   44.1430 N.am    7  ASN7       -0.0877
     25  N         44.9250   43.4320   46.8430 N.am    8  TYR8       -0.1974
     26  CA        44.6000   43.2170   48.2520 C.3     8  TYR8        0.1639
     27  C         43.3940   42.2970   48.4000 C.2     8  TYR8        0.2290
     28  O         42.3930   42.4490   47.6940 O.2     8  TYR8       -0.2864
     29  CB        44.2920   44.5600   48.9190 C.3     8  TYR8        0.0560
     30  CG        45.3940   45.5850   48.7670 C.ar    8  TYR8       -0.0198
     31  CD1       46.5630   45.4890   49.5310 C.ar    8  TYR8       -0.0009
     32  CD2       45.2640   46.6540   47.8800 C.ar    8  TYR8       -0.0009
     33  CE1       47.5790   46.4230   49.4120 C.ar    8  TYR8        0.0417
     34  CE2       46.2700   47.6110   47.7610 C.ar    8  TYR8        0.0417
     35  CZ        47.4250   47.4860   48.5470 C.ar    8  TYR8        0.1957
     36  OH        48.4150   48.4180   48.4490 O.3     8  TYR8       -0.2866
     37  N         40.4430   44.4390   50.5830 N.3    11  TYR11      -0.1227
     38  CA        40.5590   45.8120   50.0960 C.3    11  TYR11       0.1736
     39  C         39.4080   46.6860   50.5590 C.2    11  TYR11       0.2595
     40  O         39.6250   47.7900   51.0790 O.2    11  TYR11      -0.2718
     41  CB        40.5910   45.8010   48.5740 C.3    11  TYR11       0.0548
     42  CG        40.7190   47.1540   47.9030 C.ar   11  TYR11      -0.0200
     43  CD1       41.8470   47.9540   48.0980 C.ar   11  TYR11      -0.0009
     44  CD2       39.7410   47.5990   47.0160 C.ar   11  TYR11      -0.0009
     45  CE1       41.9820   49.1720   47.4340 C.ar   11  TYR11       0.0417
     46  CE2       39.8580   48.8170   46.3550 C.ar   11  TYR11       0.0417
     47  CZ        40.9700   49.5840   46.5540 C.ar   11  TYR11       0.1957
     48  OH        41.0590   50.7630   45.8770 O.3    11  TYR11      -0.2866
     49  N         38.1720   46.2450   50.3200 N.am   12  TYR12      -0.1976
     50  CA        37.0410   47.1220   50.5980 C.3    12  TYR12       0.1639
     51  C         36.8090   47.2640   52.0860 C.2    12  TYR12       0.2290
     52  O         36.2090   48.2530   52.5140 O.2    12  TYR12      -0.2864
     53  CB        35.7830   46.6190   49.8800 C.3    12  TYR12       0.0560
     54  CG        35.9520   46.7790   48.3950 C.ar   12  TYR12      -0.0198
     55  CD1       35.9830   48.0480   47.8250 C.ar   12  TYR12      -0.0009
     56  CD2       36.1260   45.6740   47.5670 C.ar   12  TYR12      -0.0009
     57  CE1       36.1700   48.2150   46.4620 C.ar   12  TYR12       0.0417
     58  CE2       36.2960   45.8230   46.2040 C.ar   12  TYR12       0.0417
     59  CZ        36.3180   47.0920   45.6600 C.ar   12  TYR12       0.1957
     60  OH        36.5090   47.2390   44.3170 O.3    12  TYR12      -0.2866
     61  N         38.9920   50.3570   52.3910 N.3    15  ARG15      -0.1245
     62  CA        38.5640   51.4710   51.5510 C.3    15  ARG15       0.1563
     63  C         37.1890   51.9800   51.9690 C.2    15  ARG15       0.2260
     64  O         36.9720   53.1930   52.0820 O.2    15  ARG15      -0.2867
     65  CB        38.5480   51.0690   50.0750 C.3    15  ARG15       0.0307
     66  CG        38.0760   52.2570   49.2010 C.3    15  ARG15       0.0489
     67  CD        38.4110   52.1200   47.7040 C.3    15  ARG15       0.2205
     68  NE        38.1290   53.4090   47.0540 N.pl3  15  ARG15      -0.0865
     69  CZ        38.7570   53.8700   45.9790 C.cat  15  ARG15       0.5346
     70  NH1       39.7150   53.1480   45.3950 N.pl3  15  ARG15       0.1354
     71  NH2       38.4240   55.0640   45.4930 N.pl3  15  ARG15       0.1354
     72  N         32.2700   56.7150   45.6310 N.3    23  ARG23      -0.1245
     73  CA        32.2590   56.9200   44.1870 C.3    23  ARG23       0.1563
     74  C         30.8700   56.7240   43.5810 C.2    23  ARG23       0.2260
     75  O         30.6020   57.2470   42.4920 O.2    23  ARG23      -0.2867
     76  CB        33.2840   55.9900   43.5270 C.3    23  ARG23       0.0307
     77  CG        34.7280   56.3610   43.8910 C.3    23  ARG23       0.0489
     78  CD        35.7270   55.2900   43.4100 C.3    23  ARG23       0.2205
     79  NE        35.5500   54.0120   44.1170 N.pl3  23  ARG23      -0.0865
     80  CZ        36.3040   52.9350   43.9120 C.cat  23  ARG23       0.5346
     81  NH1       37.2960   52.9840   43.0250 N.pl3  23  ARG23       0.1354
     82  NH2       36.0650   51.8080   44.5910 N.pl3  23  ARG23       0.1354
     83  N         34.9070   46.6140   33.6560 N.3    39  ASP39      -0.1225
     84  CA        35.4700   47.0930   34.9250 C.3    39  ASP39       0.1805
     85  C         36.8750   46.5090   35.0950 C.2    39  ASP39       0.2598
     86  O         37.0300   45.3190   35.3950 O.2    39  ASP39      -0.2718
     87  CB        34.5640   46.7030   36.1000 C.3    39  ASP39       0.1424
     88  CG        34.9290   47.4290   37.4050 C.2    39  ASP39       0.3668
     89  OD1       35.7430   48.3730   37.3600 O.co2  39  ASP39      -0.2456
     90  OD2       34.3990   47.0480   38.4830 O.co2  39  ASP39      -0.2456
     91  N         37.8980   47.3410   34.8950 N.am   40  LEU40      -0.1966
     92  CA        39.2830   46.8690   34.9080 C.3    40  LEU40       0.1728
     93  C         39.8280   46.8190   36.3270 C.2    40  LEU40       0.2617
     94  O         39.6930   47.7840   37.0850 O.2    40  LEU40      -0.2715
     95  CB        40.1650   47.7850   34.0690 C.3    40  LEU40       0.0311
     96  CG        39.7860   47.8480   32.5970 C.3    40  LEU40       0.0022
     97  CD1       40.6720   48.8850   31.9320 C.3    40  LEU40       0.0001
     98  CD2       40.0080   46.4770   31.9790 C.3    40  LEU40       0.0001
     99  N         40.4790   45.7130   36.6700 N.am   41  GLY41      -0.1940
    100  CA        40.9890   45.5450   38.0180 C.3    41  GLY41       0.2014
    101  C         39.8470   45.5580   39.0120 C.2    41  GLY41       0.2639
    102  O         39.8630   46.3380   39.9610 O.2    41  GLY41      -0.2714
    103  N         38.8320   44.7230   38.7860 N.am   42  CYS42      -0.1953
    104  CA        37.6000   44.7920   39.5810 C.3    42  CYS42       0.1843
    105  C         37.7610   44.2710   41.0060 C.2    42  CYS42       0.2625
    106  O         36.8230   44.4200   41.8030 O.2    42  CYS42      -0.2714
    107  CB        36.4790   44.0000   38.8920 C.3    42  CYS42       0.0997
    108  SG        36.8700   42.2440   38.7620 S.3    42  CYS42      -0.0797
    109  N         38.8910   43.6500   41.3360 N.am   43  ASN43      -0.1972
    110  CA        39.1590   43.1470   42.7050 C.3    43  ASN43       0.1688
    111  C         38.0350   42.1600   43.0500 C.2    43  ASN43       0.2292
    112  O         37.6290   41.3680   42.1830 O.2    43  ASN43      -0.2864
    113  CB        39.3300   44.3360   43.6650 C.3    43  ASN43       0.1181
    114  CG        39.8950   43.9210   45.0220 C.2    43  ASN43       0.2629
    115  OD1       39.1440   43.5670   45.9350 O.2    43  ASN43      -0.2716
    116  ND2       41.2140   43.9800   45.1610 N.am   43  ASN43      -0.0877
    117  N         32.2170   47.0770   43.8770 N.3    47  LEU47      -0.1245
    118  CA        31.7240   48.1960   43.0760 C.3    47  LEU47       0.1561
    119  C         31.1050   47.7070   41.7670 C.2    47  LEU47       0.2260
    120  O         30.0460   48.1930   41.3490 O.2    47  LEU47      -0.2867
    121  CB        32.8680   49.1700   42.8080 C.3    47  LEU47       0.0270
    122  CG        32.4540   50.4550   42.0860 C.3    47  LEU47       0.0019
    123  CD1       31.5760   51.2760   42.9860 C.3    47  LEU47       0.0001
    124  CD2       33.6830   51.2360   41.6900 C.3    47  LEU47       0.0001
    125  N         37.1370   42.4130   35.2460 N.3    63  LEU63      -0.1231
    126  CA        38.4130   41.7870   34.9160 C.3    63  LEU63       0.1693
    127  C         39.4200   42.0470   36.0280 C.2    63  LEU63       0.2592
    128  O         39.5740   43.1890   36.4680 O.2    63  LEU63      -0.2718
    129  CB        38.9750   42.3390   33.5980 C.3    63  LEU63       0.0284
    130  CG        40.3580   41.7570   33.2660 C.3    63  LEU63       0.0019
    131  CD1       40.2280   40.3170   32.7970 C.3    63  LEU63       0.0001
    132  CD2       41.0590   42.5880   32.2190 C.3    63  LEU63       0.0001
    133  N         40.1130   40.9990   36.4770 N.am   64  ASP64      -0.1960
    134  CA        41.1880   41.2020   37.4370 C.3    64  ASP64       0.1840
    135  C         42.3080   40.2140   37.1630 C.2    64  ASP64       0.2621
    136  O         42.0720   39.0920   36.7160 O.2    64  ASP64      -0.2715
    137  CB        40.7100   41.0660   38.8930 C.3    64  ASP64       0.1450
    138  CG        41.6290   41.7970   39.8690 C.2    64  ASP64       0.3671
    139  OD1       42.6840   41.2360   40.2080 O.co2  64  ASP64      -0.2456
    140  OD2       41.3220   42.9470   40.2520 O.co2  64  ASP64      -0.2456
    141  N         43.5390   40.6430   37.4520 N.am   65  ILE65      -0.1977
    142  CA        44.6840   39.7820   37.1970 C.3    65  ILE65       0.1596
    143  C         44.7540   38.6190   38.1920 C.2    65  ILE65       0.2287
    144  O         45.3950   37.6020   37.9080 O.2    65  ILE65      -0.2864
    145  CB        45.9690   40.6370   37.1970 C.3    65  ILE65       0.0276
    146  CG1       47.1310   39.8750   36.5490 C.3    65  ILE65       0.0022
    147  CG2       46.3110   41.1090   38.6110 C.3    65  ILE65       0.0022
    148  CD1       48.3780   40.7400   36.3110 C.3    65  ILE65       0.0001
    149  N         40.8180   36.7540   43.6340 N.3    69  LEU69      -0.1245
    150  CA        39.8550   37.8420   43.7710 C.3    69  LEU69       0.1561
    151  C         38.6570   37.6230   42.8630 C.2    69  LEU69       0.2260
    152  O         37.5240   37.9520   43.2300 O.2    69  LEU69      -0.2867
    153  CB        40.5340   39.1830   43.4570 C.3    69  LEU69       0.0270
    154  CG        41.8050   39.4480   44.2760 C.3    69  LEU69       0.0019
    155  CD1       42.4360   40.7890   43.9190 C.3    69  LEU69       0.0001
    156  CD2       41.4800   39.3910   45.7730 C.3    69  LEU69       0.0001
    157  N         42.5220   37.8760   34.1720 N.3    95  GLY95      -0.1210
    158  CA        43.4290   38.1790   33.0720 C.3    95  GLY95       0.1956
    159  C         44.2000   39.4520   33.3420 C.2    95  GLY95       0.2612
    160  O         43.8000   40.2930   34.1590 O.2    95  GLY95      -0.2717
    161  N         45.3230   39.5720   32.6500 N.am   96  ASN96      -0.1960
    162  CA        46.1650   40.7610   32.6830 C.3    96  ASN96       0.1819
    163  C         45.7750   41.6520   31.5030 C.2    96  ASN96       0.2621
    164  O         45.9450   41.2540   30.3460 O.2    96  ASN96      -0.2715
    165  CB        47.6340   40.3450   32.5970 C.3    96  ASN96       0.1195
    166  CG        48.5900   41.5180   32.6780 C.2    96  ASN96       0.2630
    167  OD1       48.1930   42.6780   32.6010 O.2    96  ASN96      -0.2716
    168  ND2       49.8710   41.2120   32.8210 N.am   96  ASN96      -0.0877
    169  N         45.2560   42.8500   31.7880 N.am   97  TYR97      -0.1960
    170  CA        44.7730   43.7060   30.6980 C.3    97  TYR97       0.1771
    171  C         45.9080   44.2990   29.8680 C.2    97  TYR97       0.2619
    172  O         45.6770   44.7120   28.7230 O.2    97  TYR97      -0.2715
    173  CB        43.9070   44.8410   31.2580 C.3    97  TYR97       0.0574
    174  CG        43.1250   45.5860   30.1760 C.ar   97  TYR97      -0.0198
    175  CD1       42.0600   44.9830   29.5230 C.ar   97  TYR97      -0.0009
    176  CD2       43.4580   46.8840   29.8150 C.ar   97  TYR97      -0.0009
    177  CE1       41.3380   45.6540   28.5160 C.ar   97  TYR97       0.0417
    178  CE2       42.7400   47.5640   28.8250 C.ar   97  TYR97       0.0417
    179  CZ        41.6820   46.9430   28.1840 C.ar   97  TYR97       0.1957
    180  OH        40.9830   47.6160   27.1980 O.3    97  TYR97      -0.2866
    181  N         47.1220   44.3440   30.4140 N.am   98  VAL98      -0.1977
    182  CA        48.2820   44.9130   29.7310 C.3    98  VAL98       0.1596
    183  C         48.8080   43.8830   28.7340 C.2    98  VAL98       0.2287
    184  O         49.2830   42.8150   29.1250 O.2    98  VAL98      -0.2864
    185  CB        49.3720   45.3110   30.7370 C.3    98  VAL98       0.0276
    186  CG1       50.5860   45.8970   30.0250 C.3    98  VAL98       0.0022
    187  CG2       48.8070   46.2970   31.7700 C.3    98  VAL98       0.0022
    188  N         39.5210   52.3370   37.4690 N.3   118  LEU118     -0.1231
    189  CA        39.4810   52.9670   38.7790 C.3   118  LEU118      0.1693
    190  C         40.5870   52.3960   39.6550 C.2   118  LEU118      0.2593
    191  O         40.6420   51.1820   39.8820 O.2   118  LEU118     -0.2718
    192  CB        38.1220   52.7490   39.4440 C.3   118  LEU118      0.0284
    193  CG        36.9190   53.0640   38.5530 C.3   118  LEU118      0.0019
    194  CD1       35.6290   52.7610   39.3150 C.3   118  LEU118      0.0001
    195  CD2       36.9200   54.5120   38.0820 C.3   118  LEU118      0.0001
    196  N         41.4510   53.2790   40.1530 N.am  119  SER119     -0.1938
    197  CA        42.4900   52.9150   41.1130 C.3   119  SER119      0.2055
    198  C         43.3650   51.7980   40.5670 C.2   119  SER119      0.2642
    199  O         43.8070   50.9100   41.2940 O.2   119  SER119     -0.2714
    200  CB        41.8780   52.5490   42.4640 C.3   119  SER119      0.2130
    201  OG        41.2570   53.7090   43.0030 O.3   119  SER119     -0.2179
    202  N         43.6230   51.8560   39.2630 N.am  120  LEU120     -0.1977
    203  CA        44.4320   50.8600   38.5810 C.3   120  LEU120      0.1596
    204  C         45.7080   51.4140   37.9730 C.2   120  LEU120      0.2287
    205  O         46.6850   50.6690   37.8580 O.2   120  LEU120     -0.2864
    206  CB        43.6100   50.1830   37.4690 C.3   120  LEU120      0.0297
    207  CG        44.3070   49.1400   36.5880 C.3   120  LEU120      0.0022
    208  CD1       44.8510   47.9830   37.4430 C.3   120  LEU120      0.0001
    209  CD2       43.3550   48.6160   35.5120 C.3   120  LEU120      0.0001
    210  N         49.1880   50.7430   39.6840 N.3   123  TRP123     -0.1227
    211  CA        49.6900   49.3750   39.6990 C.3   123  TRP123      0.1737
    212  C         50.2050   48.9410   38.3350 C.2   123  TRP123      0.2595
    213  O         51.2240   48.2450   38.2440 O.2   123  TRP123     -0.2718
    214  CB        48.5830   48.4400   40.1990 C.3   123  TRP123      0.0564
    215  CG        48.2330   48.7880   41.6140 C.ar  123  TRP123      0.0003
    216  CD1       47.0620   49.3130   42.0780 C.ar  123  TRP123      0.0946
    217  CD2       49.1010   48.6710   42.7410 C.ar  123  TRP123      0.0152
    218  NE1       47.1480   49.5250   43.4380 N.ar  123  TRP123     -0.2442
    219  CE2       48.3930   49.1430   43.8690 C.ar  123  TRP123      0.0810
    220  CE3       50.4110   48.2100   42.9070 C.ar  123  TRP123      0.0012
    221  CZ2       48.9450   49.1500   45.1460 C.ar  123  TRP123      0.0191
    222  CZ3       50.9700   48.2400   44.1850 C.ar  123  TRP123      0.0001
    223  CH2       50.2310   48.6920   45.2850 C.ar  123  TRP123      0.0015
    224  N         49.5040   49.3220   37.2630 N.am  124  VAL124     -0.1980
    225  CA        50.0030   49.0380   35.9190 C.3   124  VAL124      0.1595
    226  C         51.3040   49.7860   35.6760 C.2   124  VAL124      0.2287
    227  O         52.2680   49.2350   35.1270 O.2   124  VAL124     -0.2864
    228  CB        48.9300   49.4010   34.8750 C.3   124  VAL124      0.0276
    229  CG1       49.5330   49.4320   33.4490 C.3   124  VAL124      0.0022
    230  CG2       47.7900   48.3910   34.9590 C.3   124  VAL124      0.0022
    231  N         54.5750   47.5120   35.0010 N.3   128  TRP128     -0.1241
    232  CA        54.9190   47.4070   33.5840 C.3   128  TRP128      0.1605
    233  C         55.4310   48.7240   33.0130 C.2   128  TRP128      0.2264
    234  O         55.6480   48.8130   31.7980 O.2   128  TRP128     -0.2867
    235  CB        53.7120   46.8860   32.7760 C.3   128  TRP128      0.0550
    236  CG        53.3510   45.4990   33.2120 C.ar  128  TRP128      0.0003
    237  CD1       53.9880   44.3310   32.8640 C.ar  128  TRP128      0.0946
    238  CD2       52.3280   45.1330   34.1430 C.ar  128  TRP128      0.0152
    239  NE1       53.3980   43.2650   33.5090 N.ar  128  TRP128     -0.2442
    240  CE2       52.3800   43.7300   34.2980 C.ar  128  TRP128      0.0810
    241  CE3       51.3640   45.8500   34.8490 C.ar  128  TRP128      0.0012
    242  CZ2       51.5060   43.0390   35.1340 C.ar  128  TRP128      0.0191
    243  CZ3       50.4930   45.1540   35.6890 C.ar  128  TRP128      0.0001
    244  CH2       50.5690   43.7670   35.8130 C.ar  128  TRP128      0.0015
@<TRIPOS>BOND
     1   180   179    1
     2   179   177   ar
     3   179   178   ar
     4   177   175   ar
     5   172   171    2
     6   183   184    2
     7   183   182    1
     8   178   176   ar
     9   175   174   ar
    10   182   181    1
    11   182   185    1
    12   176   174   ar
    13   171   181   am
    14   171   170    1
    15   186   185    1
    16   174   173    1
    17   164   163    2
    18   170   173    1
    19   170   169    1
    20   185   187    1
    21   163   169   am
    22   163   162    1
    23   234   233    2
    24    97    96    1
    25    98    96    1
    26   132   130    1
    27    96    95    1
    28   165   166    1
    29   165   162    1
    30   167   166    2
    31   161   162    1
    32   161   159   am
    33   166   168   am
    34   235   236    1
    35   235   232    1
    36   131   130    1
    37   237   236   ar
    38   237   239   ar
    39   233   232    1
    40   158   159    1
    41   158   157    1
    42   236   238   ar
    43   130   129    1
    44   159   160    2
    45   229   228    1
    46   239   240   ar
    47   232   231    1
    48   129   126    1
    49    83    84    1
    50    95    92    1
    51   238   240   ar
    52   238   241   ar
    53   240   242   ar
    54   241   243   ar
    55   228   230    1
    56   228   225    1
    57    91    92    1
    58    91    85   am
    59    92    93    1
    60   126   125    1
    61   126   127    1
    62    84    85    1
    63    84    87    1
    64    85    86    2
    65   227   226    2
    66   242   244   ar
    67   209   207    1
    68   226   225    1
    69   243   244   ar
    70   225   224    1
    71   127   128    2
    72   127   133   am
    73    87    88    1
    74   148   146    1
    75    93    99   am
    76    93    94    2
    77   133   134    1
    78   146   145    1
    79   207   208    1
    80   207   206    1
    81    99   100    1
    82   136   135    2
    83   135   134    1
    84   135   141   am
    85   145   142    1
    86   145   147    1
    87   142   141    1
    88   142   143    1
    89   224   212   am
    90    89    88   ar
    91    88    90   ar
    92   134   137    1
    93   188   189    1
    94   206   203    1
    95   205   204    2
    96   144   143    2
    97   204   203    1
    98   100   101    1
    99   195   193    1
   100   213   212    2
   101   212   211    1
   102   193   194    1
   103   193   192    1
   104   203   202    1
   105    12    11    1
   106   108   107    1
   107   189   192    1
   108   189   190    1
   109   103   101   am
   110   103   104    1
   111     9    11   ar
   112     9     7   ar
   113   107   104    1
   114   137   138    1
   115   101   102    2
   116   202   198   am
   117    11    10   ar
   118     7     6   ar
   119   104   105    1
   120   190   191    2
   121   190   196   am
   122   210   211    1
   123   211   214    1
   124   138   139   ar
   125   138   140   ar
   126   196   197    1
   127   214   215    1
   128    10     8   ar
   129     6     8   ar
   130     6     5    1
   131   198   197    1
   132   198   199    2
   133   105   109   am
   134   105   106    2
   135     5     2    1
   136   197   200    1
   137   109   110    1
   138   120   119    2
   139   215   216   ar
   140   215   217   ar
   141   124   122    1
   142   119   118    1
   143     4     3    2
   144     2     3    1
   145     2     1    1
   146   216   218   ar
   147   122   121    1
   148   122   123    1
   149   112   111    2
   150   200   201    1
   151    75    74    2
   152     3    13   am
   153   110   111    1
   154   110   113    1
   155   217   220   ar
   156   217   219   ar
   157   121   118    1
   158   151   152    2
   159   151   150    1
   160   220   222   ar
   161    81    80    1
   162   118   117    1
   163    78    77    1
   164    78    79    1
   165   218   219   ar
   166   153   150    1
   167   153   154    1
   168    76    77    1
   169    76    73    1
   170    74    73    1
   171   149   150    1
   172   113   114    1
   173    13    14    1
   174    21    22    1
   175    21    18    1
   176   219   221   ar
   177    80    79    2
   178    80    82    1
   179   155   154    1
   180    24    22   am
   181    22    23    2
   182   222   223   ar
   183    73    72    1
   184   154   156    1
   185    60    59    1
   186    14    15    1
   187    17    18    1
   188    17    15   am
   189    18    19    1
   190    15    16    2
   191   114   116   am
   192   114   115    2
   193   221   223   ar
   194    70    69    1
   195    71    69    1
   196    59    58   ar
   197    59    57   ar
   198    48    47    1
   199    69    68    2
   200    19    20    2
   201    19    25   am
   202    58    56   ar
   203    46    47   ar
   204    46    44   ar
   205    57    55   ar
   206    47    45   ar
   207    25    26    1
   208    44    42   ar
   209    68    67    1
   210    45    43   ar
   211    56    54   ar
   212    28    27    2
   213    67    66    1
   214    34    32   ar
   215    34    35   ar
   216    55    54   ar
   217    32    30   ar
   218    42    43   ar
   219    42    41    1
   220    26    27    1
   221    26    29    1
   222    54    53    1
   223    36    35    1
   224    35    33   ar
   225    41    38    1
   226    30    29    1
   227    30    31   ar
   228    66    65    1
   229    33    31   ar
   230    53    50    1
   231    65    62    1
   232    38    39    1
   233    38    37    1
   234    49    39   am
   235    49    50    1
   236    39    40    2
   237    50    51    1
   238    62    63    1
   239    62    61    1
   240    63    64    2
   241    51    52    2
