@<TRIPOS>MOLECULE
tmp/6dcfD00.pdb
 220 210 0 0 0
SMALL
GASTEIGER

@<TRIPOS>ATOM
      1  N       -143.8370   46.2230   37.0250 N.3   133  ARG133     -0.1245
      2  CA      -144.0960   44.7950   37.1210 C.3   133  ARG133      0.1563
      3  C       -145.0900   44.3550   36.0550 C.2   133  ARG133      0.2260
      4  O       -145.9010   45.1430   35.5610 O.2   133  ARG133     -0.2867
      5  CB      -144.6320   44.4160   38.5090 C.3   133  ARG133      0.0307
      6  CG      -143.5920   44.4510   39.6140 C.3   133  ARG133      0.0489
      7  CD      -144.2230   44.1530   40.9640 C.3   133  ARG133      0.2205
      8  NE      -143.2240   44.0000   42.0170 N.pl3 133  ARG133     -0.0865
      9  CZ      -142.7150   42.8320   42.3970 C.cat 133  ARG133      0.5346
     10  NH1     -143.1120   41.7120   41.8100 N.pl3 133  ARG133      0.1354
     11  NH2     -141.8100   42.7850   43.3650 N.pl3 133  ARG133      0.1354
     12  N       -147.9710   37.7320   34.8950 N.3   136  VAL136     -0.1245
     13  CA      -148.0870   36.6700   33.9040 C.3   136  VAL136      0.1561
     14  C       -149.4740   36.0520   34.0030 C.2   136  VAL136      0.2260
     15  O       -150.1970   36.2410   34.9850 O.2   136  VAL136     -0.2867
     16  CB      -146.9890   35.6080   34.1020 C.3   136  VAL136      0.0252
     17  CG1     -147.0430   34.5690   32.9970 C.3   136  VAL136      0.0019
     18  CG2     -145.6210   36.2620   34.1700 C.3   136  VAL136      0.0019
     19  N       -146.4860   41.6430   45.9440 N.3   201  GLY201     -0.1210
     20  CA      -145.2100   41.5210   46.6190 C.3   201  GLY201      0.1956
     21  C       -144.7130   40.1000   46.7880 C.2   201  GLY201      0.2613
     22  O       -143.5070   39.8490   46.7110 O.2   201  GLY201     -0.2717
     23  N       -145.6300   39.1570   47.0180 N.am  202  THR202     -0.1938
     24  CA      -145.2540   37.7860   47.3290 C.3   202  THR202      0.2028
     25  C       -145.6360   36.7730   46.2600 C.2   202  THR202      0.2643
     26  O       -145.0950   35.6630   46.2690 O.2   202  THR202     -0.2714
     27  CB      -145.8840   37.3480   48.6610 C.3   202  THR202      0.1808
     28  OG1     -147.3090   37.2870   48.5220 O.3   202  THR202     -0.2208
     29  CG2     -145.5320   38.3340   49.7650 C.3   202  THR202      0.0379
     30  N       -146.5380   37.1170   45.3450 N.am  203  SER203     -0.1935
     31  CA      -147.0030   36.1500   44.3600 C.3   203  SER203      0.2055
     32  C       -145.9070   35.8200   43.3530 C.2   203  SER203      0.2643
     33  O       -145.1400   36.6900   42.9330 O.2   203  SER203     -0.2714
     34  CB      -148.2340   36.6850   43.6290 C.3   203  SER203      0.2130
     35  OG      -148.5240   35.9040   42.4810 O.3   203  SER203     -0.2179
     36  N       -145.8400   34.5430   42.9670 N.am  204  GLN204     -0.1963
     37  CA      -144.9190   34.1340   41.9140 C.3   204  GLN204      0.1733
     38  C       -145.3560   34.6630   40.5540 C.2   204  GLN204      0.2616
     39  O       -144.5120   34.8900   39.6770 O.2   204  GLN204     -0.2715
     40  CB      -144.8060   32.6100   41.8760 C.3   204  GLN204      0.0408
     41  CG      -144.3600   31.9830   43.1860 C.3   204  GLN204      0.0908
     42  CD      -144.1490   30.4850   43.0710 C.2   204  GLN204      0.2608
     43  OE1     -144.9790   29.7700   42.5090 O.2   204  GLN204     -0.2717
     44  NE2     -143.0280   30.0050   43.5960 N.am  204  GLN204     -0.0878
     45  N       -146.6620   34.8720   40.3620 N.am  205  LEU205     -0.1963
     46  CA      -147.1570   35.3780   39.0850 C.3   205  LEU205      0.1728
     47  C       -146.8050   36.8470   38.8780 C.2   205  LEU205      0.2617
     48  O       -146.5510   37.2640   37.7430 O.2   205  LEU205     -0.2715
     49  CB      -148.6720   35.1720   38.9930 C.3   205  LEU205      0.0311
     50  CG      -149.1350   33.9320   38.2300 C.3   205  LEU205      0.0022
     51  CD1     -149.0270   34.1540   36.7280 C.3   205  LEU205      0.0001
     52  CD2     -148.3220   32.7160   38.6490 C.3   205  LEU205      0.0001
     53  N       -146.7920   37.6440   39.9460 N.am  206  SER206     -0.1936
     54  CA      -146.3350   39.0290   39.8670 C.3   206  SER206      0.2055
     55  C       -144.8190   39.0410   39.7160 C.2   206  SER206      0.2643
     56  O       -144.0940   38.7130   40.6600 O.2   206  SER206     -0.2714
     57  CB      -146.7690   39.8020   41.1090 C.3   206  SER206      0.2130
     58  OG      -146.0450   41.0120   41.2460 O.3   206  SER206     -0.2179
     59  N       -144.3340   39.4250   38.5380 N.am  207  GLN207     -0.1963
     60  CA      -142.9250   39.2940   38.1970 C.3   207  GLN207      0.1733
     61  C       -142.2960   40.6510   37.9200 C.2   207  GLN207      0.2616
     62  O       -142.9270   41.5360   37.3320 O.2   207  GLN207     -0.2715
     63  CB      -142.7350   38.3910   36.9750 C.3   207  GLN207      0.0408
     64  CG      -143.1320   36.9440   37.1970 C.3   207  GLN207      0.0908
     65  CD      -142.8750   36.0830   35.9770 C.2   207  GLN207      0.2608
     66  OE1     -142.3870   36.5650   34.9550 O.2   207  GLN207     -0.2717
     67  NE2     -143.2040   34.8000   36.0780 N.am  207  GLN207     -0.0878
     68  N       -141.0460   40.7980   38.3500 N.am  208  PHE208     -0.1974
     69  CA      -140.2270   41.9360   37.9590 C.3   208  PHE208      0.1639
     70  C       -140.0840   41.9590   36.4430 C.2   208  PHE208      0.2290
     71  O       -139.5600   41.0110   35.8480 O.2   208  PHE208     -0.2864
     72  CB      -138.8590   41.8290   38.6330 C.3   208  PHE208      0.0560
     73  CG      -138.1040   43.1250   38.7080 C.ar  208  PHE208     -0.0200
     74  CD1     -138.4440   44.0850   39.6450 C.ar  208  PHE208     -0.0042
     75  CD2     -137.0330   43.3690   37.8630 C.ar  208  PHE208     -0.0042
     76  CE1     -137.7450   45.2740   39.7250 C.ar  208  PHE208     -0.0003
     77  CE2     -136.3290   44.5560   37.9390 C.ar  208  PHE208     -0.0003
     78  CZ      -136.6860   45.5090   38.8710 C.ar  208  PHE208     -0.0000
     79  N       -138.9410   42.1990   32.7880 N.3   210  ASP210     -0.1239
     80  CA      -137.6530   42.0440   32.1200 C.3   210  ASP210      0.1674
     81  C       -137.6720   42.8650   30.8370 C.2   210  ASP210      0.2266
     82  O       -138.3850   42.5270   29.8870 O.2   210  ASP210     -0.2867
     83  CB      -137.3640   40.5740   31.8230 C.3   210  ASP210      0.1410
     84  CG      -136.2770   40.3950   30.7800 C.2   210  ASP210      0.3668
     85  OD1     -135.2080   41.0220   30.9260 O.co2 210  ASP210     -0.2456
     86  OD2     -136.4910   39.6250   29.8190 O.co2 210  ASP210     -0.2456
     87  N       -134.5550   44.5580   28.7100 N.3   212  ASN212     -0.1240
     88  CA      -133.3500   45.0940   28.0950 C.3   212  ASN212      0.1653
     89  C       -133.5660   45.4280   26.6260 C.2   212  ASN212      0.2266
     90  O       -132.6880   46.0370   26.0040 O.2   212  ASN212     -0.2867
     91  CB      -132.1760   44.1130   28.2410 C.3   212  ASN212      0.1155
     92  CG      -132.6180   42.6620   28.2620 C.2   212  ASN212      0.2627
     93  OD1     -132.4220   41.9570   29.2520 O.2   212  ASN212     -0.2716
     94  ND2     -133.2190   42.2090   27.1690 N.am  212  ASN212     -0.0877
     95  N       -142.2340   38.9800   27.8180 N.3   220  HIS220     -0.1241
     96  CA      -142.5100   38.7370   29.2300 C.3   220  HIS220      0.1621
     97  C       -144.0070   38.8120   29.4890 C.2   220  HIS220      0.2264
     98  O       -144.5850   37.9380   30.1450 O.2   220  HIS220     -0.2867
     99  CB      -141.7560   39.7360   30.1080 C.3   220  HIS220      0.0745
    100  CG      -141.9100   39.4820   31.5760 C.ar  220  HIS220      0.0817
    101  ND1     -141.5420   40.4020   32.5350 N.ar  220  HIS220     -0.2268
    102  CD2     -142.3910   38.4100   32.2500 C.ar  220  HIS220      0.1154
    103  CE1     -141.7920   39.9090   33.7350 C.ar  220  HIS220      0.1986
    104  NE2     -142.3070   38.7010   33.5890 N.ar  220  HIS220     -0.2212
    105  N       -146.5210   35.8420   28.2070 N.3   223  ARG223     -0.1231
    106  CA      -146.0000   34.5900   28.7270 C.3   223  ARG223      0.1694
    107  C       -147.0210   33.9760   29.6760 C.2   223  ARG223      0.2592
    108  O       -147.8550   34.6720   30.2600 O.2   223  ARG223     -0.2718
    109  CB      -144.6690   34.8140   29.4500 C.3   223  ARG223      0.0321
    110  CG      -143.7190   33.6330   29.3770 C.3   223  ARG223      0.0489
    111  CD      -142.6650   33.6710   30.4800 C.3   223  ARG223      0.2205
    112  NE      -141.9190   34.9260   30.5030 N.pl3 223  ARG223     -0.0865
    113  CZ      -140.9000   35.2040   29.6980 C.cat 223  ARG223      0.5346
    114  NH1     -140.5060   34.3170   28.7940 N.pl3 223  ARG223      0.1354
    115  NH2     -140.2780   36.3720   29.7900 N.pl3 223  ARG223      0.1354
    116  N       -146.9610   32.6570   29.8190 N.am  224  LEU224     -0.1966
    117  CA      -147.9430   31.9730   30.6450 C.3   224  LEU224      0.1728
    118  C       -147.3130   30.7630   31.3150 C.2   224  LEU224      0.2616
    119  O       -146.4800   30.0720   30.7210 O.2   224  LEU224     -0.2715
    120  CB      -149.1620   31.5490   29.8210 C.3   224  LEU224      0.0311
    121  CG      -148.9330   30.5210   28.7160 C.3   224  LEU224      0.0022
    122  CD1     -149.8050   29.2990   28.9560 C.3   224  LEU224      0.0001
    123  CD2     -149.2230   31.1300   27.3540 C.3   224  LEU224      0.0001
    124  N       -147.7270   30.5190   32.5560 N.am  225  LEU225     -0.1977
    125  CA      -147.2720   29.3740   33.3330 C.3   225  LEU225      0.1596
    126  C       -148.2270   28.2100   33.0980 C.2   225  LEU225      0.2287
    127  O       -149.4360   28.3390   33.3220 O.2   225  LEU225     -0.2864
    128  CB      -147.1960   29.7430   34.8150 C.3   225  LEU225      0.0297
    129  CG      -146.8950   28.6710   35.8650 C.3   225  LEU225      0.0022
    130  CD1     -148.1620   27.9300   36.2680 C.3   225  LEU225      0.0001
    131  CD2     -145.8400   27.7000   35.3590 C.3   225  LEU225      0.0001
    132  N       -141.2280   28.4900   22.2860 N.3   241  GLU241     -0.1245
    133  CA      -140.5010   29.5030   23.0380 C.3   241  GLU241      0.1567
    134  C       -140.3620   29.1480   24.5150 C.2   241  GLU241      0.2260
    135  O       -140.1030   30.0340   25.3370 O.2   241  GLU241     -0.2867
    136  CB      -141.1660   30.8720   22.8830 C.3   241  GLU241      0.0388
    137  CG      -140.1920   32.0270   23.0800 C.3   241  GLU241      0.1160
    138  CD      -140.8790   33.3480   23.3600 C.2   241  GLU241      0.3649
    139  OE1     -141.9130   33.6370   22.7220 O.co2 241  GLU241     -0.2457
    140  OE2     -140.3820   34.0970   24.2280 O.co2 241  GLU241     -0.2457
    141  N       -138.4190   27.9670   27.7640 N.3   243  PRO243     -0.2102
    142  CA      -137.0030   28.1600   28.0940 C.3   243  PRO243      0.1504
    143  C       -136.2080   26.8740   27.9230 C.2   243  PRO243      0.2575
    144  O       -136.7410   25.7640   27.9810 O.2   243  PRO243     -0.2718
    145  CB      -137.0340   28.6090   29.5620 C.3   243  PRO243      0.0282
    146  CG      -138.3480   28.1210   30.0830 C.3   243  PRO243      0.0208
    147  CD      -139.2970   28.1950   28.9240 C.3   243  PRO243      0.0893
    148  N       -134.9050   27.0420   27.7010 N.am  244  GLU244     -0.1980
    149  CA      -134.0040   25.9130   27.5130 C.3   244  GLU244      0.1602
    150  C       -133.5910   25.2560   28.8230 C.2   244  GLU244      0.2287
    151  O       -132.8720   24.2510   28.7920 O.2   244  GLU244     -0.2864
    152  CB      -132.7560   26.3600   26.7470 C.3   244  GLU244      0.0415
    153  CG      -131.8540   27.2740   27.4410 C.3   244  GLU244      0.1163
    154  CD      -130.5840   27.7220   26.5720 C.2   244  GLU244      0.3649
    155  OE1     -130.3890   27.1750   25.5290 O.co2 244  GLU244     -0.2457
    156  OE2     -130.0240   28.5670   27.1130 O.co2 244  GLU244     -0.2457
    157  N       -137.2150   24.1690   33.3650 N.3   247  ASN247     -0.1240
    158  CA      -138.6280   24.5300   33.3850 C.3   247  ASN247      0.1653
    159  C       -139.3060   24.3650   32.0300 C.2   247  ASN247      0.2266
    160  O       -140.4160   24.8770   31.8460 O.2   247  ASN247     -0.2867
    161  CB      -138.7960   25.9720   33.8740 C.3   247  ASN247      0.1155
    162  CG      -138.6040   26.1060   35.3730 C.2   247  ASN247      0.2627
    163  OD1     -139.5720   26.1380   36.1320 O.2   247  ASN247     -0.2716
    164  ND2     -137.3510   26.1820   35.8060 N.am  247  ASN247     -0.0877
    165  N       -143.5770   26.6510   30.9030 N.3   251  ILE251     -0.1245
    166  CA      -143.5460   28.0650   30.5520 C.3   251  ILE251      0.1561
    167  C       -143.6100   28.1960   29.0380 C.2   251  ILE251      0.2260
    168  O       -142.8100   27.5830   28.3230 O.2   251  ILE251     -0.2867
    169  CB      -142.2840   28.7550   31.1020 C.3   251  ILE251      0.0252
    170  CG1     -142.2510   28.6530   32.6290 C.3   251  ILE251      0.0019
    171  CG2     -142.2260   30.2050   30.6420 C.3   251  ILE251      0.0019
    172  CD1     -140.8760   28.8370   33.2270 C.3   251  ILE251      0.0001
    173  N       -134.9190   32.9450   22.5580 N.3   322  ASN322     -0.1240
    174  CA      -134.2870   33.4060   23.7880 C.3   322  ASN322      0.1653
    175  C       -133.1210   34.3430   23.5060 C.2   322  ASN322      0.2266
    176  O       -132.8670   35.2650   24.2880 O.2   322  ASN322     -0.2867
    177  CB      -133.8180   32.2090   24.6160 C.3   322  ASN322      0.1155
    178  CG      -134.9710   31.4030   25.1790 C.2   322  ASN322      0.2627
    179  OD1     -136.1080   31.5190   24.7210 O.2   322  ASN322     -0.2716
    180  ND2     -134.6840   30.5840   26.1840 N.am  322  ASN322     -0.0877
    181  N       -134.5010   38.0840   22.9450 N.3   325  ARG325     -0.1231
    182  CA      -134.8630   38.8040   24.1570 C.3   325  ARG325      0.1694
    183  C       -133.6790   39.0340   25.0870 C.2   325  ARG325      0.2591
    184  O       -133.8700   39.5850   26.1790 O.2   325  ARG325     -0.2718
    185  CB      -135.9670   38.0520   24.9070 C.3   325  ARG325      0.0321
    186  CG      -135.5420   36.6950   25.4280 C.3   325  ARG325      0.0489
    187  CD      -136.5820   36.1110   26.3640 C.3   325  ARG325      0.2205
    188  NE      -136.1030   34.8790   26.9810 N.pl3 325  ARG325     -0.0865
    189  CZ      -135.3020   34.8420   28.0400 C.cat 325  ARG325      0.5346
    190  NH1     -134.8920   35.9710   28.6030 N.pl3 325  ARG325      0.1354
    191  NH2     -134.9100   33.6770   28.5370 N.pl3 325  ARG325      0.1354
    192  N       -132.4710   38.6230   24.6950 N.am  326  GLN326     -0.1979
    193  CA      -131.2660   38.9150   25.4610 C.3   326  GLN326      0.1601
    194  C       -130.4390   40.0460   24.8640 C.2   326  GLN326      0.2287
    195  O       -129.4380   40.4440   25.4690 O.2   326  GLN326     -0.2864
    196  CB      -130.3810   37.6610   25.5720 C.3   326  GLN326      0.0394
    197  CG      -130.9720   36.5390   26.4090 C.3   326  GLN326      0.0908
    198  CD      -129.9430   35.4790   26.7590 C.2   326  GLN326      0.2608
    199  OE1     -128.8640   35.7890   27.2650 O.2   326  GLN326     -0.2717
    200  NE2     -130.2700   34.2210   26.4850 N.am  326  GLN326     -0.0878
    201  N       -133.0390   46.3700   33.9470 N.3   392  HIS392     -0.1241
    202  CA      -131.7960   45.6150   34.0130 C.3   392  HIS392      0.1621
    203  C       -130.5720   46.4560   33.6700 C.2   392  HIS392      0.2264
    204  O       -129.4800   45.9020   33.5110 O.2   392  HIS392     -0.2867
    205  CB      -131.8720   44.3940   33.0940 C.3   392  HIS392      0.0745
    206  CG      -132.7940   43.3240   33.5900 C.ar  392  HIS392      0.0817
    207  ND1     -134.0850   43.1790   33.1290 N.ar  392  HIS392     -0.2268
    208  CD2     -132.6140   42.3490   34.5130 C.ar  392  HIS392      0.1154
    209  CE1     -134.6580   42.1590   33.7420 C.ar  392  HIS392      0.1986
    210  NE2     -133.7870   41.6390   34.5880 N.ar  392  HIS392     -0.2212
    211  N       -124.8620   39.1440   28.4410 N.3   745  HIS745     -0.1241
    212  CA      -123.6490   38.6770   29.0990 C.3   745  HIS745      0.1621
    213  C       -122.4490   39.4480   28.5590 C.2   745  HIS745      0.2264
    214  O       -122.1650   39.4050   27.3580 O.2   745  HIS745     -0.2867
    215  CB      -123.4700   37.1760   28.8820 C.3   745  HIS745      0.0745
    216  CG      -124.7130   36.3760   29.1250 C.ar  745  HIS745      0.0817
    217  ND1     -125.1920   36.1050   30.3880 N.ar  745  HIS745     -0.2268
    218  CD2     -125.5740   35.7860   28.2630 C.ar  745  HIS745      0.1154
    219  CE1     -126.2970   35.3860   30.2940 C.ar  745  HIS745      0.1986
    220  NE2     -126.5500   35.1780   29.0140 N.ar  745  HIS745     -0.2212
@<TRIPOS>BOND
     1   132   133    1
     2   173   174    1
     3   139   138   ar
     4   136   133    1
     5   136   137    1
     6   181   182    1
     7   133   134    1
     8   137   138    1
     9   138   140   ar
    10   175   174    1
    11   175   176    2
    12   174   177    1
    13   182   185    1
    14   182   183    1
    15   134   135    2
    16   177   178    1
    17   192   183   am
    18   192   193    1
    19   179   178    2
    20   194   193    1
    21   194   195    2
    22   185   186    1
    23   183   184    2
    24   178   180   am
    25   186   187    1
    26   193   196    1
    27   155   154   ar
    28   196   197    1
    29    90    89    2
    30   187   188    1
    31   197   198    1
    32   200   198   am
    33   154   156   ar
    34   154   153    1
    35    89    88    1
    36   152   153    1
    37   152   149    1
    38   198   199    2
    39   188   189    2
    40    94    92   am
    41   123   121    1
    42   214   213    2
    43   149   148    1
    44   149   150    1
    45   148   143   am
    46   141   142    1
    47   141   147    1
    48    95    96    1
    49   143   144    2
    50   143   142    1
    51   189   191    1
    52   189   190    1
    53   142   145    1
    54    88    91    1
    55    88    87    1
    56   105   106    1
    57    91    92    1
    58    92    93    2
    59   218   220   ar
    60   218   216   ar
    61   168   167    2
    62   211   212    1
    63   213   212    1
    64   121   122    1
    65   121   120    1
    66   106   109    1
    67   106   107    1
    68   151   150    2
    69   114   113    1
    70   215   212    1
    71   215   216    1
    72   147   146    1
    73   220   219   ar
    74   167   166    1
    75   216   217   ar
    76    96    97    1
    77    96    99    1
    78   110   109    1
    79   110   111    1
    80    97    98    2
    81   145   146    1
    82   107   116   am
    83   107   108    2
    84   113   115    1
    85   113   112    2
    86    86    84   ar
    87   116   117    1
    88   120   117    1
    89    82    81    2
    90    99   100    1
    91   219   217   ar
    92   111   112    1
    93   166   165    1
    94   166   169    1
    95   171   169    1
    96   117   118    1
    97   119   118    2
    98    84    85   ar
    99    84    83    1
   100    81    80    1
   101   169   170    1
   102   118   124   am
   103   100   102   ar
   104   100   101   ar
   105    83    80    1
   106   160   159    2
   107   159   158    1
   108    80    79    1
   109   102   104   ar
   110   101   103   ar
   111   124   125    1
   112   170   172    1
   113    17    16    1
   114   205   206    1
   115   205   202    1
   116   126   127    2
   117   126   125    1
   118   207   206   ar
   119   207   209   ar
   120   125   128    1
   121   157   158    1
   122   158   161    1
   123   204   203    2
   124   104   103   ar
   125   206   208   ar
   126   203   202    1
   127   209   210   ar
   128   161   162    1
   129    13    14    1
   130    13    16    1
   131    13    12    1
   132   201   202    1
   133    14    15    2
   134    16    18    1
   135   208   210   ar
   136   128   129    1
   137    66    65    2
   138   131   129    1
   139   162   164   am
   140   162   163    2
   141     4     3    2
   142    71    70    2
   143   129   130    1
   144    65    67   am
   145    65    64    1
   146     3     2    1
   147    70    69    1
   148    51    50    1
   149    63    64    1
   150    63    60    1
   151     1     2    1
   152     2     5    1
   153    62    61    2
   154    48    47    2
   155    75    77   ar
   156    75    73   ar
   157    61    60    1
   158    61    68   am
   159    77    78   ar
   160    69    68    1
   161    69    72    1
   162    60    59    1
   163    50    52    1
   164    50    49    1
   165     5     6    1
   166    59    55   am
   167    72    73    1
   168    73    74   ar
   169    78    76   ar
   170    47    46    1
   171    47    53   am
   172    49    46    1
   173    46    45    1
   174     6     7    1
   175    74    76   ar
   176    39    38    2
   177    55    54    1
   178    55    56    2
   179    54    53    1
   180    54    57    1
   181    45    38   am
   182    38    37    1
   183     7     8    1
   184    57    58    1
   185    10     9    1
   186    40    37    1
   187    40    41    1
   188    37    36    1
   189     8     9    2
   190     9    11    1
   191    35    34    1
   192    43    42    2
   193    33    32    2
   194    36    32   am
   195    42    41    1
   196    42    44   am
   197    32    31    1
   198    34    31    1
   199    31    30    1
   200    30    25   am
   201    19    20    1
   202    25    26    2
   203    25    24    1
   204    20    21    1
   205    22    21    2
   206    21    23   am
   207    23    24    1
   208    24    27    1
   209    28    27    1
   210    27    29    1
