@<TRIPOS>MOLECULE
tmp/6dchA00.pdb
 159 157 0 0 0
SMALL
GASTEIGER

@<TRIPOS>ATOM
      1  N         -4.9730  -20.4190  185.0160 N.3    69  TYR69      -0.1241
      2  CA        -4.7010  -19.4350  183.9760 C.3    69  TYR69       0.1605
      3  C         -5.7520  -18.3260  183.9980 C.2    69  TYR69       0.2264
      4  O         -6.9490  -18.5790  184.1590 O.2    69  TYR69      -0.2867
      5  CB        -4.6570  -20.1100  182.6040 C.3    69  TYR69       0.0534
      6  CG        -4.0080  -19.2560  181.5430 C.ar   69  TYR69      -0.0201
      7  CD1       -2.6350  -19.0550  181.5250 C.ar   69  TYR69      -0.0009
      8  CD2       -4.7740  -18.6440  180.5610 C.ar   69  TYR69      -0.0009
      9  CE1       -2.0420  -18.2720  180.5610 C.ar   69  TYR69       0.0417
     10  CE2       -4.1970  -17.8720  179.5870 C.ar   69  TYR69       0.0417
     11  CZ        -2.8310  -17.6860  179.5920 C.ar   69  TYR69       0.1957
     12  OH        -2.2720  -16.8970  178.6260 O.3    69  TYR69      -0.2866
     13  N         -9.0890  -21.3390  178.6160 N.3    74  TYR74      -0.1241
     14  CA        -8.0360  -22.3560  178.6020 C.3    74  TYR74       0.1605
     15  C         -8.2330  -23.4370  179.6610 C.2    74  TYR74       0.2264
     16  O         -7.5040  -24.4290  179.6510 O.2    74  TYR74      -0.2867
     17  CB        -6.6670  -21.7050  178.8290 C.3    74  TYR74       0.0534
     18  CG        -6.1820  -20.7800  177.7280 C.ar   74  TYR74      -0.0201
     19  CD1       -6.6130  -19.4610  177.6580 C.ar   74  TYR74      -0.0009
     20  CD2       -5.2620  -21.2190  176.7880 C.ar   74  TYR74      -0.0009
     21  CE1       -6.1490  -18.6110  176.6620 C.ar   74  TYR74       0.0417
     22  CE2       -4.7920  -20.3810  175.7990 C.ar   74  TYR74       0.0417
     23  CZ        -5.2400  -19.0830  175.7410 C.ar   74  TYR74       0.1957
     24  OH        -4.7690  -18.2520  174.7450 O.3    74  TYR74      -0.2866
     25  N         -4.5750  -26.1000  182.6310 N.3    83  PHE83      -0.1241
     26  CA        -4.5870  -25.3970  181.3520 C.3    83  PHE83       0.1605
     27  C         -4.5680  -26.4390  180.2370 C.2    83  PHE83       0.2264
     28  O         -3.7800  -27.3870  180.2860 O.2    83  PHE83      -0.2867
     29  CB        -3.3500  -24.4910  181.3330 C.3    83  PHE83       0.0534
     30  CG        -3.0250  -23.8240  180.0110 C.ar   83  PHE83      -0.0203
     31  CD1       -2.5370  -24.5470  178.9270 C.ar   83  PHE83      -0.0042
     32  CD2       -3.0780  -22.4420  179.9170 C.ar   83  PHE83      -0.0042
     33  CE1       -2.1980  -23.9140  177.7420 C.ar   83  PHE83      -0.0003
     34  CE2       -2.7270  -21.7990  178.7520 C.ar   83  PHE83      -0.0003
     35  CZ        -2.2910  -22.5380  177.6540 C.ar   83  PHE83      -0.0000
     36  N         -1.4730  -23.4970  170.8490 N.3   100  THR100     -0.1203
     37  CA        -0.9000  -22.5800  171.8250 C.3   100  THR100      0.1994
     38  C          0.6270  -22.6700  171.8420 C.2   100  THR100      0.2618
     39  O          1.2190  -23.6900  171.4710 O.2   100  THR100     -0.2717
     40  CB        -1.4580  -22.8470  173.2220 C.3   100  THR100      0.1784
     41  OG1       -1.0340  -24.1370  173.6790 O.3   100  THR100     -0.2211
     42  CG2       -2.9790  -22.8020  173.2060 C.3   100  THR100      0.0376
     43  N          1.2570  -21.5670  172.2490 N.am  101  GLY101     -0.1956
     44  CA         2.6860  -21.5390  172.5110 C.3   101  GLY101      0.1869
     45  C          3.5780  -21.6950  171.2950 C.2   101  GLY101      0.2309
     46  O          4.6760  -22.2490  171.4140 O.2   101  GLY101     -0.2863
     47  N          5.6490  -19.8900  169.8040 N.3   103  PHE103     -0.1241
     48  CA         6.5810  -18.7740  169.9080 C.3   103  PHE103      0.1605
     49  C          7.4100  -18.9840  171.1670 C.2   103  PHE103      0.2264
     50  O          6.9520  -19.6210  172.1170 O.2   103  PHE103     -0.2867
     51  CB         5.8500  -17.4210  169.9670 C.3   103  PHE103      0.0534
     52  CG         4.7240  -17.3810  170.9800 C.ar  103  PHE103     -0.0203
     53  CD1        4.9740  -17.0080  172.2900 C.ar  103  PHE103     -0.0042
     54  CD2        3.4210  -17.7130  170.6160 C.ar  103  PHE103     -0.0042
     55  CE1        3.9470  -16.9690  173.2330 C.ar  103  PHE103     -0.0003
     56  CE2        2.3930  -17.6870  171.5490 C.ar  103  PHE103     -0.0003
     57  CZ         2.6530  -17.3090  172.8540 C.ar  103  PHE103     -0.0000
     58  N          8.8380  -18.4070  174.6650 N.3   105  HIS105     -0.1241
     59  CA         8.2860  -17.7280  175.8270 C.3   105  HIS105      0.1621
     60  C          8.6590  -18.4900  177.0850 C.2   105  HIS105      0.2264
     61  O          8.9840  -19.6840  177.0510 O.2   105  HIS105     -0.2867
     62  CB         6.7530  -17.5810  175.7150 C.3   105  HIS105      0.0745
     63  CG         6.0150  -18.8760  175.8410 C.ar  105  HIS105      0.0817
     64  ND1        5.9760  -19.8080  174.8260 N.ar  105  HIS105     -0.2268
     65  CD2        5.3090  -19.4080  176.8670 C.ar  105  HIS105      0.1154
     66  CE1        5.2820  -20.8600  175.2220 C.ar  105  HIS105      0.1986
     67  NE2        4.8680  -20.6440  176.4570 N.ar  105  HIS105     -0.2212
     68  N          6.5490  -19.0950  180.7800 N.3   107  ASP107     -0.1225
     69  CA         5.1530  -19.0050  181.1860 C.3   107  ASP107      0.1805
     70  C          4.9390  -17.8800  182.1940 C.2   107  ASP107      0.2597
     71  O          5.7590  -17.6480  183.0900 O.2   107  ASP107     -0.2718
     72  CB         4.6870  -20.3500  181.7300 C.3   107  ASP107      0.1424
     73  CG         4.7090  -21.4320  180.6590 C.2   107  ASP107      0.3668
     74  OD1        4.4820  -21.0990  179.4730 O.co2 107  ASP107     -0.2456
     75  OD2        4.9670  -22.6070  180.9860 O.co2 107  ASP107     -0.2456
     76  N          3.8520  -17.1350  181.9960 N.am  108  TYR108     -0.1976
     77  CA         3.4770  -15.9730  182.8070 C.3   108  TYR108      0.1639
     78  C          4.5520  -14.8910  182.8530 C.2   108  TYR108      0.2290
     79  O          4.5530  -14.0440  183.7570 O.2   108  TYR108     -0.2864
     80  CB         3.0920  -16.3910  184.2230 C.3   108  TYR108      0.0560
     81  CG         1.5960  -16.4370  184.4330 C.ar  108  TYR108     -0.0198
     82  CD1        0.7340  -16.7460  183.3760 C.ar  108  TYR108     -0.0009
     83  CD2        1.0450  -16.1640  185.6820 C.ar  108  TYR108     -0.0009
     84  CE1       -0.6360  -16.7890  183.5650 C.ar  108  TYR108      0.0417
     85  CE2       -0.3260  -16.2140  185.8810 C.ar  108  TYR108      0.0417
     86  CZ        -1.1580  -16.5250  184.8200 C.ar  108  TYR108      0.1957
     87  OH        -2.5230  -16.5560  185.0170 O.3   108  TYR108     -0.2866
     88  N          4.5500  -12.3760  181.1780 N.3   110  PHE110     -0.1241
     89  CA         3.8270  -11.1260  180.9890 C.3   110  PHE110      0.1605
     90  C          3.0390  -10.7110  182.2270 C.2   110  PHE110      0.2264
     91  O          2.2760   -9.7430  182.1610 O.2   110  PHE110     -0.2867
     92  CB         2.8880  -11.2630  179.7910 C.3   110  PHE110      0.0534
     93  CG         1.9140  -12.3950  179.9310 C.ar  110  PHE110     -0.0203
     94  CD1        2.2480  -13.6780  179.5050 C.ar  110  PHE110     -0.0042
     95  CD2        0.6650  -12.1840  180.5080 C.ar  110  PHE110     -0.0042
     96  CE1        1.3540  -14.7260  179.6620 C.ar  110  PHE110     -0.0003
     97  CE2       -0.2340  -13.2250  180.6650 C.ar  110  PHE110     -0.0003
     98  CZ         0.1040  -14.4980  180.2380 C.ar  110  PHE110     -0.0000
     99  N          1.6180   -9.6370  176.8360 N.3   161  VAL161     -0.1245
    100  CA         0.9240  -10.7070  176.1300 C.3   161  VAL161      0.1561
    101  C          0.2420  -10.1450  174.8850 C.2   161  VAL161      0.2260
    102  O         -0.4640  -10.8630  174.1720 O.2   161  VAL161     -0.2867
    103  CB        -0.0890  -11.3900  177.0650 C.3   161  VAL161      0.0252
    104  CG1       -1.2750  -10.4750  177.3080 C.3   161  VAL161      0.0019
    105  CG2       -0.5230  -12.7530  176.5220 C.3   161  VAL161      0.0019
    106  N          0.1700  -12.0530  171.3550 N.3   164  TYR164     -0.1227
    107  CA        -0.2810  -13.4200  171.1840 C.3   164  TYR164      0.1736
    108  C         -1.5960  -13.7230  171.8800 C.2   164  TYR164      0.2595
    109  O         -2.1130  -14.8300  171.7220 O.2   164  TYR164     -0.2718
    110  CB         0.8230  -14.3800  171.6330 C.3   164  TYR164      0.0548
    111  CG         1.9470  -14.3370  170.6270 C.ar  164  TYR164     -0.0200
    112  CD1        1.7390  -14.7820  169.3280 C.ar  164  TYR164     -0.0009
    113  CD2        3.1770  -13.7830  170.9380 C.ar  164  TYR164     -0.0009
    114  CE1        2.7410  -14.7150  168.3740 C.ar  164  TYR164      0.0417
    115  CE2        4.1920  -13.7120  169.9840 C.ar  164  TYR164      0.0417
    116  CZ         3.9630  -14.1820  168.7070 C.ar  164  TYR164      0.1957
    117  OH         4.9460  -14.1250  167.7460 O.3   164  TYR164     -0.2866
    118  N         -2.1570  -12.7580  172.6100 N.am  165  PHE165     -0.1962
    119  CA        -3.4930  -12.8780  173.1740 C.3   165  PHE165      0.1771
    120  C         -4.4770  -13.4110  172.1410 C.2   165  PHE165      0.2619
    121  O         -4.5850  -12.8650  171.0450 O.2   165  PHE165     -0.2715
    122  CB        -3.9690  -11.5110  173.6620 C.3   165  PHE165      0.0574
    123  CG        -5.2940  -11.5590  174.3630 C.ar  165  PHE165     -0.0200
    124  CD1       -5.3690  -11.9170  175.7020 C.ar  165  PHE165     -0.0042
    125  CD2       -6.4660  -11.2680  173.6830 C.ar  165  PHE165     -0.0042
    126  CE1       -6.5970  -11.9690  176.3560 C.ar  165  PHE165     -0.0003
    127  CE2       -7.6970  -11.3110  174.3280 C.ar  165  PHE165     -0.0003
    128  CZ        -7.7670  -11.6700  175.6590 C.ar  165  PHE165     -0.0000
    129  N         -5.2300  -14.4490  172.5050 N.am  166  LYS166     -0.1977
    130  CA        -6.1080  -15.1010  171.5460 C.3   166  LYS166      0.1596
    131  C         -7.5470  -14.6150  171.6830 C.2   166  LYS166      0.2287
    132  O         -8.0770  -14.4840  172.7930 O.2   166  LYS166     -0.2864
    133  CB        -6.0480  -16.6240  171.7000 C.3   166  LYS166      0.0298
    134  CG        -4.8000  -17.2410  171.0770 C.3   166  LYS166      0.0038
    135  CD        -4.7590  -18.7200  171.3840 C.3   166  LYS166      0.0206
    136  CE        -3.5530  -19.4050  170.7770 C.3   166  LYS166      0.1093
    137  NZ        -3.7480  -19.5930  169.3260 N.3   166  LYS166     -0.1314
    138  N          7.1680  -12.6000  174.3020 N.3   212  PHE212     -0.1241
    139  CA         6.5780  -11.6870  175.2740 C.3   212  PHE212      0.1605
    140  C          7.3850  -10.4210  175.5350 C.2   212  PHE212      0.2264
    141  O          6.8090   -9.4380  176.0040 O.2   212  PHE212     -0.2867
    142  CB         6.3530  -12.3990  176.6170 C.3   212  PHE212      0.0534
    143  CG         5.2490  -13.4140  176.5810 C.ar  212  PHE212     -0.0203
    144  CD1        4.0930  -13.1770  175.8510 C.ar  212  PHE212     -0.0042
    145  CD2        5.3660  -14.6090  177.2800 C.ar  212  PHE212     -0.0042
    146  CE1        3.0600  -14.1190  175.8230 C.ar  212  PHE212     -0.0003
    147  CE2        4.3400  -15.5590  177.2540 C.ar  212  PHE212     -0.0003
    148  CZ         3.1870  -15.3140  176.5330 C.ar  212  PHE212     -0.0000
    149  N         -1.5860  -28.6660  181.2820 N.3   283  ARG283     -0.1245
    150  CA        -0.5310  -27.8850  181.9180 C.3   283  ARG283      0.1563
    151  C         -0.9490  -27.4870  183.3310 C.2   283  ARG283      0.2260
    152  O         -2.0700  -27.0200  183.5440 O.2   283  ARG283     -0.2867
    153  CB        -0.1950  -26.6340  181.1030 C.3   283  ARG283      0.0307
    154  CG         1.0470  -25.8860  181.6070 C.3   283  ARG283      0.0489
    155  CD         1.2860  -24.6210  180.7730 C.3   283  ARG283      0.2205
    156  NE         0.5580  -23.4890  181.3380 N.pl3 283  ARG283     -0.0865
    157  CZ         0.7350  -22.2310  180.9550 C.cat 283  ARG283      0.5346
    158  NH1        1.6160  -21.9460  179.9950 N.pl3 283  ARG283      0.1354
    159  NH2        0.0430  -21.2590  181.5420 N.pl3 283  ARG283      0.1354
@<TRIPOS>BOND
     1   117   116    1
     2   114   116   ar
     3   114   112   ar
     4   116   115   ar
     5   137   136    1
     6   112   111   ar
     7    47    48    1
     8    48    51    1
     9    48    49    1
    10    51    52    1
    11   115   113   ar
    12    54    52   ar
    13    54    56   ar
    14   111   113   ar
    15   111   110    1
    16   136   135    1
    17    36    37    1
    18    52    53   ar
    19   121   120    2
    20   134   135    1
    21   134   133    1
    22    49    50    2
    23   107   106    1
    24   107   110    1
    25   107   108    1
    26    45    46    2
    27    45    44    1
    28    39    38    2
    29   130   131    1
    30   130   133    1
    31   130   129    1
    32    56    57   ar
    33   131   132    2
    34   109   108    2
    35    37    38    1
    36    37    40    1
    37    38    43   am
    38   108   118   am
    39   120   129   am
    40   120   119    1
    41    43    44    1
    42    53    55   ar
    43   118   119    1
    44    57    55   ar
    45   119   122    1
    46    42    40    1
    47    40    41    1
    48   122   123    1
    49   125   127   ar
    50   125   123   ar
    51   102   101    2
    52   138   139    1
    53   127   128   ar
    54   123   124   ar
    55    58    59    1
    56    24    23    1
    57    64    66   ar
    58    64    63   ar
    59   101   100    1
    60    66    67   ar
    61   139   140    1
    62   139   142    1
    63   140   141    2
    64   128   126   ar
    65   124   126   ar
    66    62    59    1
    67    62    63    1
    68    23    22   ar
    69    23    21   ar
    70    22    20   ar
    71   146   144   ar
    72   146   148   ar
    73    59    60    1
    74    63    65   ar
    75   144   143   ar
    76   100    99    1
    77   100   103    1
    78    67    65   ar
    79   105   103    1
    80   148   147   ar
    81   143   142    1
    82   143   145   ar
    83    21    19   ar
    84    20    18   ar
    85    61    60    2
    86   103   104    1
    87   147   145   ar
    88    35    33   ar
    89    35    34   ar
    90    19    18   ar
    91    18    17    1
    92    33    31   ar
    93    14    13    1
    94    14    17    1
    95    14    15    1
    96    12    11    1
    97    34    32   ar
    98    31    30   ar
    99    74    73   ar
   100    94    96   ar
   101    94    93   ar
   102    10    11   ar
   103    10     8   ar
   104    11     9   ar
   105    16    15    2
   106    96    98   ar
   107    92    93    1
   108    92    89    1
   109    32    30   ar
   110    93    95   ar
   111   158   157    1
   112    30    29    1
   113    27    28    2
   114    27    26    1
   115    98    97   ar
   116    95    97   ar
   117     9     7   ar
   118     8     6   ar
   119    73    75   ar
   120    73    72    1
   121   155   156    1
   122   155   154    1
   123    68    69    1
   124   157   156    2
   125   157   159    1
   126    89    88    1
   127    89    90    1
   128   153   154    1
   129   153   150    1
   130    69    72    1
   131    69    70    1
   132   149   150    1
   133    29    26    1
   134    26    25    1
   135     7     6   ar
   136     6     5    1
   137   150   151    1
   138    76    70   am
   139    76    77    1
   140    91    90    2
   141    70    71    2
   142     5     2    1
   143    77    78    1
   144    77    80    1
   145    78    79    2
   146   151   152    2
   147    82    84   ar
   148    82    81   ar
   149    84    86   ar
   150     2     3    1
   151     2     1    1
   152     3     4    2
   153    80    81    1
   154    81    83   ar
   155    86    87    1
   156    86    85   ar
   157    83    85   ar
