@<TRIPOS>MOLECULE
tmp/6dcyA00.pdb
 122 118 0 0 0
SMALL
GASTEIGER

@<TRIPOS>ATOM
      1  N        -26.6100   12.8540  131.6820 N.3    43  HIS43      -0.1241
      2  CA       -25.2970   13.2920  131.2210 C.3    43  HIS43       0.1621
      3  C        -24.3890   12.0790  130.9680 C.2    43  HIS43       0.2264
      4  O        -23.6510   12.0130  129.9460 O.2    43  HIS43      -0.2867
      5  CB       -24.6920   14.2500  132.2410 C.3    43  HIS43       0.0745
      6  CG       -23.3050   14.6960  131.9380 C.ar   43  HIS43       0.0817
      7  ND1      -22.1900   14.0660  132.4610 N.ar   43  HIS43      -0.2268
      8  CD2      -22.8390   15.7050  131.1630 C.ar   43  HIS43       0.1154
      9  CE1      -21.1010   14.6890  132.0470 C.ar   43  HIS43       0.1986
     10  NE2      -21.4750   15.7020  131.2650 N.ar   43  HIS43      -0.2212
     11  N        -15.3270   10.5240  131.7090 N.3    62  GLU62      -0.1245
     12  CA       -16.4550   10.5860  132.6150 C.3    62  GLU62       0.1567
     13  C        -16.8890    9.1610  132.9770 C.2    62  GLU62       0.2260
     14  O        -16.8710    8.2770  132.1350 O.2    62  GLU62      -0.2867
     15  CB       -17.6310   11.3150  131.9710 C.3    62  GLU62       0.0388
     16  CG       -18.7930   11.5230  132.9140 C.3    62  GLU62       0.1160
     17  CD       -18.5050   12.3710  134.1320 C.2    62  GLU62       0.3649
     18  OE1      -18.3030   11.7800  135.2180 O.co2  62  GLU62      -0.2457
     19  OE2      -18.5490   13.6290  134.0070 O.co2  62  GLU62      -0.2457
     20  N         -9.5840   20.6890  135.0160 N.3    87  PHE87      -0.1227
     21  CA       -10.7600   19.9140  135.3950 C.3    87  PHE87       0.1736
     22  C        -10.8460   18.6840  134.4780 C.2    87  PHE87       0.2595
     23  O        -10.4300   18.7130  133.3270 O.2    87  PHE87      -0.2718
     24  CB       -12.0320   20.7650  135.3050 C.3    87  PHE87       0.0547
     25  CG       -12.2010   21.7980  136.3950 C.ar   87  PHE87      -0.0202
     26  CD1      -12.0940   21.4490  137.7350 C.ar   87  PHE87      -0.0042
     27  CD2      -12.5060   23.1160  136.0830 C.ar   87  PHE87      -0.0042
     28  CE1      -12.2590   22.3990  138.7330 C.ar   87  PHE87      -0.0003
     29  CE2      -12.6780   24.0650  137.0830 C.ar   87  PHE87      -0.0003
     30  CZ       -12.5600   23.7050  138.4060 C.ar   87  PHE87      -0.0000
     31  N        -11.4010   17.5980  135.0020 N.am   88  LEU88      -0.1966
     32  CA       -11.5820   16.4150  134.2220 C.3    88  LEU88       0.1713
     33  C        -12.5970   16.6830  133.1170 C.2    88  LEU88       0.2458
     34  O        -13.7550   17.0300  133.3630 O.2    88  LEU88      -0.2730
     35  CB       -12.0240   15.2900  135.1580 C.3    88  LEU88       0.0310
     36  CG       -10.8790   14.6520  135.9420 C.3    88  LEU88       0.0022
     37  CD1      -11.4080   13.5990  136.8850 C.3    88  LEU88       0.0001
     38  CD2       -9.8280   14.0360  135.0310 C.3    88  LEU88       0.0001
     39  N        -12.2040   16.5680  131.8390 N.am   89  PRO89      -0.2716
     40  CA       -13.1950   16.5940  130.7760 C.3    89  PRO89       0.1536
     41  C        -13.9120   15.2330  130.7180 C.2    89  PRO89       0.2598
     42  O        -13.7680   14.4140  131.6090 O.2    89  PRO89      -0.2715
     43  CB       -12.3920   16.9490  129.5290 C.3    89  PRO89       0.0310
     44  CG       -10.9600   16.6110  129.8440 C.3    89  PRO89       0.0237
     45  CD       -10.8170   16.4770  131.3470 C.3    89  PRO89       0.0939
     46  N        -14.7180   15.0550  129.6730 N.am   90  ASP90      -0.1972
     47  CA       -15.6780   13.9730  129.5560 C.3    90  ASP90       0.1709
     48  C        -15.1100   12.8840  128.6290 C.2    90  ASP90       0.2293
     49  O        -15.3460   11.7280  128.8860 O.2    90  ASP90      -0.2864
     50  CB       -17.0190   14.5190  129.0570 C.3    90  ASP90       0.1436
     51  CG       -17.8320   15.2300  130.1280 C.2    90  ASP90       0.3671
     52  OD1      -17.8050   14.7550  131.2630 O.co2  90  ASP90      -0.2456
     53  OD2      -18.4930   16.2420  129.8080 O.co2  90  ASP90      -0.2456
     54  N        -15.5790   18.4740  126.4550 N.3   101  GLU101     -0.1231
     55  CA       -16.4850   18.6260  127.5440 C.3   101  GLU101      0.1699
     56  C        -17.9030   18.5870  126.9760 C.2   101  GLU101      0.2592
     57  O        -18.2520   19.4010  126.1390 O.2   101  GLU101     -0.2718
     58  CB       -16.2900   19.9550  128.2700 C.3   101  GLU101      0.0402
     59  CG       -17.3830   20.2150  129.3010 C.3   101  GLU101      0.1161
     60  CD       -17.4620   19.1630  130.3830 C.2   101  GLU101      0.3649
     61  OE1      -16.4020   18.6240  130.7050 O.co2 101  GLU101     -0.2457
     62  OE2      -18.5760   18.9140  130.9180 O.co2 101  GLU101     -0.2457
     63  N        -18.7060   17.6550  127.4900 N.am  102  ILE102     -0.1966
     64  CA       -20.0630   17.4680  127.0860 C.3   102  ILE102      0.1727
     65  C        -20.9670   18.1560  128.1040 C.2   102  ILE102      0.2617
     66  O        -20.8640   17.8130  129.3060 O.2   102  ILE102     -0.2715
     67  CB       -20.4100   15.9660  127.0410 C.3   102  ILE102      0.0290
     68  CG1      -19.6140   15.2120  125.9840 C.3   102  ILE102      0.0022
     69  CG2      -21.9040   15.7860  126.8450 C.3   102  ILE102      0.0023
     70  CD1      -20.0050   15.5640  124.5720 C.3   102  ILE102      0.0001
     71  N        -21.9020   18.9910  127.6150 N.am  103  GLY103     -0.1940
     72  CA       -22.9430   19.5600  128.4780 C.3   103  GLY103      0.2014
     73  C        -24.3430   19.1740  128.0370 C.2   103  GLY103      0.2638
     74  O        -24.6140   19.0870  126.8360 O.2   103  GLY103     -0.2714
     75  N        -25.2200   18.8990  129.0160 N.am  104  VAL104     -0.1977
     76  CA       -26.6240   18.6210  128.7700 C.3   104  VAL104      0.1596
     77  C        -27.4370   19.6070  129.6150 C.2   104  VAL104      0.2287
     78  O        -27.3020   19.6180  130.8510 O.2   104  VAL104     -0.2864
     79  CB       -27.0190   17.1690  129.1200 C.3   104  VAL104      0.0276
     80  CG1      -28.5130   16.9640  128.9410 C.3   104  VAL104      0.0022
     81  CG2      -26.2530   16.1380  128.3040 C.3   104  VAL104      0.0022
     82  N        -25.7950   27.9550  128.5070 N.3   112  TYR112     -0.1241
     83  CA       -25.0270   26.9350  129.1660 C.3   112  TYR112      0.1605
     84  C        -23.6270   26.8600  128.5290 C.2   112  TYR112      0.2264
     85  O        -22.6480   26.6900  129.2280 O.2   112  TYR112     -0.2867
     86  CB       -25.7670   25.5870  129.1580 C.3   112  TYR112      0.0534
     87  CG       -25.1530   24.5470  130.0610 C.ar  112  TYR112     -0.0201
     88  CD1      -24.8160   24.8340  131.3800 C.ar  112  TYR112     -0.0009
     89  CD2      -24.9200   23.2580  129.6090 C.ar  112  TYR112     -0.0009
     90  CE1      -24.2410   23.8830  132.2120 C.ar  112  TYR112      0.0417
     91  CE2      -24.3750   22.2880  130.4390 C.ar  112  TYR112      0.0417
     92  CZ       -24.0210   22.5990  131.7410 C.ar  112  TYR112      0.1957
     93  OH       -23.4770   21.6370  132.5450 O.3   112  TYR112     -0.2866
     94  N        -20.0950   27.1040  130.5490 N.3   116  LYS116     -0.1245
     95  CA       -19.0190   26.1280  130.5010 C.3   116  LYS116      0.1561
     96  C        -17.7160   26.7370  129.9900 C.2   116  LYS116      0.2260
     97  O        -16.6610   26.3310  130.4040 O.2   116  LYS116     -0.2867
     98  CB       -19.3230   25.0080  129.5050 C.3   116  LYS116      0.0271
     99  CG       -20.2720   23.9650  130.0320 C.3   116  LYS116      0.0035
    100  CD       -19.5810   22.9580  130.8760 C.3   116  LYS116      0.0206
    101  CE       -20.4420   21.7310  131.0590 C.3   116  LYS116      0.1093
    102  NZ       -20.1040   21.0760  132.3280 N.3   116  LYS116     -0.1314
    103  N        -16.2520   28.6370  132.7250 N.3   119  LYS119     -0.1245
    104  CA       -15.7280   27.7650  133.7830 C.3   119  LYS119      0.1561
    105  C        -14.3650   27.1610  133.4010 C.2   119  LYS119      0.2260
    106  O        -13.5380   26.9540  134.2540 O.2   119  LYS119     -0.2867
    107  CB       -16.7050   26.6370  134.1210 C.3   119  LYS119      0.0271
    108  CG       -16.1880   25.7000  135.1980 C.3   119  LYS119      0.0035
    109  CD       -17.2730   24.9540  135.9530 C.3   119  LYS119      0.0206
    110  CE       -16.7160   24.1350  137.1010 C.3   119  LYS119      0.1093
    111  NZ       -17.7730   23.7770  138.0740 N.3   119  LYS119     -0.1314
    112  N        -29.3100   20.5650  137.8050 N.3   176  ARG176     -0.1245
    113  CA       -28.3180   19.4540  138.0060 C.3   176  ARG176      0.1563
    114  C        -28.3130   19.1310  139.4970 C.2   176  ARG176      0.2260
    115  O        -28.8310   19.9270  140.2870 O.2   176  ARG176     -0.2867
    116  CB       -26.8830   19.7840  137.5490 C.3   176  ARG176      0.0307
    117  CG       -26.6130   19.7590  136.0430 C.3   176  ARG176      0.0489
    118  CD       -26.6980   21.0710  135.2210 C.3   176  ARG176      0.2205
    119  NE       -27.7690   21.0940  134.1980 N.pl3 176  ARG176     -0.0865
    120  CZ       -28.2860   22.1770  133.5650 C.cat 176  ARG176      0.5346
    121  NH1      -29.4700   22.1020  132.9710 N.pl3 176  ARG176      0.1354
    122  NH2      -27.6320   23.3210  133.4970 N.pl3 176  ARG176      0.1354
@<TRIPOS>BOND
     1    70    68    1
     2    68    67    1
     3    57    56    2
     4    54    55    1
     5    74    73    2
     6    69    67    1
     7    56    63   am
     8    56    55    1
     9    67    64    1
    10    64    63    1
    11    64    65    1
    12    55    58    1
    13    71    65   am
    14    71    72    1
    15    73    72    1
    16    73    75   am
    17    65    66    2
    18    58    59    1
    19    81    79    1
    20    82    83    1
    21    84    83    1
    22    84    85    2
    23    48    49    2
    24    48    47    1
    25    76    75    1
    26    76    79    1
    27    76    77    1
    28    80    79    1
    29    50    47    1
    30    50    51    1
    31    86    83    1
    32    86    87    1
    33    59    60    1
    34    98    99    1
    35    98    95    1
    36    43    44    1
    37    43    40    1
    38    47    46    1
    39    89    87   ar
    40    89    91   ar
    41    77    78    2
    42    46    41   am
    43    53    51   ar
    44    44    45    1
    45     4     3    2
    46    96    97    2
    47    96    95    1
    48    99   100    1
    49    87    88   ar
    50    51    52   ar
    51    60    61   ar
    52    60    62   ar
    53    91    92   ar
    54    95    94    1
    55    41    40    1
    56    41    42    2
    57    40    39    1
    58   100   101    1
    59     3     2    1
    60   101   102    1
    61     8    10   ar
    62     8     6   ar
    63     2     1    1
    64     2     5    1
    65    10     9   ar
    66    45    39    1
    67    88    90   ar
    68    11    12    1
    69    92    90   ar
    70    92    93    1
    71    39    33   am
    72     6     5    1
    73     6     7   ar
    74    15    12    1
    75    15    16    1
    76     9     7   ar
    77    14    13    2
    78    12    13    1
    79   103   104    1
    80    16    17    1
    81   121   120    1
    82    33    34    2
    83    33    32    1
    84    23    22    2
    85   105   104    1
    86   105   106    2
    87   122   120    1
    88   120   119    2
    89   104   107    1
    90    19    17   ar
    91   107   108    1
    92    17    18   ar
    93   119   118    1
    94    32    31    1
    95    32    35    1
    96    22    31   am
    97    22    21    1
    98    20    21    1
    99    38    36    1
   100    35    36    1
   101   108   109    1
   102   118   117    1
   103    24    21    1
   104    24    25    1
   105    36    37    1
   106   109   110    1
   107   117   116    1
   108    27    25   ar
   109    27    29   ar
   110    25    26   ar
   111    29    30   ar
   112   110   111    1
   113   116   113    1
   114    26    28   ar
   115   112   113    1
   116   113   114    1
   117    30    28   ar
   118   114   115    2
