@<TRIPOS>MOLECULE
tmp/6dd5A00.pdb
 179 175 0 0 0
SMALL
GASTEIGER

@<TRIPOS>ATOM
      1  N         10.5700   34.6610  220.9210 N.3    12  ASN12      -0.1240
      2  CA        11.3150   35.7510  220.3020 C.3    12  ASN12       0.1653
      3  C         10.3920   36.6490  219.4820 C.2    12  ASN12       0.2266
      4  O          9.4030   36.1930  218.9000 O.2    12  ASN12      -0.2867
      5  CB        12.4110   35.2000  219.3970 C.3    12  ASN12       0.1155
      6  CG        13.5240   36.1950  219.1530 C.2    12  ASN12       0.2627
      7  OD1       13.9780   36.8680  220.0720 O.2    12  ASN12      -0.2716
      8  ND2       13.9470   36.3160  217.9020 N.am   12  ASN12      -0.0877
      9  N         10.6300   38.1280  216.6500 N.3    14  ASP14      -0.1225
     10  CA        10.4550   37.8720  215.2250 C.3    14  ASP14       0.1805
     11  C          9.4870   36.7260  214.9380 C.2    14  ASP14       0.2597
     12  O          9.0890   36.5440  213.7810 O.2    14  ASP14      -0.2718
     13  CB        11.8230   37.6170  214.5600 C.3    14  ASP14       0.1424
     14  CG        12.6450   36.5330  215.2640 C.2    14  ASP14       0.3668
     15  OD1       12.2160   36.0420  216.3310 O.co2  14  ASP14      -0.2456
     16  OD2       13.7430   36.1940  214.7600 O.co2  14  ASP14      -0.2456
     17  N          9.0790   35.9760  215.9550 N.am   15  LYS15      -0.1979
     18  CA         8.1680   34.8550  215.7980 C.3    15  LYS15       0.1596
     19  C          6.7170   35.3300  215.8790 C.2    15  LYS15       0.2287
     20  O          6.4300   36.4720  216.2340 O.2    15  LYS15      -0.2864
     21  CB         8.4430   33.8110  216.8740 C.3    15  LYS15       0.0298
     22  CG         9.8460   33.2450  216.8500 C.3    15  LYS15       0.0038
     23  CD        10.2200   32.8090  215.4670 C.3    15  LYS15       0.0206
     24  CE        11.5710   32.1270  215.4550 C.3    15  LYS15       0.1093
     25  NZ        12.6970   33.0610  215.6630 N.3    15  LYS15      -0.1314
     26  N         17.1780   34.8140  225.0820 N.3    44  GLU44      -0.1245
     27  CA        18.0110   33.6280  225.2230 C.3    44  GLU44       0.1567
     28  C         19.0940   33.8320  226.2660 C.2    44  GLU44       0.2260
     29  O         19.5600   32.8520  226.8600 O.2    44  GLU44      -0.2867
     30  CB        18.6280   33.2310  223.8790 C.3    44  GLU44       0.0388
     31  CG        19.8470   34.0150  223.4540 C.3    44  GLU44       0.1160
     32  CD        19.5020   35.3260  222.7810 C.2    44  GLU44       0.3649
     33  OE1       18.3710   35.8190  222.9600 O.co2  44  GLU44      -0.2457
     34  OE2       20.3610   35.8550  222.0470 O.co2  44  GLU44      -0.2457
     35  N         12.7500   28.7770  222.1670 N.3    62  TRP62      -0.1227
     36  CA        13.9570   29.1310  221.4370 C.3    62  TRP62       0.1737
     37  C         14.3980   27.9330  220.6180 C.2    62  TRP62       0.2595
     38  O         13.8950   26.8200  220.7870 O.2    62  TRP62      -0.2718
     39  CB        15.0830   29.5790  222.3720 C.3    62  TRP62       0.0564
     40  CG        16.1800   30.2910  221.6330 C.ar   62  TRP62       0.0003
     41  CD1       17.3350   29.7430  221.1430 C.ar   62  TRP62       0.0946
     42  CD2       16.2240   31.6800  221.2920 C.ar   62  TRP62       0.0152
     43  NE1       18.0900   30.7040  220.5200 N.ar   62  TRP62      -0.2442
     44  CE2       17.4320   31.9030  220.6000 C.ar   62  TRP62       0.0810
     45  CE3       15.3640   32.7600  221.5090 C.ar   62  TRP62       0.0012
     46  CZ2       17.7940   33.1610  220.1160 C.ar   62  TRP62       0.0191
     47  CZ3       15.7320   34.0090  221.0340 C.ar   62  TRP62       0.0001
     48  CH2       16.9310   34.1950  220.3470 C.ar   62  TRP62       0.0015
     49  N         15.3310   28.1850  219.7040 N.am   63  ALA63      -0.1980
     50  CA        15.9770   27.1020  218.9830 C.3    63  ALA63       0.1597
     51  C         16.6890   26.1680  219.9570 C.2    63  ALA63       0.2287
     52  O         17.2110   26.5870  220.9930 O.2    63  ALA63      -0.2864
     53  CB        16.9660   27.6550  217.9670 C.3    63  ALA63       0.0319
     54  N         19.4320   24.7500  220.2290 N.3    65  ASP65      -0.1225
     55  CA        20.8680   24.7610  220.5100 C.3    65  ASP65       0.1805
     56  C         21.1910   25.3690  221.8690 C.2    65  ASP65       0.2597
     57  O         22.2510   25.0770  222.4320 O.2    65  ASP65      -0.2718
     58  CB        21.6410   25.5020  219.4140 C.3    65  ASP65       0.1424
     59  CG        21.3440   26.9870  219.3810 C.2    65  ASP65       0.3668
     60  OD1       20.1680   27.3550  219.2180 O.co2  65  ASP65      -0.2456
     61  OD2       22.2860   27.7910  219.5260 O.co2  65  ASP65      -0.2456
     62  N         20.3170   26.2190  222.4030 N.am   66  ARG66      -0.1979
     63  CA        20.5250   26.7620  223.7390 C.3    66  ARG66       0.1597
     64  C         20.0800   25.8130  224.8480 C.2    66  ARG66       0.2287
     65  O         20.4230   26.0440  226.0090 O.2    66  ARG66      -0.2864
     66  CB        19.7790   28.0960  223.8880 C.3    66  ARG66       0.0334
     67  CG        20.2960   29.1960  222.9850 C.3    66  ARG66       0.0492
     68  CD        21.2870   30.0960  223.6920 C.3    66  ARG66       0.2205
     69  NE        22.1830   30.7610  222.7460 N.pl3  66  ARG66      -0.0865
     70  CZ        23.2270   31.4970  223.1180 C.cat  66  ARG66       0.5346
     71  NH1       23.4790   31.6490  224.4150 N.pl3  66  ARG66       0.1354
     72  NH2       24.0270   32.0570  222.2090 N.pl3  66  ARG66       0.1354
     73  N         13.9220   25.3600  211.4360 N.3   111  GLU111     -0.1245
     74  CA        14.2300   26.6630  210.8570 C.3   111  GLU111      0.1567
     75  C         15.5400   26.6090  210.0820 C.2   111  GLU111      0.2260
     76  O         16.5630   26.1710  210.6200 O.2   111  GLU111     -0.2867
     77  CB        14.3590   27.7200  211.9480 C.3   111  GLU111      0.0388
     78  CG        13.1750   27.8460  212.8550 C.3   111  GLU111      0.1160
     79  CD        13.4380   28.8280  213.9850 C.2   111  GLU111      0.3649
     80  OE1       14.6270   29.0310  214.3390 O.co2 111  GLU111     -0.2457
     81  OE2       12.4590   29.3920  214.5130 O.co2 111  GLU111     -0.2457
     82  N         24.5290   39.0410  213.7230 N.3   153  GLU153     -0.1231
     83  CA        24.3400   37.7400  214.3460 C.3   153  GLU153      0.1684
     84  C         25.0300   36.6840  213.4940 C.2   153  GLU153      0.2434
     85  O         24.7370   36.5790  212.2890 O.2   153  GLU153     -0.2733
     86  CB        22.8540   37.4280  214.4900 C.3   153  GLU153      0.0402
     87  CG        22.1100   38.2290  215.5460 C.3   153  GLU153      0.1161
     88  CD        22.6680   38.0420  216.9480 C.2   153  GLU153      0.3649
     89  OE1       23.1670   36.9390  217.2640 O.co2 153  GLU153     -0.2457
     90  OE2       22.5590   38.9860  217.7560 O.co2 153  GLU153     -0.2457
     91  N         25.9470   35.8940  214.0590 N.am  154  PRO154     -0.2718
     92  CA        26.7010   34.9330  213.2360 C.3   154  PRO154      0.1535
     93  C         25.8360   33.8550  212.6140 C.2   154  PRO154      0.2599
     94  O         26.2930   33.1670  211.6900 O.2   154  PRO154     -0.2715
     95  CB        27.7210   34.3520  214.2200 C.3   154  PRO154      0.0310
     96  CG        27.1570   34.6390  215.5670 C.3   154  PRO154      0.0237
     97  CD        26.3930   35.9010  215.4610 C.3   154  PRO154      0.0939
     98  N         24.6070   33.6740  213.1060 N.am  155  TYR155     -0.1960
     99  CA        23.6560   32.7720  212.4640 C.3   155  TYR155      0.1771
    100  C         23.5740   33.0190  210.9600 C.2   155  TYR155      0.2619
    101  O         23.4900   32.0700  210.1760 O.2   155  TYR155     -0.2715
    102  CB        22.2890   32.9640  213.1130 C.3   155  TYR155      0.0574
    103  CG        21.1950   32.0230  212.6790 C.ar  155  TYR155     -0.0198
    104  CD1       21.1730   30.7170  213.1180 C.ar  155  TYR155     -0.0009
    105  CD2       20.1700   32.4530  211.8430 C.ar  155  TYR155     -0.0009
    106  CE1       20.1670   29.8580  212.7410 C.ar  155  TYR155      0.0417
    107  CE2       19.1530   31.5950  211.4550 C.ar  155  TYR155      0.0417
    108  CZ        19.1610   30.2960  211.9100 C.ar  155  TYR155      0.1957
    109  OH        18.1760   29.4100  211.5460 O.3   155  TYR155     -0.2866
    110  N         23.6260   34.2930  210.5370 N.am  156  PHE156     -0.1974
    111  CA        23.4350   34.6630  209.1390 C.3   156  PHE156      0.1639
    112  C         24.7070   34.5940  208.3160 C.2   156  PHE156      0.2290
    113  O         24.6270   34.4590  207.0870 O.2   156  PHE156     -0.2864
    114  CB        22.8590   36.0780  209.0310 C.3   156  PHE156      0.0560
    115  CG        21.4870   36.2220  209.6280 C.ar  156  PHE156     -0.0200
    116  CD1       20.3560   36.1060  208.8310 C.ar  156  PHE156     -0.0042
    117  CD2       21.3260   36.4800  210.9750 C.ar  156  PHE156     -0.0042
    118  CE1       19.0900   36.2390  209.3720 C.ar  156  PHE156     -0.0003
    119  CE2       20.0690   36.6060  211.5200 C.ar  156  PHE156     -0.0003
    120  CZ        18.9500   36.4930  210.7190 C.ar  156  PHE156     -0.0000
    121  N         10.0770   32.9490  209.3260 N.3   230  TRP230     -0.1241
    122  CA         9.3290   33.9550  210.0770 C.3   230  TRP230      0.1605
    123  C          9.2540   35.2760  209.3190 C.2   230  TRP230      0.2264
    124  O          8.2720   36.0130  209.4530 O.2   230  TRP230     -0.2867
    125  CB         9.9730   34.1710  211.4450 C.3   230  TRP230      0.0550
    126  CG        11.4420   34.4900  211.3370 C.ar  230  TRP230      0.0003
    127  CD1       12.0040   35.7210  211.1570 C.ar  230  TRP230      0.0946
    128  CD2       12.5290   33.5540  211.3700 C.ar  230  TRP230      0.0152
    129  NE1       13.3710   35.6100  211.0820 N.ar  230  TRP230     -0.2442
    130  CE2       13.7180   34.2900  211.2100 C.ar  230  TRP230      0.0810
    131  CE3       12.6120   32.1710  211.5320 C.ar  230  TRP230      0.0012
    132  CZ2       14.9770   33.6840  211.2060 C.ar  230  TRP230      0.0191
    133  CZ3       13.8590   31.5720  211.5230 C.ar  230  TRP230      0.0001
    134  CH2       15.0260   32.3290  211.3590 C.ar  230  TRP230      0.0015
    135  N         18.1330   25.1270  213.0900 N.3   260  GLY260     -0.1225
    136  CA        17.6170   25.1370  214.4460 C.3   260  GLY260      0.1811
    137  C         16.2220   24.5550  214.5310 C.2   260  GLY260      0.2280
    138  O         15.4230   24.6820  213.6010 O.2   260  GLY260     -0.2866
    139  N         13.0880   25.1910  216.6130 N.3   262  LEU262     -0.1245
    140  CA        12.3320   25.9800  217.5780 C.3   262  LEU262      0.1561
    141  C         11.6350   25.0530  218.5550 C.2   262  LEU262      0.2260
    142  O         10.8910   24.1540  218.1490 O.2   262  LEU262     -0.2867
    143  CB        11.3090   26.8570  216.8620 C.3   262  LEU262      0.0270
    144  CG        10.4790   27.7530  217.7760 C.3   262  LEU262      0.0019
    145  CD1       11.3630   28.7440  218.5160 C.3   262  LEU262      0.0001
    146  CD2        9.4040   28.4680  216.9770 C.3   262  LEU262      0.0001
    147  N         21.9970   21.9070  214.6300 N.3   330  MET330     -0.1245
    148  CA        22.9680   22.3590  215.6110 C.3   330  MET330      0.1570
    149  C         23.1060   21.3460  216.7420 C.2   330  MET330      0.2261
    150  O         22.1400   20.6720  217.1100 O.2   330  MET330     -0.2867
    151  CB        22.5700   23.7150  216.1870 C.3   330  MET330      0.0387
    152  CG        22.6080   24.8340  215.1710 C.3   330  MET330      0.0595
    153  SD        22.2150   26.4340  215.8700 S.3   330  MET330     -0.1393
    154  CE        20.4470   26.3970  215.8970 C.3   330  MET330      0.0692
    155  N         28.9570   30.4640  219.7150 N.3   340  TRP340     -0.1241
    156  CA        28.2810   31.5960  219.0870 C.3   340  TRP340      0.1605
    157  C         28.8460   32.9280  219.5620 C.2   340  TRP340      0.2264
    158  O         28.8690   33.9000  218.7980 O.2   340  TRP340     -0.2867
    159  CB        26.7780   31.5370  219.3360 C.3   340  TRP340      0.0550
    160  CG        25.9920   30.5360  218.4880 C.ar  340  TRP340      0.0003
    161  CD1       25.1660   29.5490  218.9490 C.ar  340  TRP340      0.0946
    162  CD2       25.9520   30.4470  217.0500 C.ar  340  TRP340      0.0152
    163  NE1       24.6080   28.8690  217.9000 N.ar  340  TRP340     -0.2442
    164  CE2       25.0750   29.3940  216.7230 C.ar  340  TRP340      0.0810
    165  CE3       26.5690   31.1540  216.0120 C.ar  340  TRP340      0.0012
    166  CZ2       24.7970   29.0310  215.3980 C.ar  340  TRP340      0.0191
    167  CZ3       26.2950   30.7870  214.6990 C.ar  340  TRP340      0.0001
    168  CH2       25.4150   29.7360  214.4070 C.ar  340  TRP340      0.0015
    169  N         30.4380   35.4520  216.8270 N.3   344  ARG344     -0.1245
    170  CA        29.8550   36.7910  216.7820 C.3   344  ARG344      0.1563
    171  C         30.9510   37.8490  216.8550 C.2   344  ARG344      0.2260
    172  O         30.9970   38.7770  216.0350 O.2   344  ARG344     -0.2867
    173  CB        28.8510   36.9790  217.9310 C.3   344  ARG344      0.0307
    174  CG        28.1030   38.3480  217.9800 C.3   344  ARG344      0.0489
    175  CD        27.1820   38.4950  219.2330 C.3   344  ARG344      0.2205
    176  NE        26.6830   37.2010  219.6890 N.pl3 344  ARG344     -0.0865
    177  CZ        25.4020   36.8790  219.9200 C.cat 344  ARG344      0.5346
    178  NH1       24.4500   37.7970  219.7460 N.pl3 344  ARG344      0.1354
    179  NH2       25.0560   35.6540  220.3180 N.pl3 344  ARG344      0.1354
@<TRIPOS>BOND
     1   113   112    2
     2   112   111    1
     3   116   118   ar
     4   116   115   ar
     5   114   111    1
     6   114   115    1
     7   111   110    1
     8   123   124    2
     9   123   122    1
    10   121   122    1
    11   118   120   ar
    12   115   117   ar
    13   122   125    1
    14    75    76    2
    15    75    74    1
    16   101   100    2
    17   110   100   am
    18   120   119   ar
    19    74    73    1
    20    74    77    1
    21   100    99    1
    22   117   119   ar
    23   129   127   ar
    24   129   130   ar
    25   127   126   ar
    26   132   130   ar
    27   132   134   ar
    28   130   128   ar
    29   126   128   ar
    30   126   125    1
    31   134   133   ar
    32   128   131   ar
    33   107   105   ar
    34   107   108   ar
    35   133   131   ar
    36   109   108    1
    37    94    93    2
    38   105   103   ar
    39   108   106   ar
    40    77    78    1
    41    85    84    2
    42    99    98    1
    43    99   102    1
    44    93    98   am
    45    93    92    1
    46   103   102    1
    47   103   104   ar
    48   106   104   ar
    49    78    79    1
    50   135   136    1
    51    92    91    1
    52    92    95    1
    53    84    91   am
    54    84    83    1
    55   138   137    2
    56    82    83    1
    57    12    11    2
    58    79    80   ar
    59    79    81   ar
    60    91    97    1
    61    95    96    1
    62    83    86    1
    63   168   167   ar
    64   168   166   ar
    65   136   137    1
    66    86    87    1
    67    13    10    1
    68    13    14    1
    69   147   148    1
    70   167   165   ar
    71    16    14   ar
    72    11    10    1
    73    11    17   am
    74   152   153    1
    75   152   151    1
    76    10     9    1
    77    14    15   ar
    78   166   164   ar
    79    24    23    1
    80    24    25    1
    81    97    96    1
    82    23    22    1
    83    87    88    1
    84   148   151    1
    85   148   149    1
    86    18    19    1
    87    18    17    1
    88    18    21    1
    89   153   154    1
    90    19    20    2
    91   165   162   ar
    92   172   171    2
    93   139   140    1
    94   164   162   ar
    95   164   163   ar
    96   149   150    2
    97   170   169    1
    98   170   171    1
    99   170   173    1
   100    22    21    1
   101   143   140    1
   102   143   144    1
   103    88    89   ar
   104    88    90   ar
   105   146   144    1
   106   162   160   ar
   107   140   141    1
   108   144   145    1
   109   163   161   ar
   110     8     6   am
   111   173   174    1
   112    53    50    1
   113   174   175    1
   114   142   141    2
   115   160   161   ar
   116   160   159    1
   117   158   157    2
   118     4     3    2
   119    50    49    1
   120    50    51    1
   121   156   159    1
   122   156   157    1
   123   156   155    1
   124     6     5    1
   125     6     7    2
   126    60    59   ar
   127   175   176    1
   128    59    58    1
   129    59    61   ar
   130     5     2    1
   131    58    55    1
   132     3     2    1
   133   176   177    2
   134    49    37   am
   135   178   177    1
   136   177   179    1
   137    51    52    2
   138    46    48   ar
   139    46    44   ar
   140    54    55    1
   141     2     1    1
   142    48    47   ar
   143    55    56    1
   144    43    44   ar
   145    43    41   ar
   146    44    42   ar
   147    37    38    2
   148    37    36    1
   149    47    45   ar
   150    41    40   ar
   151    42    45   ar
   152    42    40   ar
   153    36    35    1
   154    36    39    1
   155    40    39    1
   156    56    62   am
   157    56    57    2
   158    34    32   ar
   159    72    70    1
   160    62    63    1
   161    69    70    2
   162    69    68    1
   163    32    33   ar
   164    32    31    1
   165    67    68    1
   166    67    66    1
   167    70    71    1
   168    31    30    1
   169    63    66    1
   170    63    64    1
   171    30    27    1
   172    64    65    2
   173    26    27    1
   174    27    28    1
   175    28    29    2
