@<TRIPOS>MOLECULE
tmp/6ddhA00.pdb
 179 173 0 0 0
SMALL
GASTEIGER

@<TRIPOS>ATOM
      1  N         11.3910   22.6810   44.9650 N.3    50  ASN50      -0.1225
      2  CA        10.6480   21.6740   44.2210 C.3    50  ASN50       0.1785
      3  C         10.4270   22.1940   42.7990 C.2    50  ASN50       0.2597
      4  O         10.8250   23.3140   42.4560 O.2    50  ASN50      -0.2718
      5  CB         9.3210   21.3340   44.8960 C.3    50  ASN50       0.1169
      6  CG         8.2490   22.3540   44.5920 C.2    50  ASN50       0.2627
      7  OD1        8.4580   23.5530   44.7750 O.2    50  ASN50      -0.2716
      8  ND2        7.0970   21.8900   44.1170 N.am   50  ASN50      -0.0877
      9  N          9.7800   21.3890   41.9530 N.am   51  MET51      -0.1965
     10  CA         9.5970   21.7700   40.5520 C.3    51  MET51       0.1736
     11  C          8.1770   22.2320   40.2360 C.2    51  MET51       0.2616
     12  O          7.9900   23.3470   39.7410 O.2    51  MET51      -0.2715
     13  CB         9.9740   20.6210   39.6130 C.3    51  MET51       0.0427
     14  CG         9.9180   21.0590   38.1640 C.3    51  MET51       0.0599
     15  SD        10.3450   19.7540   37.0050 S.3    51  MET51      -0.1393
     16  CE         9.0810   18.5410   37.4100 C.3    51  MET51       0.0692
     17  N          7.1750   21.3840   40.4890 N.am   52  ASP52      -0.1971
     18  CA         5.8040   21.6700   40.0590 C.3    52  ASP52       0.1709
     19  C          5.2550   22.9210   40.7330 C.2    52  ASP52       0.2293
     20  O          5.2970   23.0520   41.9570 O.2    52  ASP52      -0.2864
     21  CB         4.9040   20.4750   40.3540 C.3    52  ASP52       0.1436
     22  CG         5.3330   19.2210   39.6090 C.2    52  ASP52       0.3671
     23  OD1        5.4180   19.2810   38.3610 O.co2  52  ASP52      -0.2456
     24  OD2        5.5740   18.1830   40.3030 O.co2  52  ASP52      -0.2456
     25  N         -4.3490   24.0460   32.3450 N.3    63  TYR63      -0.1241
     26  CA        -3.7720   22.8320   32.8930 C.3    63  TYR63       0.1605
     27  C         -4.7270   22.1490   33.8670 C.2    63  TYR63       0.2264
     28  O         -4.8350   20.9190   33.8580 O.2    63  TYR63      -0.2867
     29  CB        -2.4390   23.1590   33.5540 C.3    63  TYR63       0.0534
     30  CG        -1.7230   21.9530   34.0990 C.ar   63  TYR63      -0.0201
     31  CD1       -1.0070   21.1170   33.2530 C.ar   63  TYR63      -0.0009
     32  CD2       -1.7680   21.6460   35.4600 C.ar   63  TYR63      -0.0009
     33  CE1       -0.3540   20.0140   33.7290 C.ar   63  TYR63       0.0417
     34  CE2       -1.1090   20.5520   35.9490 C.ar   63  TYR63       0.0417
     35  CZ        -0.4020   19.7380   35.0780 C.ar   63  TYR63       0.1957
     36  OH         0.2500   18.6410   35.5520 O.3    63  TYR63      -0.2866
     37  N         -3.5790   21.3950   47.3380 N.3   153  THR153     -0.1218
     38  CA        -2.6620   21.6690   46.2440 C.3   153  THR153      0.1862
     39  C         -3.4110   22.2480   45.0630 C.2   153  THR153      0.2287
     40  O         -4.6320   22.1120   44.9390 O.2   153  THR153     -0.2866
     41  CB        -1.9350   20.3980   45.8220 C.3   153  THR153      0.1770
     42  OG1       -2.8570   19.5500   45.1340 O.3   153  THR153     -0.2211
     43  CG2       -1.4420   19.6710   47.0850 C.3   153  THR153      0.0375
     44  N         -2.9180   21.0050   42.2450 N.3   155  PHE155     -0.1227
     45  CA        -3.3240   19.7890   41.5550 C.3   155  PHE155      0.1736
     46  C         -4.7110   19.3390   41.9950 C.2   155  PHE155      0.2595
     47  O         -5.4280   18.7120   41.2120 O.2   155  PHE155     -0.2718
     48  CB        -2.2920   18.6920   41.7940 C.3   155  PHE155      0.0547
     49  CG        -0.9600   18.9630   41.1490 C.ar  155  PHE155     -0.0202
     50  CD1       -0.8360   18.9740   39.7650 C.ar  155  PHE155     -0.0042
     51  CD2        0.1720   19.2040   41.9210 C.ar  155  PHE155     -0.0042
     52  CE1        0.3950   19.2150   39.1540 C.ar  155  PHE155     -0.0003
     53  CE2        1.4050   19.4450   41.3180 C.ar  155  PHE155     -0.0003
     54  CZ         1.5100   19.4460   39.9240 C.ar  155  PHE155     -0.0000
     55  N         -5.1060   19.6510   43.2390 N.am  156  ASN156     -0.1974
     56  CA        -6.4460   19.3440   43.7420 C.3   156  ASN156      0.1688
     57  C         -7.5360   20.2340   43.1450 C.2   156  ASN156      0.2292
     58  O         -8.7170   19.9860   43.4080 O.2   156  ASN156     -0.2864
     59  CB        -6.5120   19.4880   45.2760 C.3   156  ASN156      0.1181
     60  CG        -5.5560   18.5510   46.0090 C.2   156  ASN156      0.2629
     61  OD1       -4.8170   18.9720   46.8990 O.2   156  ASN156     -0.2716
     62  ND2       -5.5710   17.2760   45.6370 N.am  156  ASN156     -0.0877
     63  N        -10.0720   10.4120   43.8850 N.3   200  ARG200     -0.1245
     64  CA        -8.6590   10.4390   44.2650 C.3   200  ARG200      0.1563
     65  C         -7.8580    9.4390   43.4470 C.2   200  ARG200      0.2260
     66  O         -6.7900    9.7670   42.9170 O.2   200  ARG200     -0.2867
     67  CB        -8.4920   10.1260   45.7530 C.3   200  ARG200      0.0307
     68  CG        -8.7430   11.2830   46.6470 C.3   200  ARG200      0.0489
     69  CD        -7.4610   12.0290   46.9680 C.3   200  ARG200      0.2205
     70  NE        -7.0270   12.9430   45.9130 N.pl3 200  ARG200     -0.0865
     71  CZ        -5.9070   12.7860   45.2150 C.cat 200  ARG200      0.5346
     72  NH1       -5.1140   11.7540   45.4550 N.pl3 200  ARG200      0.1354
     73  NH2       -5.5710   13.6590   44.2830 N.pl3 200  ARG200      0.1354
     74  N         -7.4480   10.6850   39.8610 N.3   203  VAL203     -0.1231
     75  CA        -6.4370   11.7380   39.7460 C.3   203  VAL203      0.1692
     76  C         -5.0400   11.1280   39.8110 C.2   203  VAL203      0.2592
     77  O         -4.2090   11.3490   38.9210 O.2   203  VAL203     -0.2718
     78  CB        -6.6360   12.8270   40.8210 C.3   203  VAL203      0.0266
     79  CG1       -5.4920   13.8630   40.7510 C.3   203  VAL203      0.0020
     80  CG2       -7.9610   13.5300   40.6330 C.3   203  VAL203      0.0020
     81  N         -4.7730   10.3280   40.8550 N.am  204  ASP204     -0.1974
     82  CA        -3.4950    9.6170   40.9590 C.3   204  ASP204      0.1709
     83  C         -3.1620    8.8690   39.6760 C.2   204  ASP204      0.2293
     84  O         -2.0340    8.9560   39.1760 O.2   204  ASP204     -0.2864
     85  CB        -3.5130    8.6350   42.1350 C.3   204  ASP204      0.1436
     86  CG        -3.3630    9.3230   43.4820 C.2   204  ASP204      0.3671
     87  OD1       -3.1270   10.5580   43.5060 O.co2 204  ASP204     -0.2456
     88  OD2       -3.4970    8.6300   44.5140 O.co2 204  ASP204     -0.2456
     89  N         -2.0370   11.0870   36.8200 N.3   207  HIS207     -0.1226
     90  CA        -0.6830   11.6000   37.0030 C.3   207  HIS207      0.1752
     91  C          0.3780   10.5230   36.7930 C.2   207  HIS207      0.2596
     92  O          1.4570   10.8070   36.2610 O.2   207  HIS207     -0.2718
     93  CB        -0.5410   12.2190   38.3930 C.3   207  HIS207      0.0759
     94  CG        -1.0980   13.6040   38.4860 C.ar  207  HIS207      0.0818
     95  ND1       -0.2960   14.7250   38.4770 N.ar  207  HIS207     -0.2268
     96  CD2       -2.3750   14.0520   38.5630 C.ar  207  HIS207      0.1154
     97  CE1       -1.0540   15.8050   38.5500 C.ar  207  HIS207      0.1986
     98  NE2       -2.3190   15.4240   38.6010 N.ar  207  HIS207     -0.2212
     99  N          0.1110    9.2920   37.2150 N.am  208  TYR208     -0.1976
    100  CA         1.1490    8.2700   37.2160 C.3   208  TYR208      0.1639
    101  C          1.0700    7.3420   36.0170 C.2   208  TYR208      0.2290
    102  O          2.1010    7.0370   35.4160 O.2   208  TYR208     -0.2864
    103  CB         1.0880    7.4350   38.5000 C.3   208  TYR208      0.0560
    104  CG         1.3900    8.2210   39.7610 C.ar  208  TYR208     -0.0198
    105  CD1        0.9520    7.7750   41.0080 C.ar  208  TYR208     -0.0009
    106  CD2        2.1160    9.4090   39.7100 C.ar  208  TYR208     -0.0009
    107  CE1        1.2290    8.4950   42.1780 C.ar  208  TYR208      0.0417
    108  CE2        2.3940   10.1380   40.8700 C.ar  208  TYR208      0.0417
    109  CZ         1.9490    9.6740   42.1030 C.ar  208  TYR208      0.1957
    110  OH         2.2210   10.3840   43.2560 O.3   208  TYR208     -0.2866
    111  N          1.0640   13.7970   31.7970 N.3   213  LYS213     -0.1245
    112  CA         2.4340   14.2310   31.5350 C.3   213  LYS213      0.1561
    113  C          2.7280   14.2290   30.0430 C.2   213  LYS213      0.2260
    114  O          3.3070   15.1840   29.5150 O.2   213  LYS213     -0.2867
    115  CB         3.4230   13.3370   32.2770 C.3   213  LYS213      0.0271
    116  CG         3.3920   13.5040   33.7790 C.3   213  LYS213      0.0035
    117  CD         4.4420   12.6190   34.4490 C.3   213  LYS213      0.0206
    118  CE         4.5960   12.9480   35.9300 C.3   213  LYS213      0.1093
    119  NZ         3.2960   12.9200   36.6680 N.3   213  LYS213     -0.1314
    120  N         12.4100   17.1060   43.9800 N.3   247  THR247     -0.1203
    121  CA        11.0690   17.0070   43.4350 C.3   247  THR247      0.1994
    122  C         10.5250   15.5980   43.6280 C.2   247  THR247      0.2618
    123  O         11.2670   14.6100   43.5820 O.2   247  THR247     -0.2717
    124  CB        11.0450   17.3600   41.9360 C.3   247  THR247      0.1784
    125  OG1        9.7660   17.0080   41.3940 O.3   247  THR247     -0.2211
    126  CG2       12.1520   16.5920   41.1810 C.3   247  THR247      0.0376
    127  N          9.2100   15.5140   43.8150 N.am  248  ASN248     -0.1960
    128  CA         8.5370   14.2240   43.7930 C.3   248  ASN248      0.1819
    129  C          8.4650   13.6080   42.3900 C.2   248  ASN248      0.2622
    130  O          8.2510   12.3980   42.2850 O.2   248  ASN248     -0.2715
    131  CB         7.1340   14.3670   44.4020 C.3   248  ASN248      0.1195
    132  CG         7.1550   14.3560   45.9470 C.2   248  ASN248      0.2630
    133  OD1        8.2140   14.2500   46.5620 O.2   248  ASN248     -0.2716
    134  ND2        5.9780   14.4690   46.5660 N.am  248  ASN248     -0.0877
    135  N          8.6590   14.3890   41.3160 N.am  249  SER249     -0.1950
    136  CA         8.5510   13.8520   39.9530 C.3   249  SER249      0.1924
    137  C          9.6980   12.8900   39.6280 C.2   249  SER249      0.2314
    138  O         10.7400   12.8760   40.2870 O.2   249  SER249     -0.2863
    139  CB         8.5730   14.9670   38.9070 C.3   249  SER249      0.2116
    140  OG         7.4970   15.8600   39.0460 O.3   249  SER249     -0.2180
    141  N         10.3830   13.0540   33.3490 N.3   253  TYR253     -0.1241
    142  CA         9.5040   14.2150   33.2990 C.3   253  TYR253      0.1605
    143  C         10.2520   15.4920   33.6870 C.2   253  TYR253      0.2264
    144  O         10.1870   16.5020   32.9750 O.2   253  TYR253     -0.2867
    145  CB         8.3030   13.9880   34.2080 C.3   253  TYR253      0.0534
    146  CG         7.3080   15.1140   34.1500 C.ar  253  TYR253     -0.0201
    147  CD1        6.5270   15.3170   33.0160 C.ar  253  TYR253     -0.0009
    148  CD2        7.1550   15.9830   35.2190 C.ar  253  TYR253     -0.0009
    149  CE1        5.6090   16.3390   32.9560 C.ar  253  TYR253      0.0417
    150  CE2        6.2350   17.0130   35.1710 C.ar  253  TYR253      0.0417
    151  CZ         5.4630   17.1850   34.0400 C.ar  253  TYR253      0.1957
    152  OH         4.5520   18.2170   33.9940 O.3   253  TYR253     -0.2866
    153  N          8.3500   13.3390   49.2800 N.3   290  LYS290     -0.1245
    154  CA         7.9120   14.2490   50.3250 C.3   290  LYS290      0.1561
    155  C          6.4350   13.9830   50.6090 C.2   290  LYS290      0.2260
    156  O          5.6720   13.7220   49.6760 O.2   290  LYS290     -0.2867
    157  CB         8.1080   15.7120   49.8960 C.3   290  LYS290      0.0271
    158  CG         9.5480   16.1160   49.6360 C.3   290  LYS290      0.0035
    159  CD         9.6350   17.4310   48.8740 C.3   290  LYS290      0.0206
    160  CE         9.2080   17.2490   47.4180 C.3   290  LYS290      0.1093
    161  NZ         8.9900   18.5570   46.7490 N.3   290  LYS290     -0.1314
    162  N          5.7660   24.8880   46.9070 N.3   349  ASP349     -0.1225
    163  CA         4.3750   25.3020   46.8220 C.3   349  ASP349      0.1805
    164  C          3.4340   24.4630   47.6780 C.2   349  ASP349      0.2597
    165  O          2.2550   24.8020   47.7570 O.2   349  ASP349     -0.2718
    166  CB         3.8800   25.2500   45.3630 C.3   349  ASP349      0.1424
    167  CG         3.6390   23.8150   44.8870 C.2   349  ASP349      0.3668
    168  OD1        4.4900   22.9440   45.1800 O.co2 349  ASP349     -0.2456
    169  OD2        2.5970   23.5560   44.2460 O.co2 349  ASP349     -0.2456
    170  N          3.9000   23.3610   48.2710 N.am  350  HIS350     -0.1975
    171  CA         3.0640   22.5020   49.1070 C.3   350  HIS350      0.1656
    172  C          3.1200   23.0280   50.5390 C.2   350  HIS350      0.2291
    173  O          4.1350   22.8630   51.2300 O.2   350  HIS350     -0.2864
    174  CB         3.5390   21.0500   49.0490 C.3   350  HIS350      0.0771
    175  CG         2.7870   20.1900   48.0800 C.ar  350  HIS350      0.0820
    176  ND1        2.9570   20.2800   46.7120 N.ar  350  HIS350     -0.2267
    177  CD2        1.8800   19.2030   48.2830 C.ar  350  HIS350      0.1154
    178  CE1        2.1790   19.3950   46.1130 C.ar  350  HIS350      0.1986
    179  NE2        1.5220   18.7240   47.0430 N.ar  350  HIS350     -0.2212
@<TRIPOS>BOND
     1   114   113    2
     2   113   112    1
     3   112   111    1
     4   112   115    1
     5   115   116    1
     6    25    26    1
     7    26    29    1
     8    26    27    1
     9   149   147   ar
    10   149   151   ar
    11   144   143    2
    12   147   146   ar
    13    31    33   ar
    14    31    30   ar
    15   142   141    1
    16   142   143    1
    17   142   145    1
    18    29    30    1
    19    33    35   ar
    20   116   117    1
    21    28    27    2
    22   152   151    1
    23   151   150   ar
    24    30    32   ar
    25   146   145    1
    26   146   148   ar
    27   117   118    1
    28    35    36    1
    29    35    34   ar
    30   150   148   ar
    31   102   101    2
    32    32    34   ar
    33   118   119    1
    34   101   100    1
    35    92    91    2
    36    91    90    1
    37    91    99   am
    38    89    90    1
    39    90    93    1
    40    15    16    1
    41    15    14    1
    42    99   100    1
    43   100   103    1
    44    14    13    1
    45    23    22   ar
    46    93    94    1
    47    95    94   ar
    48    95    97   ar
    49    94    96   ar
    50   103   104    1
    51    97    98   ar
    52    96    98   ar
    53   139   140    1
    54   139   136    1
    55    77    76    2
    56    52    50   ar
    57    52    54   ar
    58    84    83    2
    59    22    24   ar
    60    22    21    1
    61    13    10    1
    62   137   136    1
    63   137   138    2
    64    83    82    1
    65   106   104   ar
    66   106   108   ar
    67    12    11    2
    68    75    76    1
    69    75    74    1
    70    75    78    1
    71   104   105   ar
    72    50    49   ar
    73    76    81   am
    74    54    53   ar
    75   136   135    1
    76    18    21    1
    77    18    17    1
    78    18    19    1
    79    11    17   am
    80    11    10    1
    81    10     9    1
    82    80    78    1
    83    19    20    2
    84    79    78    1
    85    81    82    1
    86   108   109   ar
    87    82    85    1
    88   105   107   ar
    89    49    48    1
    90    49    51   ar
    91   126   124    1
    92    47    46    2
    93   135   129   am
    94    53    51   ar
    95   125   124    1
    96    45    48    1
    97    45    46    1
    98    45    44    1
    99   124   121    1
   100     9     3   am
   101    46    55   am
   102   109   107   ar
   103   109   110    1
   104    85    86    1
   105   130   129    2
   106   129   128    1
   107     4     3    2
   108     3     2    1
   109    66    65    2
   110    57    58    2
   111    57    56    1
   112    55    56    1
   113   121   122    1
   114   121   120    1
   115    65    64    1
   116    86    87   ar
   117    86    88   ar
   118   123   122    2
   119   122   127   am
   120    56    59    1
   121   128   127    1
   122   128   131    1
   123    63    64    1
   124     8     6   am
   125     2     5    1
   126     2     1    1
   127   169   167   ar
   128    64    67    1
   129    73    71    1
   130   131   132    1
   131     6     7    2
   132     6     5    1
   133   167   168   ar
   134   167   166    1
   135    40    39    2
   136    39    38    1
   137    42    41    1
   138    71    72    1
   139    71    70    2
   140    59    60    1
   141   166   163    1
   142    62    60   am
   143    67    68    1
   144    41    38    1
   145    41    43    1
   146    70    69    1
   147   132   133    2
   148   132   134   am
   149    60    61    2
   150   178   176   ar
   151   178   179   ar
   152    38    37    1
   153    68    69    1
   154   176   175   ar
   155   161   160    1
   156   163   162    1
   157   163   164    1
   158   179   177   ar
   159   160   159    1
   160   164   165    2
   161   164   170   am
   162   175   177   ar
   163   175   174    1
   164   170   171    1
   165   159   158    1
   166   174   171    1
   167   171   172    1
   168   153   154    1
   169   158   157    1
   170   156   155    2
   171   157   154    1
   172   154   155    1
   173   172   173    2
