@<TRIPOS>MOLECULE
tmp/6ddpD01.pdb
 208 201 0 0 0
SMALL
GASTEIGER

@<TRIPOS>ATOM
      1  N        -25.4140   15.3610  -39.3790 N.3     5  ILE5       -0.1231
      2  CA       -25.1310   15.2980  -40.8080 C.3     5  ILE5        0.1692
      3  C        -26.1880   16.1300  -41.5260 C.2     5  ILE5        0.2592
      4  O        -27.3860   15.9980  -41.2510 O.2     5  ILE5       -0.2718
      5  CB       -25.0850   13.8320  -41.3160 C.3     5  ILE5        0.0266
      6  CG1      -24.8040   13.7950  -42.8220 C.3     5  ILE5        0.0019
      7  CG2      -26.3590   13.0580  -40.9420 C.3     5  ILE5        0.0020
      8  CD1      -24.3490   12.4070  -43.2950 C.3     5  ILE5        0.0001
      9  N        -25.7410   17.0170  -42.4120 N.am    6  TRP6       -0.1962
     10  CA       -26.6560   17.8480  -43.1950 C.3     6  TRP6        0.1771
     11  C        -26.0610   18.2580  -44.5240 C.2     6  TRP6        0.2619
     12  O        -24.8500   18.1910  -44.7100 O.2     6  TRP6       -0.2715
     13  CB       -27.0660   19.1080  -42.4120 C.3     6  TRP6        0.0590
     14  CG       -26.0370   20.2070  -42.2570 C.ar    6  TRP6        0.0006
     15  CD1      -25.7480   21.1930  -43.1540 C.ar    6  TRP6        0.0946
     16  CD2      -25.2130   20.4590  -41.1090 C.ar    6  TRP6        0.0152
     17  NE1      -24.7800   22.0290  -42.6540 N.ar    6  TRP6       -0.2442
     18  CE2      -24.4440   21.6090  -41.3920 C.ar    6  TRP6        0.0810
     19  CE3      -25.0490   19.8210  -39.8770 C.ar    6  TRP6        0.0012
     20  CZ2      -23.5160   22.1400  -40.4910 C.ar    6  TRP6        0.0191
     21  CZ3      -24.1220   20.3560  -38.9720 C.ar    6  TRP6        0.0001
     22  CH2      -23.3780   21.5090  -39.2840 C.ar    6  TRP6        0.0015
     23  N        -26.9310   18.7110  -45.4240 N.am    7  ALA7       -0.1977
     24  CA       -26.5190   19.3520  -46.6660 C.3     7  ALA7        0.1597
     25  C        -27.0710   20.7630  -46.6680 C.2     7  ALA7        0.2287
     26  O        -28.2550   20.9650  -46.4050 O.2     7  ALA7       -0.2864
     27  CB       -27.0300   18.5810  -47.8660 C.3     7  ALA7        0.0319
     28  N        -39.3680   21.2120  -47.7300 N.3    19  ASP19      -0.1225
     29  CA       -38.5500   20.3480  -48.5880 C.3    19  ASP19       0.1805
     30  C        -37.1080   20.8520  -48.6300 C.2    19  ASP19       0.2597
     31  O        -36.8040   21.9440  -48.1380 O.2    19  ASP19      -0.2718
     32  CB       -39.1390   20.2700  -50.0070 C.3    19  ASP19       0.1424
     33  CG       -38.6320   19.0580  -50.8060 C.2    19  ASP19       0.3668
     34  OD1      -39.0360   18.9090  -51.9800 O.co2  19  ASP19      -0.2456
     35  OD2      -37.8260   18.2590  -50.2800 O.co2  19  ASP19      -0.2456
     36  N        -36.2240   20.0330  -49.1870 N.am   20  ILE20      -0.1980
     37  CA       -34.8460   20.4230  -49.4580 C.3    20  ILE20       0.1595
     38  C        -34.7910   21.0360  -50.8570 C.2    20  ILE20       0.2287
     39  O        -35.1580   20.3800  -51.8320 O.2    20  ILE20      -0.2864
     40  CB       -33.8970   19.2120  -49.3490 C.3    20  ILE20       0.0276
     41  CG1      -33.9100   18.6460  -47.9210 C.3    20  ILE20       0.0022
     42  CG2      -32.4830   19.5930  -49.7770 C.3    20  ILE20       0.0022
     43  CD1      -33.0810   17.3690  -47.7540 C.3    20  ILE20       0.0001
     44  N        -31.8230   18.8810  -55.6190 N.3    23  ARG23      -0.1231
     45  CA       -31.7010   17.4350  -55.7110 C.3    23  ARG23       0.1694
     46  C        -30.2450   17.0920  -55.9810 C.2    23  ARG23       0.2591
     47  O        -29.6440   17.6220  -56.9130 O.2    23  ARG23      -0.2718
     48  CB       -32.6120   16.8830  -56.8070 C.3    23  ARG23       0.0321
     49  CG       -34.0160   17.4660  -56.7820 C.3    23  ARG23       0.0489
     50  CD       -35.0680   16.3880  -56.9630 C.3    23  ARG23       0.2205
     51  NE       -34.8630   15.2710  -56.0420 N.pl3  23  ARG23      -0.0865
     52  CZ       -35.1700   15.2940  -54.7480 C.cat  23  ARG23       0.5346
     53  NH1      -35.7040   16.3800  -54.2060 N.pl3  23  ARG23       0.1354
     54  NH2      -34.9430   14.2270  -53.9940 N.pl3  23  ARG23       0.1354
     55  N        -29.6750   16.2210  -55.1580 N.am   24  LEU24      -0.1980
     56  CA       -28.2530   15.9230  -55.2490 C.3    24  LEU24       0.1596
     57  C        -28.0040   14.4610  -54.9040 C.2    24  LEU24       0.2287
     58  O        -27.6600   14.1330  -53.7760 O.2    24  LEU24      -0.2864
     59  CB       -27.4490   16.8480  -54.3200 C.3    24  LEU24       0.0297
     60  CG       -25.9260   16.7070  -54.3630 C.3    24  LEU24       0.0022
     61  CD1      -25.4350   16.7260  -55.7910 C.3    24  LEU24       0.0001
     62  CD2      -25.2490   17.8010  -53.5530 C.3    24  LEU24       0.0001
     63  N        -25.1090   13.2430  -52.8660 N.3    27  ASP27      -0.1225
     64  CA       -25.2090   13.5170  -51.4340 C.3    27  ASP27       0.1805
     65  C        -26.0270   12.4470  -50.7260 C.2    27  ASP27       0.2597
     66  O        -25.6890   12.0310  -49.6080 O.2    27  ASP27      -0.2718
     67  CB       -25.8160   14.8900  -51.1970 C.3    27  ASP27       0.1424
     68  CG       -26.1240   15.1350  -49.7330 C.2    27  ASP27       0.3668
     69  OD1      -25.1760   15.1980  -48.9300 O.co2  27  ASP27      -0.2456
     70  OD2      -27.3170   15.2680  -49.4190 O.co2  27  ASP27      -0.2456
     71  N        -27.1090   12.0060  -51.3560 N.am   28  GLN28      -0.1979
     72  CA       -27.9280   10.9450  -50.7750 C.3    28  GLN28       0.1601
     73  C        -27.1090    9.6710  -50.5420 C.2    28  GLN28       0.2287
     74  O        -27.2520    9.0030  -49.5090 O.2    28  GLN28      -0.2864
     75  CB       -29.1320   10.6460  -51.6720 C.3    28  GLN28       0.0394
     76  CG       -30.0070    9.5080  -51.1700 C.3    28  GLN28       0.0908
     77  CD       -31.4140    9.5670  -51.7340 C.2    28  GLN28       0.2608
     78  OE1      -32.0170   10.6380  -51.8220 O.2    28  GLN28      -0.2717
     79  NE2      -31.9390    8.4150  -52.1320 N.am   28  GLN28      -0.0878
     80  N        -23.8740    9.5400  -50.0070 N.3    30  HIS30      -0.1226
     81  CA       -22.9640    9.8840  -48.9210 C.3    30  HIS30       0.1752
     82  C        -23.6670    9.7920  -47.5710 C.2    30  HIS30       0.2596
     83  O        -23.1320    9.2510  -46.6070 O.2    30  HIS30      -0.2718
     84  CB       -22.4200   11.2930  -49.1490 C.3    30  HIS30       0.0759
     85  CG       -21.7190   11.8860  -47.9670 C.ar   30  HIS30       0.0818
     86  ND1      -20.5520   11.3660  -47.4490 N.ar   30  HIS30      -0.2268
     87  CD2      -22.0030   12.9830  -47.2270 C.ar   30  HIS30       0.1154
     88  CE1      -20.1590   12.1060  -46.4280 C.ar   30  HIS30       0.1986
     89  NE2      -21.0200   13.0970  -46.2770 N.ar   30  HIS30      -0.2212
     90  N        -24.8860   10.3100  -47.5430 N.am   31  PHE31      -0.1962
     91  CA       -25.7130   10.2730  -46.3490 C.3    31  PHE31       0.1771
     92  C        -25.9560    8.8290  -45.9200 C.2    31  PHE31       0.2619
     93  O        -25.8580    8.4900  -44.7430 O.2    31  PHE31      -0.2715
     94  CB       -27.0200   11.0060  -46.6260 C.3    31  PHE31       0.0574
     95  CG       -28.0610   10.8220  -45.5720 C.ar   31  PHE31      -0.0200
     96  CD1      -28.0820   11.6320  -44.4560 C.ar   31  PHE31      -0.0042
     97  CD2      -29.0390    9.8490  -45.7080 C.ar   31  PHE31      -0.0042
     98  CE1      -29.0550   11.4660  -43.4940 C.ar   31  PHE31      -0.0003
     99  CE2      -30.0050    9.6780  -44.7580 C.ar   31  PHE31      -0.0003
    100  CZ       -30.0160   10.4920  -43.6420 C.ar   31  PHE31      -0.0000
    101  N        -26.2440    7.9810  -46.9040 N.am   32  ARG32      -0.1977
    102  CA       -26.5460    6.5790  -46.6520 C.3    32  ARG32       0.1597
    103  C        -25.3070    5.8860  -46.0940 C.2    32  ARG32       0.2287
    104  O        -25.3910    5.1200  -45.1310 O.2    32  ARG32      -0.2864
    105  CB       -27.0360    5.9110  -47.9430 C.3    32  ARG32       0.0334
    106  CG       -27.7860    4.6020  -47.7260 C.3    32  ARG32       0.0492
    107  CD       -28.0880    3.9000  -49.0470 C.3    32  ARG32       0.2205
    108  NE       -27.4250    2.6030  -49.1230 N.pl3  32  ARG32      -0.0865
    109  CZ       -26.3270    2.3670  -49.8340 C.cat  32  ARG32       0.5346
    110  NH1      -25.7650    3.3450  -50.5320 N.pl3  32  ARG32       0.1354
    111  NH2      -25.7900    1.1550  -49.8450 N.pl3  32  ARG32       0.1354
    112  N        -39.1310   16.7880  -40.0930 N.3    46  THR46      -0.1218
    113  CA       -38.2390   16.0950  -41.0130 C.3    46  THR46       0.1862
    114  C        -38.7670   14.6960  -41.3080 C.2    46  THR46       0.2287
    115  O        -38.7130   14.2340  -42.4400 O.2    46  THR46      -0.2866
    116  CB       -36.8300   16.0240  -40.4430 C.3    46  THR46       0.1770
    117  OG1      -36.2740   17.3490  -40.4640 O.3    46  THR46      -0.2211
    118  CG2      -35.9460   15.1150  -41.2550 C.3    46  THR46       0.0375
    119  N        -41.3310   14.9680  -43.8900 N.3    49  SER49      -0.1202
    120  CA       -40.8160   15.3150  -45.2120 C.3    49  SER49       0.2020
    121  C        -40.3090   14.0990  -45.9790 C.2    49  SER49       0.2619
    122  O        -40.1420   14.1460  -47.2010 O.2    49  SER49      -0.2717
    123  CB       -39.6850   16.3330  -45.0930 C.3    49  SER49       0.2103
    124  OG       -38.4730   15.6880  -44.7450 O.3    49  SER49      -0.2182
    125  N        -40.0310   13.0180  -45.2610 N.am   50  LEU50      -0.1966
    126  CA       -39.5760   11.7850  -45.8920 C.3    50  LEU50       0.1713
    127  C        -40.6540   11.2130  -46.7930 C.2    50  LEU50       0.2458
    128  O        -41.8080   11.1010  -46.3840 O.2    50  LEU50      -0.2730
    129  CB       -39.1870   10.7440  -44.8400 C.3    50  LEU50       0.0310
    130  CG       -37.8510   10.8630  -44.1000 C.3    50  LEU50       0.0022
    131  CD1      -37.7450    9.8010  -43.0090 C.3    50  LEU50       0.0001
    132  CD2      -36.7010   10.7310  -45.0740 C.3    50  LEU50       0.0001
    133  N        -40.2830   10.8620  -48.0280 N.am   51  PRO51      -0.2727
    134  CA       -41.2230   10.1470  -48.8920 C.3    51  PRO51       0.1402
    135  C        -41.6230    8.8380  -48.2270 C.2    51  PRO51       0.2269
    136  O        -40.7860    8.2190  -47.5630 O.2    51  PRO51      -0.2865
    137  CB       -40.4190    9.9080  -50.1730 C.3    51  PRO51       0.0296
    138  CG       -39.3480   10.9520  -50.1510 C.3    51  PRO51       0.0237
    139  CD       -38.9930   11.1020  -48.6950 C.3    51  PRO51       0.0939
    140  N        -39.4550    5.5960  -48.3830 N.3    54  VAL54      -0.1245
    141  CA       -38.2430    5.4720  -47.5740 C.3    54  VAL54       0.1561
    142  C        -38.4970    5.9150  -46.1360 C.2    54  VAL54       0.2260
    143  O        -37.6100    6.4510  -45.4610 O.2    54  VAL54      -0.2867
    144  CB       -37.0810    6.2940  -48.1650 C.3    54  VAL54       0.0252
    145  CG1      -36.6690    5.7290  -49.5220 C.3    54  VAL54       0.0019
    146  CG2      -37.4640    7.7590  -48.2790 C.3    54  VAL54       0.0019
    147  N        -36.4210    5.1470  -42.7970 N.3    57  LEU57      -0.1231
    148  CA       -35.2230    4.8770  -43.5830 C.3    57  LEU57       0.1678
    149  C        -34.7130    3.4930  -43.2240 C.2    57  LEU57       0.2434
    150  O        -34.4710    3.2040  -42.0590 O.2    57  LEU57      -0.2733
    151  CB       -34.1550    5.9460  -43.3360 C.3    57  LEU57       0.0284
    152  CG       -34.5340    7.2910  -43.9590 C.3    57  LEU57       0.0019
    153  CD1      -33.6720    8.4090  -43.3800 C.3    57  LEU57       0.0001
    154  CD2      -34.4020    7.2480  -45.4750 C.3    57  LEU57       0.0001
    155  N        -34.5650    2.6230  -44.2260 N.am   58  PRO58      -0.2729
    156  CA       -34.2420    1.2340  -43.8870 C.3    58  PRO58       0.1401
    157  C        -32.8090    1.0570  -43.4190 C.2    58  PRO58       0.2269
    158  O        -31.9270    1.8210  -43.8230 O.2    58  PRO58      -0.2865
    159  CB       -34.4600    0.4780  -45.2120 C.3    58  PRO58       0.0296
    160  CG       -35.1190    1.4480  -46.1320 C.3    58  PRO58       0.0237
    161  CD       -34.7820    2.8220  -45.6660 C.3    58  PRO58       0.0939
    162  N        -31.6210    1.4800  -40.5840 N.3    60  ARG60      -0.1245
    163  CA       -31.2970    2.4570  -39.5440 C.3    60  ARG60       0.1563
    164  C        -32.4230    2.4680  -38.5250 C.2    60  ARG60       0.2260
    165  O        -33.5810    2.3110  -38.8970 O.2    60  ARG60      -0.2867
    166  CB       -31.1030    3.8490  -40.1540 C.3    60  ARG60       0.0307
    167  CG       -29.8100    3.9990  -40.9280 C.3    60  ARG60       0.0489
    168  CD       -29.9400    4.9360  -42.1240 C.3    60  ARG60       0.2205
    169  NE       -30.7280    4.3600  -43.2070 N.pl3  60  ARG60      -0.0865
    170  CZ       -30.8220    4.8810  -44.4320 C.cat  60  ARG60       0.5346
    171  NH1      -30.1850    6.0100  -44.7440 N.pl3  60  ARG60       0.1354
    172  NH2      -31.5570    4.2710  -45.3460 N.pl3  60  ARG60       0.1354
    173  N        -30.1760   13.8540  -38.1110 N.3    94  ILE94      -0.1245
    174  CA       -30.2980   14.0800  -39.5510 C.3    94  ILE94       0.1561
    175  C        -31.2610   15.2090  -39.9150 C.2    94  ILE94       0.2260
    176  O        -31.6560   15.3470  -41.0790 O.2    94  ILE94      -0.2867
    177  CB       -30.7420   12.7900  -40.2680 C.3    94  ILE94       0.0252
    178  CG1      -32.1780   12.4260  -39.8780 C.3    94  ILE94       0.0019
    179  CG2      -29.7540   11.6850  -39.9650 C.3    94  ILE94       0.0019
    180  CD1      -32.8150   11.3200  -40.7350 C.3    94  ILE94       0.0001
    181  N        -31.1000   20.1560  -35.1130 N.3   100  TYR100     -0.1241
    182  CA       -29.6630   20.4320  -35.1660 C.3   100  TYR100      0.1605
    183  C        -29.2490   21.3850  -34.0550 C.2   100  TYR100      0.2264
    184  O        -28.2260   21.1690  -33.4070 O.2   100  TYR100     -0.2867
    185  CB       -29.2450   21.0490  -36.4960 C.3   100  TYR100      0.0534
    186  CG       -29.2830   20.1150  -37.6900 C.ar  100  TYR100     -0.0201
    187  CD1      -28.7980   18.8140  -37.6180 C.ar  100  TYR100     -0.0009
    188  CD2      -29.8150   20.5430  -38.8880 C.ar  100  TYR100     -0.0009
    189  CE1      -28.8340   17.9700  -38.7340 C.ar  100  TYR100      0.0417
    190  CE2      -29.8570   19.7130  -39.9930 C.ar  100  TYR100      0.0417
    191  CZ       -29.3840   18.4290  -39.9040 C.ar  100  TYR100      0.1957
    192  OH       -29.4580   17.6390  -41.0320 O.3   100  TYR100     -0.2866
    193  N        -20.8570   15.9770  -40.3490 N.3   111  GLU111     -0.1245
    194  CA       -20.5670   15.6420  -41.7330 C.3   111  GLU111      0.1567
    195  C        -21.4360   16.5480  -42.5960 C.2   111  GLU111      0.2260
    196  O        -22.6610   16.4150  -42.6170 O.2   111  GLU111     -0.2867
    197  CB       -20.8390   14.1620  -42.0010 C.3   111  GLU111      0.0388
    198  CG       -19.8770   13.2220  -41.2910 C.3   111  GLU111      0.1160
    199  CD       -18.4370   13.3590  -41.7680 C.2   111  GLU111      0.3649
    200  OE1      -18.2190   13.8030  -42.9120 O.co2 111  GLU111     -0.2457
    201  OE2      -17.5150   13.0370  -40.9850 O.co2 111  GLU111     -0.2457
    202  N        -22.3700   18.5440  -46.2310 N.3   113  THR113     -0.1218
    203  CA       -22.2840   18.7660  -47.6690 C.3   113  THR113      0.1862
    204  C        -22.6110   20.2160  -47.9890 C.2   113  THR113      0.2287
    205  O        -23.6540   20.7340  -47.5680 O.2   113  THR113     -0.2866
    206  CB       -23.2420   17.8510  -48.4220 C.3   113  THR113      0.1770
    207  OG1      -22.9670   16.4970  -48.0530 O.3   113  THR113     -0.2211
    208  CG2      -23.0730   18.0130  -49.9340 C.3   113  THR113      0.0375
@<TRIPOS>BOND
     1    50    49    1
     2    50    51    1
     3    47    46    2
     4    48    49    1
     5    48    45    1
     6    51    52    2
     7    46    45    1
     8    46    55   am
     9    61    60    1
    10    45    44    1
    11    56    55    1
    12    56    57    1
    13    56    59    1
    14    57    58    2
    15    52    53    1
    16    52    54    1
    17    60    59    1
    18    60    62    1
    19    63    64    1
    20    79    77   am
    21    34    33   ar
    22    39    38    2
    23    78    77    2
    24    77    76    1
    25    75    76    1
    26    75    72    1
    27    64    67    1
    28    64    65    1
    29    71    72    1
    30    71    65   am
    31    67    68    1
    32    38    37    1
    33    33    35   ar
    34    33    32    1
    35    72    73    1
    36    65    66    2
    37    73    74    2
    38   110   109    1
    39   137   138    1
    40   137   134    1
    41   138   139    1
    42    80    81    1
    43    32    29    1
    44   208   206    1
    45   111   109    1
    46   109   108    2
    47    42    40    1
    48    68    70   ar
    49    68    69   ar
    50   145   144    1
    51    37    40    1
    52    37    36    1
    53    40    41    1
    54    36    30   am
    55    84    81    1
    56    84    85    1
    57   108   107    1
    58   107   106    1
    59    81    82    1
    60   134   135    1
    61   134   133    1
    62   139   133    1
    63    30    29    1
    64    30    31    2
    65    29    28    1
    66   206   207    1
    67   206   203    1
    68   140   141    1
    69   146   144    1
    70   135   136    2
    71   144   141    1
    72   133   127   am
    73   204   203    1
    74   204   205    2
    75    85    86   ar
    76    85    87   ar
    77   105   106    1
    78   105   102    1
    79    41    43    1
    80    27    24    1
    81   203   202    1
    82   141   142    1
    83    82    90   am
    84    82    83    2
    85    90    91    1
    86    86    88   ar
    87    87    89   ar
    88   122   121    2
    89   101   102    1
    90   101    92   am
    91   127   128    2
    92   127   126    1
    93    25    24    1
    94    25    26    2
    95    24    23    1
    96   102   103    1
    97    94    91    1
    98    94    95    1
    99    88    89   ar
   100    91    92    1
   101   142   143    2
   102   160   161    1
   103   160   159    1
   104   103   104    2
   105   121   125   am
   106   121   120    1
   107    92    93    2
   108   126   125    1
   109   126   129    1
   110    97    95   ar
   111    97    99   ar
   112   161   155    1
   113    95    96   ar
   114   154   152    1
   115    23    11   am
   116   172   170    1
   117   159   156    1
   118   120   123    1
   119   120   119    1
   120   123   124    1
   121   132   130    1
   122   129   130    1
   123    99   100   ar
   124   171   170    1
   125    12    11    2
   126    11    10    1
   127    96    98   ar
   128   170   169    2
   129   155   156    1
   130   155   149   am
   131   130   131    1
   132   152   153    1
   133   152   151    1
   134   156   157    1
   135   158   157    2
   136   100    98   ar
   137   148   151    1
   138   148   149    1
   139   148   147    1
   140     8     6    1
   141   149   150    2
   142   169   168    1
   143    10     9    1
   144    10    13    1
   145    15    17   ar
   146    15    14   ar
   147   200   199   ar
   148     6     5    1
   149    17    18   ar
   150   196   195    2
   151   195   194    1
   152   115   114    2
   153     9     3   am
   154    13    14    1
   155    14    16   ar
   156   168   167    1
   157   197   194    1
   158   197   198    1
   159   199   198    1
   160   199   201   ar
   161   194   193    1
   162     3     4    2
   163     3     2    1
   164    18    16   ar
   165    18    20   ar
   166     5     7    1
   167     5     2    1
   168   114   113    1
   169   118   116    1
   170    16    19   ar
   171   176   175    2
   172   192   191    1
   173   113   116    1
   174   113   112    1
   175   167   166    1
   176     2     1    1
   177   180   178    1
   178   162   163    1
   179    20    22   ar
   180   117   116    1
   181   177   179    1
   182   177   178    1
   183   177   174    1
   184   166   163    1
   185   190   191   ar
   186   190   188   ar
   187   175   174    1
   188   191   189   ar
   189    19    21   ar
   190   174   173    1
   191   163   164    1
   192    22    21   ar
   193   165   164    2
   194   188   186   ar
   195   189   187   ar
   196   186   187   ar
   197   186   185    1
   198   185   182    1
   199   182   181    1
   200   182   183    1
   201   183   184    2
