@<TRIPOS>MOLECULE
tmp/6dduA04.pdb
 158 162 0 0 0
SMALL
GASTEIGER

@<TRIPOS>ATOM
      1  N         28.5970   43.5570  122.7390 N.3   173  TRP173     -0.1227
      2  CA        27.9520   42.8350  123.8240 C.3   173  TRP173      0.1737
      3  C         27.1220   41.7270  123.1860 C.2   173  TRP173      0.2595
      4  O         27.1130   41.5700  121.9620 O.2   173  TRP173     -0.2718
      5  CB        27.1080   43.7830  124.6840 C.3   173  TRP173      0.0564
      6  CG        27.0150   43.3770  126.1190 C.ar  173  TRP173      0.0003
      7  CD1       25.9820   42.7210  126.7210 C.ar  173  TRP173      0.0946
      8  CD2       27.9960   43.6020  127.1400 C.ar  173  TRP173      0.0152
      9  NE1       26.2580   42.5220  128.0510 N.ar  173  TRP173     -0.2442
     10  CE2       27.4910   43.0510  128.3330 C.ar  173  TRP173      0.0810
     11  CE3       29.2540   44.2130  127.1580 C.ar  173  TRP173      0.0012
     12  CZ2       28.1950   43.0980  129.5330 C.ar  173  TRP173      0.0191
     13  CZ3       29.9530   44.2550  128.3490 C.ar  173  TRP173      0.0001
     14  CH2       29.4230   43.7000  129.5200 C.ar  173  TRP173      0.0015
     15  N         26.4210   40.9510  124.0100 N.am  174  ASP174     -0.1960
     16  CA        25.5890   39.8820  123.4670 C.3   174  ASP174      0.1840
     17  C         24.2900   40.3990  122.8480 C.2   174  ASP174      0.2622
     18  O         23.4190   39.5890  122.5090 O.2   174  ASP174     -0.2715
     19  CB        25.2840   38.8320  124.5420 C.3   174  ASP174      0.1450
     20  CG        24.5390   39.3990  125.7300 C.2   174  ASP174      0.3671
     21  OD1       24.1260   40.5760  125.6770 O.co2 174  ASP174     -0.2456
     22  OD2       24.3580   38.6570  126.7190 O.co2 174  ASP174     -0.2456
     23  N         24.1430   41.7210  122.7000 N.am  175  TRP175     -0.1974
     24  CA        23.0660   42.2990  121.9050 C.3   175  TRP175      0.1640
     25  C         23.4900   43.5500  121.1480 C.2   175  TRP175      0.2290
     26  O         22.6500   44.1460  120.4650 O.2   175  TRP175     -0.2864
     27  CB        21.8540   42.6410  122.7910 C.3   175  TRP175      0.0576
     28  CG        22.2240   43.1630  124.1410 C.ar  175  TRP175      0.0006
     29  CD1       22.0090   42.5480  125.3370 C.ar  175  TRP175      0.0946
     30  CD2       22.8830   44.4010  124.4390 C.ar  175  TRP175      0.0152
     31  NE1       22.4880   43.3230  126.3620 N.ar  175  TRP175     -0.2442
     32  CE2       23.0320   44.4660  125.8390 C.ar  175  TRP175      0.0810
     33  CE3       23.3620   45.4600  123.6610 C.ar  175  TRP175      0.0012
     34  CZ2       23.6380   45.5450  126.4760 C.ar  175  TRP175      0.0191
     35  CZ3       23.9640   46.5330  124.2970 C.ar  175  TRP175      0.0001
     36  CH2       24.0970   46.5660  125.6910 C.ar  175  TRP175      0.0015
     37  N         21.6280   50.2580  133.3390 N.3   373  TRP373     -0.1241
     38  CA        22.5270   49.1180  133.4500 C.3   373  TRP373      0.1605
     39  C         23.9870   49.5560  133.3890 C.2   373  TRP373      0.2264
     40  O         24.3710   50.4000  132.5750 O.2   373  TRP373     -0.2867
     41  CB        22.2000   48.1280  132.3330 C.3   373  TRP373      0.0550
     42  CG        23.1180   46.9720  132.2080 C.ar  373  TRP373      0.0003
     43  CD1       23.2610   45.9330  133.0800 C.ar  373  TRP373      0.0946
     44  CD2       24.0070   46.7120  131.1220 C.ar  373  TRP373      0.0152
     45  NE1       24.1980   45.0460  132.6070 N.ar  373  TRP373     -0.2442
     46  CE2       24.6700   45.5020  131.4040 C.ar  373  TRP373      0.0810
     47  CE3       24.3100   47.3900  129.9370 C.ar  373  TRP373      0.0012
     48  CZ2       25.6200   44.9570  130.5470 C.ar  373  TRP373      0.0191
     49  CZ3       25.2490   46.8480  129.0880 C.ar  373  TRP373      0.0001
     50  CH2       25.8930   45.6430  129.3950 C.ar  373  TRP373      0.0015
     51  N         30.0960   43.1140  134.4540 N.3   402  SER402     -0.1217
     52  CA        30.4770   41.7780  133.9900 C.3   402  SER402      0.1889
     53  C         31.9560   41.7100  133.6190 C.2   402  SER402      0.2288
     54  O         32.3310   41.2960  132.5190 O.2   402  SER402     -0.2866
     55  CB        29.6070   41.3500  132.8070 C.3   402  SER402      0.2089
     56  OG        28.2290   41.3910  133.1360 O.3   402  SER402     -0.2183
     57  N         27.5960   45.4210  137.8050 N.3   439  ASN439     -0.1225
     58  CA        26.6720   44.4290  137.2610 C.3   439  ASN439      0.1785
     59  C         27.3510   43.0640  137.2620 C.2   439  ASN439      0.2597
     60  O         28.3000   42.8360  136.5030 O.2   439  ASN439     -0.2718
     61  CB        26.2290   44.8100  135.8490 C.3   439  ASN439      0.1169
     62  CG        25.7370   43.6150  135.0490 C.2   439  ASN439      0.2627
     63  OD1       26.4870   43.0250  134.2680 O.2   439  ASN439     -0.2716
     64  ND2       24.4730   43.2510  135.2410 N.am  439  ASN439     -0.0877
     65  N         26.8690   42.1650  138.1190 N.am  440  GLU440     -0.1979
     66  CA        27.2140   40.7450  138.1120 C.3   440  GLU440      0.1602
     67  C         28.6630   40.4610  138.4880 C.2   440  GLU440      0.2287
     68  O         29.1130   39.3170  138.3410 O.2   440  GLU440     -0.2864
     69  CB        26.9270   40.1100  136.7460 C.3   440  GLU440      0.0415
     70  CG        25.4520   40.0790  136.3780 C.3   440  GLU440      0.1163
     71  CD        25.1940   39.3710  135.0610 C.2   440  GLU440      0.3649
     72  OE1       26.1350   39.2720  134.2420 O.co2 440  GLU440     -0.2457
     73  OE2       24.0510   38.9080  134.8470 O.co2 440  GLU440     -0.2457
     74  N         33.5400   33.0420  137.2310 N.3   449  TRP449     -0.1241
     75  CA        33.2420   32.9570  135.8040 C.3   449  TRP449      0.1605
     76  C         34.5140   32.8500  134.9760 C.2   449  TRP449      0.2264
     77  O         34.5650   32.1030  133.9920 O.2   449  TRP449     -0.2867
     78  CB        32.4480   34.1870  135.3530 C.3   449  TRP449      0.0550
     79  CG        30.9860   34.1790  135.6890 C.ar  449  TRP449      0.0003
     80  CD1       30.2710   33.1630  136.2550 C.ar  449  TRP449      0.0946
     81  CD2       30.0590   35.2490  135.4690 C.ar  449  TRP449      0.0152
     82  NE1       28.9550   33.5360  136.4020 N.ar  449  TRP449     -0.2442
     83  CE2       28.8000   34.8120  135.9280 C.ar  449  TRP449      0.0810
     84  CE3       30.1730   36.5350  134.9310 C.ar  449  TRP449      0.0012
     85  CZ2       27.6620   35.6170  135.8640 C.ar  449  TRP449      0.0191
     86  CZ3       29.0430   37.3310  134.8680 C.ar  449  TRP449      0.0001
     87  CH2       27.8050   36.8690  135.3320 C.ar  449  TRP449      0.0015
     88  N         18.0730   33.4150  134.1490 N.3   517  TYR517     -0.1241
     89  CA        18.0250   33.1350  132.7220 C.3   517  TYR517      0.1605
     90  C         17.9660   31.6300  132.5250 C.2   517  TYR517      0.2264
     91  O         18.7200   30.8910  133.1640 O.2   517  TYR517     -0.2867
     92  CB        19.2440   33.7150  131.9990 C.3   517  TYR517      0.0534
     93  CG        19.2790   35.2240  131.9840 C.ar  517  TYR517     -0.0201
     94  CD1       18.5390   35.9440  131.0580 C.ar  517  TYR517     -0.0009
     95  CD2       20.0550   35.9290  132.8940 C.ar  517  TYR517     -0.0009
     96  CE1       18.5670   37.3230  131.0400 C.ar  517  TYR517      0.0417
     97  CE2       20.0900   37.3080  132.8830 C.ar  517  TYR517      0.0417
     98  CZ        19.3430   38.0010  131.9530 C.ar  517  TYR517      0.1957
     99  OH        19.3750   39.3770  131.9350 O.3   517  TYR517     -0.2866
    100  N         17.1730   28.8650  129.1570 N.3   519  TYR519     -0.1241
    101  CA        16.8350   28.6580  127.7560 C.3   519  TYR519      0.1605
    102  C         16.5200   27.2090  127.4120 C.2   519  TYR519      0.2264
    103  O         16.1120   26.9390  126.2770 O.2   519  TYR519     -0.2867
    104  CB        17.9840   29.1390  126.8560 C.3   519  TYR519      0.0534
    105  CG        18.4870   30.5310  127.1730 C.ar  519  TYR519     -0.0201
    106  CD1       17.6970   31.6480  126.9400 C.ar  519  TYR519     -0.0009
    107  CD2       19.7610   30.7260  127.6910 C.ar  519  TYR519     -0.0009
    108  CE1       18.1590   32.9200  127.2250 C.ar  519  TYR519      0.0417
    109  CE2       20.2300   31.9910  127.9780 C.ar  519  TYR519      0.0417
    110  CZ        19.4270   33.0850  127.7430 C.ar  519  TYR519      0.1957
    111  OH        19.9000   34.3460  128.0300 O.3   519  TYR519     -0.2866
    112  N         16.6640   41.1520  137.0080 N.3   537  GLU537     -0.1245
    113  CA        16.8960   40.7730  135.6220 C.3   537  GLU537      0.1567
    114  C         16.2250   39.4380  135.3600 C.2   537  GLU537      0.2260
    115  O         16.1830   38.5660  136.2300 O.2   537  GLU537     -0.2867
    116  CB        18.3850   40.6540  135.2840 C.3   537  GLU537      0.0388
    117  CG        19.0890   41.9520  134.9410 C.3   537  GLU537      0.1160
    118  CD        20.5280   41.7190  134.5210 C.2   537  GLU537      0.3649
    119  OE1       20.8260   40.6140  134.0180 O.co2 537  GLU537     -0.2457
    120  OE2       21.3630   42.6320  134.7000 O.co2 537  GLU537     -0.2457
    121  N         24.6050   36.2170  120.8530 N.3   571  HIS571     -0.1241
    122  CA        24.4180   35.3020  121.9710 C.3   571  HIS571      0.1621
    123  C         24.6860   33.8820  121.4970 C.2   571  HIS571      0.2264
    124  O         24.2170   33.4800  120.4270 O.2   571  HIS571     -0.2867
    125  CB        23.0050   35.4100  122.5460 C.3   571  HIS571      0.0745
    126  CG        22.7950   34.5910  123.7810 C.ar  571  HIS571      0.0817
    127  ND1       23.3760   34.9060  124.9900 N.ar  571  HIS571     -0.2268
    128  CD2       22.0730   33.4650  123.9930 C.ar  571  HIS571      0.1154
    129  CE1       23.0170   34.0120  125.8950 C.ar  571  HIS571      0.1986
    130  NE2       22.2270   33.1270  125.3150 N.ar  571  HIS571     -0.2212
    131  N         14.7410   41.8590  131.6440 N.3   640  TRP640     -0.1241
    132  CA        15.7920   42.2120  130.7030 C.3   640  TRP640      0.1605
    133  C         15.2950   41.9320  129.2790 C.2   640  TRP640      0.2264
    134  O         14.8710   40.8060  129.0150 O.2   640  TRP640     -0.2867
    135  CB        17.0670   41.4150  130.9830 C.3   640  TRP640      0.0550
    136  CG        18.2090   41.8550  130.1330 C.ar  640  TRP640      0.0003
    137  CD1       18.5480   41.3740  128.9040 C.ar  640  TRP640      0.0946
    138  CD2       19.1580   42.8820  130.4390 C.ar  640  TRP640      0.0152
    139  NE1       19.6540   42.0360  128.4270 N.ar  640  TRP640     -0.2442
    140  CE2       20.0480   42.9670  129.3510 C.ar  640  TRP640      0.0810
    141  CE3       19.3440   43.7350  131.5290 C.ar  640  TRP640      0.0012
    142  CZ2       21.1050   43.8710  129.3230 C.ar  640  TRP640      0.0191
    143  CZ3       20.3940   44.6310  131.5000 C.ar  640  TRP640      0.0001
    144  CH2       21.2610   44.6920  130.4040 C.ar  640  TRP640      0.0015
    145  N         16.9030   40.6310  123.9900 N.3   651  TRP651     -0.1241
    146  CA        15.8770   40.4110  124.9970 C.3   651  TRP651      0.1605
    147  C         14.9220   41.5890  125.1150 C.2   651  TRP651      0.2264
    148  O         14.0490   41.5790  125.9900 O.2   651  TRP651     -0.2867
    149  CB        16.5310   40.1480  126.3560 C.3   651  TRP651      0.0550
    150  CG        17.4180   38.9430  126.3770 C.ar  651  TRP651      0.0003
    151  CD1       17.1110   37.7100  126.8720 C.ar  651  TRP651      0.0946
    152  CD2       18.7570   38.8510  125.8760 C.ar  651  TRP651      0.0152
    153  NE1       18.1720   36.8570  126.7130 N.ar  651  TRP651     -0.2442
    154  CE2       19.1970   37.5320  126.1040 C.ar  651  TRP651      0.0810
    155  CE3       19.6270   39.7540  125.2590 C.ar  651  TRP651      0.0012
    156  CZ2       20.4660   37.0960  125.7360 C.ar  651  TRP651      0.0191
    157  CZ3       20.8860   39.3190  124.8940 C.ar  651  TRP651      0.0001
    158  CH2       21.2940   38.0020  125.1340 C.ar  651  TRP651      0.0015
@<TRIPOS>BOND
     1   124   123    2
     2    26    25    2
     3   121   122    1
     4    25    24    1
     5   123   122    1
     6    24    23    1
     7    24    27    1
     8     4     3    2
     9   122   125    1
    10    18    17    2
    11   125   126    1
    12    23    17   am
    13     1     2    1
    14    27    28    1
    15    17    16    1
    16     3     2    1
    17     3    15   am
    18    16    15    1
    19    16    19    1
    20    33    35   ar
    21    33    30   ar
    22   126   128   ar
    23   126   127   ar
    24     2     5    1
    25   145   146    1
    26   128   130   ar
    27    28    30   ar
    28    28    29   ar
    29    35    36   ar
    30    30    32   ar
    31    19    20    1
    32     5     6    1
    33   157   158   ar
    34   157   155   ar
    35   127   129   ar
    36   146   147    1
    37   146   149    1
    38   147   148    2
    39   158   156   ar
    40   155   152   ar
    41   130   129   ar
    42    29    31   ar
    43    21    20   ar
    44    36    34   ar
    45    20    22   ar
    46   156   154   ar
    47    32    31   ar
    48    32    34   ar
    49   152   154   ar
    50   152   150   ar
    51   154   153   ar
    52     6     7   ar
    53     6     8   ar
    54   103   102    2
    55   149   150    1
    56   150   151   ar
    57   153   151   ar
    58     7     9   ar
    59   104   105    1
    60   104   101    1
    61   106   105   ar
    62   106   108   ar
    63     8    11   ar
    64     8    10   ar
    65    11    13   ar
    66   105   107   ar
    67   108   110   ar
    68   102   101    1
    69   107   109   ar
    70   110   109   ar
    71   110   111    1
    72   101   100    1
    73     9    10   ar
    74    10    12   ar
    75    13    14   ar
    76   139   137   ar
    77   139   140   ar
    78   137   136   ar
    79   134   133    2
    80    49    50   ar
    81    49    47   ar
    82   133   132    1
    83   142   140   ar
    84   142   144   ar
    85   140   138   ar
    86    50    48   ar
    87    14    12   ar
    88    47    44   ar
    89   136   138   ar
    90   136   135    1
    91   144   143   ar
    92   138   141   ar
    93    48    46   ar
    94   132   135    1
    95   132   131    1
    96    96    94   ar
    97    96    98   ar
    98    94    93   ar
    99    44    46   ar
   100    44    42   ar
   101    46    45   ar
   102   143   141   ar
   103    99    98    1
   104    98    97   ar
   105    93    92    1
   106    93    95   ar
   107    92    89    1
   108    42    41    1
   109    42    43   ar
   110    41    38    1
   111    54    53    2
   112    90    89    1
   113    90    91    2
   114    40    39    2
   115    45    43   ar
   116    89    88    1
   117    55    56    1
   118    55    52    1
   119    97    95   ar
   120    37    38    1
   121    39    38    1
   122    53    52    1
   123    52    51    1
   124    77    76    2
   125   119   118   ar
   126    72    71   ar
   127    63    62    2
   128   118   120   ar
   129   118   117    1
   130    73    71   ar
   131    86    84   ar
   132    86    87   ar
   133    84    81   ar
   134   117   116    1
   135    76    75    1
   136    62    64   am
   137    62    61    1
   138    71    70    1
   139   116   113    1
   140    87    85   ar
   141    78    79    1
   142    78    75    1
   143   114   113    1
   144   114   115    2
   145    81    79   ar
   146    81    83   ar
   147   113   112    1
   148    79    80   ar
   149    75    74    1
   150    61    58    1
   151    85    83   ar
   152    83    82   ar
   153    80    82   ar
   154    70    69    1
   155    60    59    2
   156    69    66    1
   157    58    59    1
   158    58    57    1
   159    59    65   am
   160    66    65    1
   161    66    67    1
   162    68    67    2
