@<TRIPOS>MOLECULE
tmp/6ddzA00.pdb
 132 123 0 0 0
SMALL
GASTEIGER

@<TRIPOS>ATOM
      1  N         -8.4630   35.5300    4.3530 N.3   112  ALA112     -0.1245
      2  CA        -7.4300   36.3510    3.7230 C.3   112  ALA112      0.1562
      3  C         -7.9610   37.2000    2.5770 C.2   112  ALA112      0.2260
      4  O         -7.2760   38.1270    2.1350 O.2   112  ALA112     -0.2867
      5  CB        -6.2930   35.4590    3.2020 C.3   112  ALA112      0.0290
      6  N        -10.3850   45.1230    2.5790 N.3   142  ARG142     -0.1231
      7  CA        -9.3560   45.2920    3.5980 C.3   142  ARG142      0.1694
      8  C         -8.5210   46.5520    3.3880 C.2   142  ARG142      0.2592
      9  O         -7.9650   47.0860    4.3520 O.2   142  ARG142     -0.2718
     10  CB        -8.4560   44.0640    3.6410 C.3   142  ARG142      0.0321
     11  CG        -9.0580   42.9490    4.4370 C.3   142  ARG142      0.0489
     12  CD        -7.9900   42.1450    5.1160 C.3   142  ARG142      0.2205
     13  NE        -7.3070   41.2870    4.1640 N.pl3 142  ARG142     -0.0865
     14  CZ        -5.9970   41.2890    3.9580 C.cat 142  ARG142      0.5346
     15  NH1       -5.2070   42.1010    4.6500 N.pl3 142  ARG142      0.1354
     16  NH2       -5.4840   40.4620    3.0620 N.pl3 142  ARG142      0.1354
     17  N         -8.4180   47.0550    2.1570 N.am  143  ASP143     -0.1974
     18  CA        -7.6190   48.2650    2.0020 C.3   143  ASP143      0.1709
     19  C         -8.3250   49.5080    2.5410 C.2   143  ASP143      0.2293
     20  O         -7.6960   50.5680    2.6310 O.2   143  ASP143     -0.2864
     21  CB        -7.1960   48.4490    0.5340 C.3   143  ASP143      0.1436
     22  CG        -8.3680   48.6730   -0.4240 C.2   143  ASP143      0.3671
     23  OD1       -8.1160   48.6550   -1.6530 O.co2 143  ASP143     -0.2456
     24  OD2       -9.5200   48.8720    0.0220 O.co2 143  ASP143     -0.2456
     25  N         -8.7320   51.0400    5.2250 N.3   145  THR145     -0.1218
     26  CA        -8.2240   51.0880    6.5900 C.3   145  THR145      0.1862
     27  C         -8.8560   52.1950    7.4210 C.2   145  THR145      0.2287
     28  O         -8.7310   52.1660    8.6490 O.2   145  THR145     -0.2866
     29  CB        -6.7100   51.2660    6.5870 C.3   145  THR145      0.1770
     30  OG1       -6.3860   52.4290    5.8190 O.3   145  THR145     -0.2211
     31  CG2       -6.0210   50.0540    5.9880 C.3   145  THR145      0.0375
     32  N         -8.0370   46.1740   12.2210 N.3   150  ILE150     -0.1245
     33  CA        -7.6960   44.7910   12.5310 C.3   150  ILE150      0.1561
     34  C         -7.0780   44.7530   13.9210 C.2   150  ILE150      0.2260
     35  O         -6.0820   45.4390   14.1760 O.2   150  ILE150     -0.2867
     36  CB        -6.7260   44.2140   11.4890 C.3   150  ILE150      0.0252
     37  CG1       -7.3450   44.2720   10.0840 C.3   150  ILE150      0.0019
     38  CG2       -6.3470   42.7860   11.8660 C.3   150  ILE150      0.0019
     39  CD1       -6.4230   43.7260    9.0100 C.3   150  ILE150      0.0001
     40  N         -4.9680   43.0720   15.9060 N.3   152  ASN152     -0.1240
     41  CA        -3.8840   42.1100   15.6850 C.3   152  ASN152      0.1653
     42  C         -3.2810   41.5330   16.9570 C.2   152  ASN152      0.2266
     43  O         -2.7550   40.4140   16.9200 O.2   152  ASN152     -0.2867
     44  CB        -2.7250   42.7720   14.9200 C.3   152  ASN152      0.1155
     45  CG        -2.9880   42.9040   13.4550 C.2   152  ASN152      0.2627
     46  OD1       -3.1040   41.9110   12.7430 O.2   152  ASN152     -0.2716
     47  ND2       -3.0400   44.1410   12.9770 N.am  152  ASN152     -0.0877
     48  N          2.1530   40.0340   14.4230 N.3   351  ILE351     -0.1231
     49  CA         2.1580   39.4640   13.0780 C.3   351  ILE351      0.1692
     50  C          2.4260   40.5420   12.0440 C.2   351  ILE351      0.2592
     51  O          3.1030   40.2940   11.0350 O.2   351  ILE351     -0.2718
     52  CB         0.8370   38.7100   12.7980 C.3   351  ILE351      0.0266
     53  CG1        0.8490   38.0830   11.4010 C.3   351  ILE351      0.0019
     54  CG2       -0.3670   39.6190   12.9630 C.3   351  ILE351      0.0020
     55  CD1        1.9670   37.0820   11.1950 C.3   351  ILE351      0.0001
     56  N          1.9430   41.7590   12.2850 N.am  352  PHE352     -0.1976
     57  CA         2.1440   42.8340   11.3230 C.3   352  PHE352      0.1639
     58  C          3.4190   43.6110   11.6360 C.2   352  PHE352      0.2290
     59  O          4.3110   43.7170   10.7870 O.2   352  PHE352     -0.2864
     60  CB         0.9300   43.7740   11.2960 C.3   352  PHE352      0.0560
     61  CG         1.0890   44.9260   10.3370 C.ar  352  PHE352     -0.0200
     62  CD1        0.9050   44.7420    8.9720 C.ar  352  PHE352     -0.0042
     63  CD2        1.4500   46.1850   10.7950 C.ar  352  PHE352     -0.0042
     64  CE1        1.0700   45.8080    8.0720 C.ar  352  PHE352     -0.0003
     65  CE2        1.6220   47.2420    9.9110 C.ar  352  PHE352     -0.0003
     66  CZ         1.4330   47.0510    8.5440 C.ar  352  PHE352     -0.0000
     67  N          5.5420   40.4140    9.5770 N.3   356  LEU356     -0.1231
     68  CA         5.2890   40.8390    8.1940 C.3   356  LEU356      0.1693
     69  C          6.2790   41.9160    7.7650 C.2   356  LEU356      0.2591
     70  O          6.8860   41.8380    6.6870 O.2   356  LEU356     -0.2718
     71  CB         3.8470   41.3470    8.0520 C.3   356  LEU356      0.0284
     72  CG         3.3550   41.7860    6.6570 C.3   356  LEU356      0.0019
     73  CD1        1.8600   41.6230    6.5570 C.3   356  LEU356      0.0001
     74  CD2        3.7470   43.2420    6.3710 C.3   356  LEU356      0.0001
     75  N          6.4790   42.9240    8.6120 N.am  357  LYS357     -0.1980
     76  CA         7.2530   44.0790    8.1720 C.3   357  LYS357      0.1596
     77  C          8.7440   43.7720    8.0970 C.2   357  LYS357      0.2287
     78  O          9.4080   44.1830    7.1440 O.2   357  LYS357     -0.2864
     79  CB         6.9740   45.2720    9.0870 C.3   357  LYS357      0.0298
     80  CG         5.6880   46.0020    8.7100 C.3   357  LYS357      0.0038
     81  CD         5.8610   46.7740    7.4210 C.3   357  LYS357      0.0206
     82  CE         4.5400   47.3700    6.9560 C.3   357  LYS357      0.1093
     83  NZ         4.7210   48.1190    5.6800 N.3   357  LYS357     -0.1314
     84  N          9.0740   41.5900    4.8260 N.3   360  LYS360     -0.1245
     85  CA         8.8900   42.2660    3.5380 C.3   360  LYS360      0.1561
     86  C          9.8620   43.4240    3.3500 C.2   360  LYS360      0.2260
     87  O         10.2930   43.7040    2.2240 O.2   360  LYS360     -0.2867
     88  CB         7.4610   42.7860    3.4040 C.3   360  LYS360      0.0271
     89  CG         6.4120   41.7160    3.4350 C.3   360  LYS360      0.0035
     90  CD         5.0330   42.3190    3.1710 C.3   360  LYS360      0.0206
     91  CE         4.9740   43.0470    1.8450 C.3   360  LYS360      0.1093
     92  NZ         3.5990   43.5640    1.5890 N.3   360  LYS360     -0.1314
     93  N         -7.8130   35.2610    8.1230 N.3   434  LEU434     -0.1245
     94  CA        -6.7420   36.1620    7.7030 C.3   434  LEU434      0.1561
     95  C         -5.4900   35.9390    8.5350 C.2   434  LEU434      0.2260
     96  O         -4.3720   35.8880    8.0030 O.2   434  LEU434     -0.2867
     97  CB        -7.2110   37.6170    7.8250 C.3   434  LEU434      0.0270
     98  CG        -6.1360   38.6940    7.6330 C.3   434  LEU434      0.0019
     99  CD1       -5.5870   38.6550    6.1900 C.3   434  LEU434      0.0001
    100  CD2       -6.7440   40.0430    7.9260 C.3   434  LEU434      0.0001
    101  N         -1.6830   34.9670    7.2190 N.3   438  GLN438     -0.1245
    102  CA        -0.5070   35.8070    7.4080 C.3   438  GLN438      0.1566
    103  C          0.5800   35.0820    8.1920 C.2   438  GLN438      0.2260
    104  O          1.7690   35.2680    7.9080 O.2   438  GLN438     -0.2867
    105  CB        -0.9110   37.1160    8.0850 C.3   438  GLN438      0.0367
    106  CG        -1.9130   37.9250    7.2240 C.3   438  GLN438      0.0905
    107  CD        -2.0300   39.3720    7.6450 C.2   438  GLN438      0.2608
    108  OE1       -2.3260   39.6710    8.8000 O.2   438  GLN438     -0.2717
    109  NE2       -1.8030   40.2830    6.7040 N.am  438  GLN438     -0.0878
    110  N          2.2130   32.9500    5.5340 N.3   441  ARG441     -0.1231
    111  CA         2.9450   33.7070    4.5190 C.3   441  ARG441      0.1694
    112  C          4.2110   34.3700    5.0580 C.2   441  ARG441      0.2592
    113  O          5.2140   34.4610    4.3370 O.2   441  ARG441     -0.2718
    114  CB         2.0420   34.7650    3.8850 C.3   441  ARG441      0.0321
    115  CG         2.6510   35.3880    2.6340 C.3   441  ARG441      0.0489
    116  CD         1.6260   36.1080    1.7630 C.3   441  ARG441      0.2205
    117  NE         0.2900   35.9860    2.3260 N.pl3 441  ARG441     -0.0865
    118  CZ        -0.6700   36.8820    2.1430 C.cat 441  ARG441      0.5346
    119  NH1       -1.8660   36.7070    2.7000 N.pl3 441  ARG441      0.1354
    120  NH2       -0.4240   37.9610    1.4080 N.pl3 441  ARG441      0.1354
    121  N          4.1980   34.8610    6.2990 N.am  442  TYR442     -0.1976
    122  CA         5.2990   35.6950    6.7630 C.3   442  TYR442      0.1639
    123  C          6.0950   35.1300    7.9310 C.2   442  TYR442      0.2290
    124  O          7.2150   35.5980    8.1580 O.2   442  TYR442     -0.2864
    125  CB         4.7900   37.0930    7.1540 C.3   442  TYR442      0.0560
    126  CG         4.1190   37.7980    5.9970 C.ar  442  TYR442     -0.0198
    127  CD1        4.8530   38.2240    4.9010 C.ar  442  TYR442     -0.0009
    128  CD2        2.7470   37.9940    5.9860 C.ar  442  TYR442     -0.0009
    129  CE1        4.2300   38.8520    3.8250 C.ar  442  TYR442      0.0417
    130  CE2        2.1200   38.6170    4.9290 C.ar  442  TYR442      0.0417
    131  CZ         2.8670   39.0450    3.8510 C.ar  442  TYR442      0.1957
    132  OH         2.2390   39.6690    2.8000 O.3   442  TYR442     -0.2866
@<TRIPOS>BOND
     1    23    22   ar
     2    22    24   ar
     3    22    21    1
     4    21    18    1
     5   120   118    1
     6    92    91    1
     7   116   117    1
     8   116   115    1
     9    91    90    1
    10    18    17    1
    11    18    19    1
    12     4     3    2
    13   118   117    2
    14   118   119    1
    15    17     8   am
    16    87    86    2
    17    19    20    2
    18     3     2    1
    19     6     7    1
    20   115   114    1
    21   132   131    1
    22    16    14    1
    23    90    89    1
    24     5     2    1
    25    86    85    1
    26     8     7    1
    27     8     9    2
    28    88    89    1
    29    88    85    1
    30    85    84    1
    31     7    10    1
    32    10    11    1
    33     2     1    1
    34   129   131   ar
    35   129   127   ar
    36   131   130   ar
    37   114   111    1
    38    14    13    2
    39    14    15    1
    40    13    12    1
    41   113   112    2
    42    11    12    1
    43   111   112    1
    44   111   110    1
    45   127   126   ar
    46   130   128   ar
    47   112   121   am
    48    25    26    1
    49    83    82    1
    50    30    29    1
    51   128   126   ar
    52    31    29    1
    53   126   125    1
    54    99    98    1
    55   121   122    1
    56    74    72    1
    57    73    72    1
    58    29    26    1
    59    26    27    1
    60    72    71    1
    61    70    69    2
    62   109   107   am
    63   122   125    1
    64   122   123    1
    65    82    81    1
    66    78    77    2
    67   101   102    1
    68   106   107    1
    69   106   105    1
    70   102   105    1
    71   102   103    1
    72    27    28    2
    73    81    80    1
    74    98    97    1
    75    98   100    1
    76   107   108    2
    77    94    97    1
    78    94    93    1
    79    94    95    1
    80    69    68    1
    81    69    75   am
    82   104   103    2
    83   123   124    2
    84    96    95    2
    85    71    68    1
    86    64    66   ar
    87    64    62   ar
    88    77    76    1
    89    76    75    1
    90    76    79    1
    91    68    67    1
    92    66    65   ar
    93    80    79    1
    94    62    61   ar
    95    39    37    1
    96    65    63   ar
    97    37    36    1
    98    61    63   ar
    99    61    60    1
   100    59    58    2
   101    51    50    2
   102    55    53    1
   103    60    57    1
   104    57    58    1
   105    57    56    1
   106    53    52    1
   107    36    38    1
   108    36    33    1
   109    50    56   am
   110    50    49    1
   111    32    33    1
   112    33    34    1
   113    46    45    2
   114    52    54    1
   115    52    49    1
   116    47    45   am
   117    49    48    1
   118    45    44    1
   119    34    35    2
   120    44    41    1
   121    41    40    1
   122    41    42    1
   123    43    42    2
