@<TRIPOS>MOLECULE
tmp/6de4A01.pdb
 162 156 0 0 0
SMALL
GASTEIGER

@<TRIPOS>ATOM
      1  N         23.3340    7.4640  159.1480 N.3     7  ILE7       -0.1231
      2  CA        24.2400    7.3080  158.0230 C.3     7  ILE7        0.1692
      3  C         25.3540    8.3230  158.1580 C.2     7  ILE7        0.2592
      4  O         25.1150    9.4850  158.4840 O.2     7  ILE7       -0.2718
      5  CB        23.4960    7.4420  156.6530 C.3     7  ILE7        0.0266
      6  CG1       24.4730    7.2350  155.4820 C.3     7  ILE7        0.0019
      7  CG2       22.7430    8.7660  156.5740 C.3     7  ILE7        0.0020
      8  CD1       23.7950    6.8940  154.1290 C.3     7  ILE7        0.0001
      9  N         26.5800    7.8630  157.9350 N.am    8  VAL8       -0.1966
     10  CA        27.7460    8.6990  158.1450 C.3     8  VAL8        0.1727
     11  C         28.9020    8.2230  157.2760 C.2     8  VAL8        0.2616
     12  O         29.0190    7.0380  156.9580 O.2     8  VAL8       -0.2715
     13  CB        28.1780    8.6890  159.6520 C.3     8  VAL8        0.0290
     14  CG1       28.5990    7.2790  160.0760 C.3     8  VAL8        0.0023
     15  CG2       29.3050    9.6840  159.9210 C.3     8  VAL8        0.0023
     16  N         29.7540    9.1600  156.8930 N.am    9  ALA9       -0.1977
     17  CA        31.0320    8.8400  156.2850 C.3     9  ALA9        0.1597
     18  C         32.1490    9.2200  157.2730 C.2     9  ALA9        0.2287
     19  O         32.2030   10.3660  157.7380 O.2     9  ALA9       -0.2864
     20  CB        31.1840    9.5760  154.9510 C.3     9  ALA9        0.0319
     21  N         33.6470   23.1320  159.2190 N.3    20  GLY20      -0.1210
     22  CA        32.3390   23.1290  158.5880 C.3    20  GLY20       0.1956
     23  C         32.3050   22.4930  157.2060 C.2    20  GLY20       0.2612
     24  O         31.3440   22.6810  156.4560 O.2    20  GLY20      -0.2717
     25  N         33.3490   21.7460  156.8570 N.am   21  ASP21      -0.1959
     26  CA        33.3190   20.9780  155.6230 C.3    21  ASP21       0.1840
     27  C         33.7290   19.5280  155.8470 C.2    21  ASP21       0.2621
     28  O         34.1770   19.1440  156.9310 O.2    21  ASP21      -0.2715
     29  CB        34.2160   21.6140  154.5600 C.3    21  ASP21       0.1450
     30  CG        33.5830   21.5690  153.1650 C.2    21  ASP21       0.3671
     31  OD1       33.1300   22.6340  152.6950 O.co2  21  ASP21      -0.2456
     32  OD2       33.5110   20.4750  152.5480 O.co2  21  ASP21      -0.2456
     33  N         33.5580   18.7120  154.8170 N.am   22  LEU22      -0.1977
     34  CA        34.0270   17.3410  154.8950 C.3    22  LEU22       0.1596
     35  C         35.5400   17.3670  154.9740 C.2    22  LEU22       0.2287
     36  O         36.1660   18.2330  154.3830 O.2    22  LEU22      -0.2864
     37  CB        33.5500   16.5280  153.6960 C.3    22  LEU22       0.0297
     38  CG        32.0350   16.3510  153.6370 C.3    22  LEU22       0.0022
     39  CD1       31.6890   15.4210  152.5170 C.3    22  LEU22       0.0001
     40  CD2       31.4980   15.8160  154.9640 C.3    22  LEU22       0.0001
     41  N         30.2780    8.3890  146.8380 N.3    30  GLU30      -0.1231
     42  CA        29.9200    8.3440  148.2400 C.3    30  GLU30       0.1699
     43  C         28.7040    9.2600  148.4490 C.2    30  GLU30       0.2592
     44  O         27.7490    8.8970  149.1380 O.2    30  GLU30      -0.2718
     45  CB        31.0920    8.7530  149.1240 C.3    30  GLU30       0.0402
     46  CG        31.0730    8.0760  150.5100 C.3    30  GLU30       0.1161
     47  CD        29.9590    8.5930  151.4250 C.2    30  GLU30       0.3649
     48  OE1       29.2820    7.7690  152.0930 O.co2  30  GLU30      -0.2457
     49  OE2       29.7790    9.8250  151.4960 O.co2  30  GLU30      -0.2457
     50  N         28.7300   10.4200  147.8060 N.am   31  PHE31      -0.1976
     51  CA        27.6120   11.3500  147.8470 C.3    31  PHE31       0.1639
     52  C         26.3620   10.7560  147.2140 C.2    31  PHE31       0.2290
     53  O         25.2710   10.8890  147.7600 O.2    31  PHE31      -0.2864
     54  CB        27.9850   12.6690  147.1570 C.3    31  PHE31       0.0560
     55  CG        26.8260   13.6040  146.9660 C.ar   31  PHE31      -0.0200
     56  CD1       26.3820   14.4060  148.0080 C.ar   31  PHE31      -0.0042
     57  CD2       26.1730   13.6810  145.7380 C.ar   31  PHE31      -0.0042
     58  CE1       25.3000   15.2730  147.8420 C.ar   31  PHE31      -0.0003
     59  CE2       25.0920   14.5400  145.5560 C.ar   31  PHE31      -0.0003
     60  CZ        24.6600   15.3470  146.6060 C.ar   31  PHE31      -0.0000
     61  N         25.5900    7.6460  146.9300 N.3    33  TYR33      -0.1227
     62  CA        25.1560    6.6330  147.8970 C.3    33  TYR33       0.1736
     63  C         24.3230    7.2690  149.0250 C.2    33  TYR33       0.2595
     64  O         23.2280    6.8030  149.3720 O.2    33  TYR33      -0.2718
     65  CB        26.3800    5.9120  148.4710 C.3    33  TYR33       0.0548
     66  CG        26.0850    4.8430  149.5060 C.ar   33  TYR33      -0.0200
     67  CD1       25.6460    3.5750  149.1240 C.ar   33  TYR33      -0.0009
     68  CD2       26.2740    5.0940  150.8650 C.ar   33  TYR33      -0.0009
     69  CE1       25.3910    2.5840  150.0700 C.ar   33  TYR33       0.0417
     70  CE2       26.0250    4.1080  151.8320 C.ar   33  TYR33       0.0417
     71  CZ        25.5870    2.8600  151.4280 C.ar   33  TYR33       0.1957
     72  OH        25.3420    1.8910  152.3760 O.3    33  TYR33      -0.2866
     73  N         24.8530    8.3510  149.5840 N.am   34  PHE34      -0.1962
     74  CA        24.1660    9.0740  150.6360 C.3    34  PHE34       0.1771
     75  C         22.8020    9.5460  150.1430 C.2    34  PHE34       0.2619
     76  O         21.7790    9.3710  150.8260 O.2    34  PHE34      -0.2715
     77  CB        25.0210   10.2550  151.1080 C.3    34  PHE34       0.0574
     78  CG        24.2740   11.2350  151.9690 C.ar   34  PHE34      -0.0200
     79  CD1       23.9390   10.9110  153.2720 C.ar   34  PHE34      -0.0042
     80  CD2       23.8800   12.4710  151.4620 C.ar   34  PHE34      -0.0042
     81  CE1       23.2300   11.8120  154.0690 C.ar   34  PHE34      -0.0003
     82  CE2       23.1720   13.3810  152.2540 C.ar   34  PHE34      -0.0003
     83  CZ        22.8460   13.0530  153.5570 C.ar   34  PHE34      -0.0000
     84  N         22.7930   10.1300  148.9450 N.am   35  GLN35      -0.1977
     85  CA        21.5700   10.6780  148.3650 C.3    35  GLN35       0.1601
     86  C         20.5330    9.6030  148.1510 C.2    35  GLN35       0.2287
     87  O         19.3860    9.7360  148.5620 O.2    35  GLN35      -0.2864
     88  CB        21.8610   11.3760  147.0410 C.3    35  GLN35       0.0394
     89  CG        22.5980   12.6840  147.1880 C.3    35  GLN35       0.0908
     90  CD        21.6770   13.8460  147.5680 C.2    35  GLN35       0.2608
     91  OE1       21.3990   14.0850  148.7500 O.2    35  GLN35      -0.2717
     92  NE2       21.2160   14.5840  146.5600 N.am   35  GLN35      -0.0878
     93  N         25.3930   20.8640  160.9570 N.3    56  THR56      -0.1218
     94  CA        25.2640   20.0680  159.7500 C.3    56  THR56       0.1862
     95  C         24.3560   20.8000  158.7600 C.2    56  THR56       0.2287
     96  O         24.6690   20.8800  157.5680 O.2    56  THR56      -0.2866
     97  CB        24.7060   18.6550  160.0290 C.3    56  THR56       0.1770
     98  OG1       25.6160   17.9230  160.8490 O.3    56  THR56      -0.2211
     99  CG2       24.5100   17.9000  158.7380 C.3    56  THR56       0.0375
    100  N         26.2450   23.6770  157.2390 N.3    59  SER59      -0.1202
    101  CA        27.4250   23.2720  156.4600 C.3    59  SER59       0.2020
    102  C         27.0480   22.8470  155.0310 C.2    59  SER59       0.2619
    103  O         27.8940   22.7890  154.1330 O.2    59  SER59      -0.2717
    104  CB        28.1760   22.1390  157.1580 C.3    59  SER59       0.2103
    105  OG        27.5640   20.8890  156.8920 O.3    59  SER59      -0.2182
    106  N         25.7720   22.5460  154.8320 N.am   60  ILE60      -0.1966
    107  CA        25.2420   22.2590  153.5130 C.3    60  ILE60       0.1712
    108  C         25.1560   23.5320  152.6710 C.2    60  ILE60       0.2458
    109  O         24.5990   24.5310  153.1250 O.2    60  ILE60      -0.2730
    110  CB        23.8380   21.6210  153.6040 C.3    60  ILE60       0.0289
    111  CG1       23.8720   20.3610  154.4770 C.3    60  ILE60       0.0022
    112  CG2       23.2720   21.3340  152.2160 C.3    60  ILE60       0.0023
    113  CD1       22.4920   19.8220  154.7980 C.3    60  ILE60       0.0001
    114  N         25.7050   23.4970  151.4400 N.am   61  PRO61      -0.2727
    115  CA        25.6030   24.6330  150.5130 C.3    61  PRO61       0.1402
    116  C         24.1750   25.1630  150.4220 C.2    61  PRO61       0.2269
    117  O         23.2390   24.3860  150.2270 O.2    61  PRO61      -0.2865
    118  CB        26.0470   24.0380  149.1700 C.3    61  PRO61       0.0296
    119  CG        26.9540   22.9160  149.5390 C.3    61  PRO61       0.0237
    120  CD        26.4780   22.3760  150.8700 C.3    61  PRO61       0.0939
    121  N         21.5690   23.9170  148.1080 N.3    64  ASN64      -0.1240
    122  CA        21.0710   22.5470  148.1930 C.3    64  ASN64       0.1653
    123  C         20.2340   22.2600  149.4450 C.2    64  ASN64       0.2266
    124  O         19.8330   21.1180  149.6860 O.2    64  ASN64      -0.2867
    125  CB        22.2420   21.5770  148.1050 C.3    64  ASN64       0.1155
    126  CG        23.1610   21.9000  146.9450 C.2    64  ASN64       0.2627
    127  OD1       24.3250   22.2380  147.1460 O.2    64  ASN64      -0.2716
    128  ND2       22.6330   21.8170  145.7200 N.am   64  ASN64      -0.0877
    129  N         17.5890   19.3810  151.8560 N.3    67  LEU67      -0.1245
    130  CA        17.9010   18.1980  151.0710 C.3    67  LEU67       0.1561
    131  C         16.6630   17.7710  150.2850 C.2    67  LEU67       0.2260
    132  O         15.6300   17.4330  150.8700 O.2    67  LEU67      -0.2867
    133  CB        18.4080   17.0750  151.9740 C.3    67  LEU67       0.0270
    134  CG        19.7130   17.4880  152.6590 C.3    67  LEU67       0.0019
    135  CD1       20.2430   16.3970  153.5570 C.3    67  LEU67       0.0001
    136  CD2       20.7650   17.9030  151.6260 C.3    67  LEU67       0.0001
    137  N         21.5510   12.1640  159.8760 N.3   115  VAL115     -0.1245
    138  CA        22.6420   12.4750  158.9580 C.3   115  VAL115      0.1561
    139  C         23.7330   13.3710  159.5560 C.2   115  VAL115      0.2260
    140  O         24.5780   13.8740  158.8220 O.2   115  VAL115     -0.2867
    141  CB        22.0940   13.1480  157.6640 C.3   115  VAL115      0.0252
    142  CG1       21.0820   12.2450  156.9910 C.3   115  VAL115      0.0019
    143  CG2       21.4620   14.5140  157.9750 C.3   115  VAL115      0.0019
    144  N         24.4970   11.7550  166.4640 N.3   121  TYR121     -0.1241
    145  CA        24.8880   10.3520  166.3350 C.3   121  TYR121      0.1605
    146  C         24.9300    9.6450  167.6930 C.2   121  TYR121      0.2264
    147  O         24.3700    8.5560  167.8570 O.2   121  TYR121     -0.2867
    148  CB        26.2510   10.2370  165.6510 C.3   121  TYR121      0.0534
    149  CG        26.2380   10.5300  164.1710 C.ar  121  TYR121     -0.0201
    150  CD1       25.2570    9.9900  163.3350 C.ar  121  TYR121     -0.0009
    151  CD2       27.2080   11.3410  163.6040 C.ar  121  TYR121     -0.0009
    152  CE1       25.2490   10.2590  161.9800 C.ar  121  TYR121      0.0417
    153  CE2       27.2100   11.6200  162.2510 C.ar  121  TYR121      0.0417
    154  CZ        26.2330   11.0740  161.4420 C.ar  121  TYR121      0.1957
    155  OH        26.2540   11.3630  160.1020 O.3   121  TYR121     -0.2866
    156  N         30.2550    4.5650  156.1220 N.3   136  THR136     -0.1218
    157  CA        31.2780    4.5380  155.0930 C.3   136  THR136      0.1862
    158  C         32.6410    4.7060  155.7540 C.2   136  THR136      0.2287
    159  O         32.9360    5.7740  156.3120 O.2   136  THR136     -0.2866
    160  CB        31.0640    5.6470  154.0500 C.3   136  THR136      0.1770
    161  OG1       29.7600    5.5180  153.4770 O.3   136  THR136     -0.2211
    162  CG2       32.1380    5.5890  152.9480 C.3   136  THR136      0.0375
@<TRIPOS>BOND
     1    59    57   ar
     2    59    60   ar
     3   128   126   am
     4    57    55   ar
     5    92    90   am
     6    60    58   ar
     7    41    42    1
     8    61    62    1
     9   126   127    2
    10   126   125    1
    11    55    54    1
    12    55    56   ar
    13    88    89    1
    14    88    85    1
    15    54    51    1
    16    89    90    1
    17    52    53    2
    18    52    51    1
    19    90    91    2
    20    50    51    1
    21    50    43   am
    22    58    56   ar
    23    62    65    1
    24    62    63    1
    25   125   122    1
    26   121   122    1
    27    86    85    1
    28    86    87    2
    29   122   123    1
    30    42    43    1
    31    42    45    1
    32    85    84    1
    33    43    44    2
    34    65    66    1
    35    84    75   am
    36    63    64    2
    37    63    73   am
    38    67    66   ar
    39    67    69   ar
    40    45    46    1
    41   118   119    1
    42   118   115    1
    43   123   124    2
    44    66    68   ar
    45   119   120    1
    46    73    74    1
    47    69    71   ar
    48    75    74    1
    49    75    76    2
    50   117   116    2
    51   131   132    2
    52   131   130    1
    53   116   115    1
    54    46    47    1
    55   115   114    1
    56    74    77    1
    57    68    70   ar
    58   120   114    1
    59   130   129    1
    60   130   133    1
    61    77    78    1
    62    47    49   ar
    63    47    48   ar
    64    71    70   ar
    65    71    72    1
    66   114   108   am
    67    80    78   ar
    68    80    82   ar
    69   136   134    1
    70    78    79   ar
    71   133   134    1
    72   112   110    1
    73    82    83   ar
    74    39    38    1
    75    32    30   ar
    76   134   135    1
    77   108   109    2
    78   108   107    1
    79    31    30   ar
    80   162   160    1
    81    30    29    1
    82    79    81   ar
    83   161   160    1
    84   107   110    1
    85   107   106    1
    86    83    81   ar
    87   110   111    1
    88    38    37    1
    89    38    40    1
    90    37    34    1
    91   160   157    1
    92     8     6    1
    93   103   102    2
    94    36    35    2
    95   111   113    1
    96    29    26    1
    97    33    34    1
    98    33    27   am
    99   106   102   am
   100    34    35    1
   101    20    17    1
   102   102   101    1
   103   157   158    1
   104   157   156    1
   105     6     5    1
   106    26    27    1
   107    26    25    1
   108   158   159    2
   109    27    28    2
   110    17    16    1
   111    17    18    1
   112    24    23    2
   113   101   104    1
   114   101   100    1
   115     7     5    1
   116     5     2    1
   117    25    23   am
   118   105   104    1
   119    16    11   am
   120    12    11    2
   121   142   141    1
   122    23    22    1
   123    18    19    2
   124    11    10    1
   125    96    95    2
   126   141   143    1
   127   141   138    1
   128     9    10    1
   129     9     3   am
   130     2     3    1
   131     2     1    1
   132    10    13    1
   133     3     4    2
   134    22    21    1
   135    99    97    1
   136    95    94    1
   137   140   139    2
   138   138   139    1
   139   138   137    1
   140    13    15    1
   141    13    14    1
   142    94    97    1
   143    94    93    1
   144    97    98    1
   145   155   154    1
   146   154   152   ar
   147   154   153   ar
   148   152   150   ar
   149   153   151   ar
   150   150   149   ar
   151   151   149   ar
   152   149   148    1
   153   148   145    1
   154   145   144    1
   155   145   146    1
   156   146   147    2
