@<TRIPOS>MOLECULE
tmp/6de5A01.pdb
 167 159 0 0 0
SMALL
GASTEIGER

@<TRIPOS>ATOM
      1  N        -12.7030  -18.1730   13.2840 N.3    32  ASN32      -0.1225
      2  CA       -12.4290  -17.5860   14.5810 C.3    32  ASN32       0.1785
      3  C        -11.9840  -18.6810   15.5160 C.2    32  ASN32       0.2597
      4  O        -12.7330  -19.6100   15.7770 O.2    32  ASN32      -0.2718
      5  CB       -13.6460  -16.8690   15.1390 C.3    32  ASN32       0.1169
      6  CG       -13.3550  -16.1690   16.4740 C.2    32  ASN32       0.2627
      7  OD1      -12.2270  -15.7170   16.7320 O.2    32  ASN32      -0.2716
      8  ND2      -14.3780  -16.0820   17.3300 N.am   32  ASN32      -0.0877
      9  N        -10.7470  -18.6070   15.9830 N.am   33  PHE33      -0.1962
     10  CA       -10.2900  -19.5470   17.0040 C.3    33  PHE33       0.1771
     11  C         -9.6540  -18.8150   18.1770 C.2    33  PHE33       0.2619
     12  O         -9.3750  -17.6190   18.0850 O.2    33  PHE33      -0.2715
     13  CB        -9.3350  -20.5730   16.3890 C.3    33  PHE33       0.0574
     14  CG       -10.0470  -21.6260   15.5840 C.ar   33  PHE33      -0.0200
     15  CD1      -10.6300  -21.3080   14.3610 C.ar   33  PHE33      -0.0042
     16  CD2      -10.1760  -22.9220   16.0660 C.ar   33  PHE33      -0.0042
     17  CE1      -11.3280  -22.2600   13.6220 C.ar   33  PHE33      -0.0003
     18  CE2      -10.8700  -23.8890   15.3270 C.ar   33  PHE33      -0.0003
     19  CZ       -11.4490  -23.5510   14.1020 C.ar   33  PHE33      -0.0000
     20  N         -9.4720  -19.5280   19.2930 N.am   34  ILE34      -0.1977
     21  CA        -8.7260  -19.0160   20.4500 C.3    34  ILE34       0.1596
     22  C         -7.5970  -19.9950   20.8350 C.2    34  ILE34       0.2287
     23  O         -7.7430  -21.2230   20.7310 O.2    34  ILE34      -0.2864
     24  CB        -9.6480  -18.7550   21.6820 C.3    34  ILE34       0.0276
     25  CG1       -8.8400  -18.1540   22.8360 C.3    34  ILE34       0.0022
     26  CG2      -10.3560  -20.0350   22.1230 C.3    34  ILE34       0.0022
     27  CD1       -9.6690  -17.6830   24.0120 C.3    34  ILE34       0.0001
     28  N        -12.4350  -28.2330   26.9150 N.3    46  THR46      -0.1203
     29  CA       -13.1420  -26.9910   26.5990 C.3    46  THR46       0.1994
     30  C        -12.1480  -25.9820   25.9800 C.2    46  THR46       0.2619
     31  O        -10.9260  -26.1440   26.0960 O.2    46  THR46      -0.2717
     32  CB       -13.8290  -26.3910   27.8660 C.3    46  THR46       0.1784
     33  OG1      -14.9300  -25.5540   27.4870 O.3    46  THR46      -0.2211
     34  CG2      -12.8380  -25.5970   28.7280 C.3    46  THR46       0.0376
     35  N        -12.6630  -24.9780   25.2770 N.am   47  SER47      -0.1937
     36  CA       -11.8470  -23.8210   24.9100 C.3    47  SER47       0.2055
     37  C        -12.3810  -22.5820   25.6380 C.2    47  SER47       0.2643
     38  O        -11.7890  -21.4940   25.5640 O.2    47  SER47      -0.2714
     39  CB       -11.8370  -23.6180   23.3920 C.3    47  SER47       0.2130
     40  OG       -13.1360  -23.7370   22.8390 O.3    47  SER47      -0.2179
     41  N        -13.5000  -22.7820   26.3470 N.am   48  GLY48      -0.1954
     42  CA       -14.1720  -21.7430   27.1050 C.3    48  GLY48       0.1869
     43  C        -13.4100  -21.2330   28.3230 C.2    48  GLY48       0.2309
     44  O        -13.6370  -20.0990   28.7590 O.2    48  GLY48      -0.2863
     45  N        -11.2970  -18.2820   27.4250 N.3    51  ALA51      -0.1245
     46  CA       -12.1020  -17.1790   26.9150 C.3    51  ALA51       0.1562
     47  C        -12.6650  -16.3160   28.0410 C.2    51  ALA51       0.2260
     48  O        -13.4530  -16.8030   28.8290 O.2    51  ALA51      -0.2867
     49  CB       -13.2300  -17.7160   26.0640 C.3    51  ALA51       0.0290
     50  N        -12.9780  -11.9350   24.6840 N.3    55  ASP55      -0.1225
     51  CA       -13.1040  -12.9260   23.6350 C.3    55  ASP55       0.1805
     52  C        -14.5660  -13.2600   23.3260 C.2    55  ASP55       0.2597
     53  O        -14.9590  -13.3560   22.1640 O.2    55  ASP55      -0.2718
     54  CB       -12.3600  -14.1910   24.0250 C.3    55  ASP55       0.1424
     55  CG       -12.3210  -15.2070   22.9060 C.2    55  ASP55       0.3668
     56  OD1      -11.9310  -14.8590   21.7590 O.co2  55  ASP55      -0.2456
     57  OD2      -12.6830  -16.3640   23.1840 O.co2  55  ASP55      -0.2456
     58  N        -15.3670  -13.4440   24.3650 N.am   56  ARG56      -0.1979
     59  CA       -16.7820  -13.7460   24.1740 C.3    56  ARG56       0.1597
     60  C        -17.4880  -12.6830   23.3340 C.2    56  ARG56       0.2287
     61  O        -18.2630  -12.9980   22.4420 O.2    56  ARG56      -0.2864
     62  CB       -17.4780  -13.8810   25.5230 C.3    56  ARG56       0.0334
     63  CG       -17.0990  -15.1200   26.2910 C.3    56  ARG56       0.0492
     64  CD       -18.0110  -15.2530   27.5210 C.3    56  ARG56       0.2205
     65  NE       -17.9000  -16.5900   28.0740 N.pl3  56  ARG56      -0.0865
     66  CZ       -18.8880  -17.2560   28.6460 C.cat  56  ARG56       0.5346
     67  NH1      -20.0870  -16.7090   28.7640 N.pl3  56  ARG56       0.1354
     68  NH2      -18.6590  -18.4770   29.1040 N.pl3  56  ARG56       0.1354
     69  N        -16.4290  -12.9480   19.8830 N.3    59  PHE59      -0.1227
     70  CA       -17.0070  -14.2120   19.4230 C.3    59  PHE59       0.1736
     71  C        -18.4750  -14.0360   18.9940 C.2    59  PHE59       0.2595
     72  O        -18.8740  -14.4910   17.9180 O.2    59  PHE59      -0.2718
     73  CB       -16.8900  -15.2750   20.5290 C.3    59  PHE59       0.0547
     74  CG       -17.4080  -16.6300   20.1380 C.ar   59  PHE59      -0.0202
     75  CD1      -18.7430  -16.9690   20.3460 C.ar   59  PHE59      -0.0042
     76  CD2      -16.5630  -17.5720   19.5570 C.ar   59  PHE59      -0.0042
     77  CE1      -19.2420  -18.2210   19.9700 C.ar   59  PHE59      -0.0003
     78  CE2      -17.0470  -18.8300   19.1850 C.ar   59  PHE59      -0.0003
     79  CZ       -18.3970  -19.1510   19.3970 C.ar   59  PHE59      -0.0000
     80  N        -19.2760  -13.3720   19.8280 N.am   60  ASN60      -0.1974
     81  CA       -20.6850  -13.1720   19.4910 C.3    60  ASN60       0.1688
     82  C        -20.8380  -12.1800   18.3490 C.2    60  ASN60       0.2292
     83  O        -21.6750  -12.3760   17.4750 O.2    60  ASN60      -0.2864
     84  CB       -21.4840  -12.7030   20.7070 C.3    60  ASN60       0.1181
     85  CG       -21.5170  -13.7390   21.7990 C.2    60  ASN60       0.2629
     86  OD1      -21.8570  -14.8940   21.5560 O.2    60  ASN60      -0.2716
     87  ND2      -21.0970  -13.3510   22.9990 N.am   60  ASN60      -0.0877
     88  N        -20.3500  -13.8400   15.1210 N.3    63  ARG63      -0.1245
     89  CA       -21.5680  -14.6000   14.8110 C.3    63  ARG63       0.1563
     90  C        -22.6570  -13.6970   14.2570 C.2    63  ARG63       0.2260
     91  O        -23.3730  -14.0690   13.3330 O.2    63  ARG63      -0.2867
     92  CB       -22.0860  -15.3360   16.0410 C.3    63  ARG63       0.0307
     93  CG       -21.4270  -16.6700   16.2420 C.3    63  ARG63       0.0489
     94  CD       -21.9970  -17.4020   17.4540 C.3    63  ARG63       0.2205
     95  NE       -21.4620  -18.7570   17.4960 N.pl3  63  ARG63      -0.0865
     96  CZ       -22.1070  -19.8160   17.9640 C.cat  63  ARG63       0.5346
     97  NH1      -23.3340  -19.6820   18.4560 N.pl3  63  ARG63       0.1354
     98  NH2      -21.5150  -21.0080   17.9430 N.pl3  63  ARG63       0.1354
     99  N        -19.6900  -25.8630   11.2100 N.3    71  VAL71      -0.1245
    100  CA       -19.0900  -26.5650   12.3250 C.3    71  VAL71       0.1561
    101  C        -18.9800  -28.0510   12.0150 C.2    71  VAL71       0.2260
    102  O        -19.8680  -28.6210   11.4120 O.2    71  VAL71      -0.2867
    103  CB       -19.9130  -26.3550   13.6230 C.3    71  VAL71       0.0252
    104  CG1      -21.3600  -26.8210   13.4390 C.3    71  VAL71       0.0019
    105  CG2      -19.2550  -27.0710   14.7920 C.3    71  VAL71       0.0019
    106  N        -17.4550  -31.2470   17.0970 N.3    75  THR75      -0.1218
    107  CA       -17.6360  -30.1020   17.9840 C.3    75  THR75       0.1862
    108  C        -19.0920  -29.9790   18.4520 C.2    75  THR75       0.2287
    109  O        -19.3660  -29.6860   19.6170 O.2    75  THR75      -0.2866
    110  CB       -17.1980  -28.8090   17.2800 C.3    75  THR75       0.1770
    111  OG1      -15.7740  -28.7520   17.2500 O.3    75  THR75      -0.2211
    112  CG2      -17.7260  -27.5710   17.9940 C.3    75  THR75       0.0375
    113  N        -20.2710  -31.8630   21.5400 N.3    78  ILE78      -0.1231
    114  CA       -19.5900  -31.6240   22.8080 C.3    78  ILE78       0.1692
    115  C        -20.5520  -30.9580   23.8140 C.2    78  ILE78       0.2592
    116  O        -21.4160  -30.1540   23.4360 O.2    78  ILE78      -0.2718
    117  CB       -18.3090  -30.7710   22.6130 C.3    78  ILE78       0.0266
    118  CG1      -17.4310  -31.3300   21.4930 C.3    78  ILE78       0.0019
    119  CG2      -17.4510  -30.8470   23.7920 C.3    78  ILE78       0.0020
    120  CD1      -17.0670  -32.8270   21.6050 C.3    78  ILE78       0.0001
    121  N        -20.3500  -31.3020   25.0870 N.am   79  GLU79      -0.1966
    122  CA       -21.2650  -31.0790   26.2190 C.3    79  GLU79       0.1733
    123  C        -22.3660  -29.9960   26.1410 C.2    79  GLU79       0.2617
    124  O        -23.5370  -30.2800   26.4250 O.2    79  GLU79      -0.2715
    125  CB       -20.4020  -30.8150   27.4720 C.3    79  GLU79       0.0429
    126  CG       -19.9030  -29.3420   27.8050 C.3    79  GLU79       0.1163
    127  CD       -19.3170  -28.5420   26.6290 C.2    79  GLU79       0.3649
    128  OE1      -18.7300  -29.1550   25.7190 O.co2  79  GLU79      -0.2457
    129  OE2      -19.4420  -27.2900   26.6150 O.co2  79  GLU79      -0.2457
    130  N        -22.0110  -28.7710   25.7680 N.am   80  GLY80      -0.1940
    131  CA       -22.8920  -27.6320   25.9450 C.3    80  GLY80       0.2014
    132  C        -22.7870  -26.7410   24.7350 C.2    80  GLY80       0.2639
    133  O        -22.6930  -25.5190   24.8550 O.2    80  GLY80      -0.2714
    134  N        -22.7920  -27.3710   23.5650 N.am   81  TYR81      -0.1959
    135  CA       -22.8660  -26.6520   22.3040 C.3    81  TYR81       0.1771
    136  C        -24.3200  -26.3260   21.9720 C.2    81  TYR81       0.2620
    137  O        -25.0750  -27.1960   21.5260 O.2    81  TYR81      -0.2715
    138  CB       -22.2430  -27.4710   21.1700 C.3    81  TYR81       0.0574
    139  CG       -22.0880  -26.6780   19.8980 C.ar   81  TYR81      -0.0198
    140  CD1      -20.9290  -25.9560   19.6440 C.ar   81  TYR81      -0.0009
    141  CD2      -23.1170  -26.6250   18.9650 C.ar   81  TYR81      -0.0009
    142  CE1      -20.7950  -25.2140   18.4910 C.ar   81  TYR81       0.0417
    143  CE2      -22.9980  -25.8900   17.8130 C.ar   81  TYR81       0.0417
    144  CZ       -21.8400  -25.1850   17.5750 C.ar   81  TYR81       0.1957
    145  OH       -21.7330  -24.4550   16.4130 O.3    81  TYR81      -0.2866
    146  N        -24.7030  -25.0710   22.1800 N.am   82  SER82      -0.1950
    147  CA       -26.0930  -24.6520   22.0310 C.3    82  SER82       0.1924
    148  C        -26.4800  -24.4910   20.5630 C.2    82  SER82       0.2314
    149  O        -25.7380  -24.8800   19.6610 O.2    82  SER82      -0.2863
    150  CB       -26.3200  -23.3330   22.7700 C.3    82  SER82       0.2116
    151  OG       -26.0000  -23.4590   24.1450 O.3    82  SER82      -0.2180
    152  N        -15.8910  -22.0700   13.5950 N.3   181  GLU181     -0.1245
    153  CA       -15.3930  -21.9240   14.9640 C.3   181  GLU181      0.1567
    154  C        -14.7990  -23.2270   15.4840 C.2   181  GLU181      0.2260
    155  O        -14.4100  -23.3100   16.6500 O.2   181  GLU181     -0.2867
    156  CB       -16.5150  -21.4590   15.8990 C.3   181  GLU181      0.0388
    157  CG       -17.1150  -20.1120   15.5400 C.3   181  GLU181      0.1160
    158  CD       -18.4770  -19.8710   16.1870 C.2   181  GLU181      0.3649
    159  OE1      -19.1300  -20.8470   16.5960 O.co2 181  GLU181     -0.2457
    160  OE2      -18.9040  -18.7050   16.2740 O.co2 181  GLU181     -0.2457
    161  N         -7.6930  -15.3050   18.7420 N.3   202  THR202     -0.1218
    162  CA        -7.4760  -14.7350   20.0670 C.3   202  THR202      0.1862
    163  C         -6.2840  -15.4330   20.7240 C.2   202  THR202      0.2287
    164  O         -6.1940  -16.6660   20.7630 O.2   202  THR202     -0.2866
    165  CB        -8.7240  -14.8550   20.9910 C.3   202  THR202      0.1770
    166  OG1       -9.7940  -14.0600   20.4750 O.3   202  THR202     -0.2211
    167  CG2       -8.4060  -14.3420   22.3720 C.3   202  THR202      0.0375
@<TRIPOS>BOND
     1    99   100    1
     2   102   101    2
     3   101   100    1
     4   100   103    1
     5     1     2    1
     6    91    90    2
     7   104   103    1
     8   152   153    1
     9    17    19   ar
    10    17    15   ar
    11   103   105    1
    12    19    18   ar
    13    90    89    1
    14    15    14   ar
    15     2     5    1
    16     2     3    1
    17    89    88    1
    18    89    92    1
    19   153   154    1
    20   153   156    1
    21     5     6    1
    22    18    16   ar
    23   154   155    2
    24     3     4    2
    25     3     9   am
    26   157   156    1
    27   157   158    1
    28    14    16   ar
    29    14    13    1
    30     9    10    1
    31    92    93    1
    32   158   160   ar
    33   158   159   ar
    34    93    94    1
    35    13    10    1
    36   145   144    1
    37     6     7    2
    38     6     8   am
    39    10    11    1
    40   106   107    1
    41   111   110    1
    42   110   107    1
    43   110   112    1
    44    94    95    1
    45    83    82    2
    46    95    96    2
    47   144   143   ar
    48   144   142   ar
    49   143   141   ar
    50    72    71    2
    51    98    96    1
    52    96    97    1
    53   107   108    1
    54    12    11    2
    55    11    20   am
    56    82    81    1
    57   108   109    2
    58   142   140   ar
    59   161   162    1
    60   141   139   ar
    61    71    70    1
    62    71    80   am
    63    78    79   ar
    64    78    76   ar
    65    20    21    1
    66    79    77   ar
    67    70    69    1
    68    70    73    1
    69    81    80    1
    70    81    84    1
    71    76    74   ar
    72   140   139   ar
    73   149   148    2
    74   139   138    1
    75    77    75   ar
    76   162   163    1
    77   162   165    1
    78    74    75   ar
    79    74    73    1
    80    21    22    1
    81    21    24    1
    82   166   165    1
    83   148   147    1
    84    84    85    1
    85   163   164    2
    86    23    22    2
    87   165   167    1
    88   138   135    1
    89   118   120    1
    90   118   117    1
    91   137   136    2
    92   113   114    1
    93    86    85    2
    94    24    26    1
    95    24    25    1
    96    56    55   ar
    97    85    87   am
    98   136   146   am
    99   136   135    1
   100   147   146    1
   101   147   150    1
   102    53    52    2
   103   135   134    1
   104    61    60    2
   105   117   114    1
   106   117   119    1
   107   150   151    1
   108   114   115    1
   109    25    27    1
   110    40    39    1
   111    55    57   ar
   112    55    54    1
   113    52    51    1
   114    52    58   am
   115    60    59    1
   116    39    36    1
   117   116   115    2
   118   134   132   am
   119    51    54    1
   120    51    50    1
   121   115   121   am
   122    59    58    1
   123    59    62    1
   124   132   133    2
   125   132   131    1
   126    36    35    1
   127    36    37    1
   128   121   122    1
   129    35    30   am
   130    62    63    1
   131    38    37    2
   132    37    41   am
   133   128   127   ar
   134   130   131    1
   135   130   123   am
   136    30    31    2
   137    30    29    1
   138    49    46    1
   139   123   122    1
   140   123   124    2
   141   122   125    1
   142    63    64    1
   143    41    42    1
   144    29    28    1
   145    29    32    1
   146   129   127   ar
   147   127   126    1
   148    46    45    1
   149    46    47    1
   150    42    43    1
   151   125   126    1
   152    33    32    1
   153    64    65    1
   154    32    34    1
   155    47    48    2
   156    65    66    2
   157    43    44    2
   158    66    67    1
   159    66    68    1
