@<TRIPOS>MOLECULE
tmp/6debB01.pdb
 91 85 0 0 0
SMALL
GASTEIGER

@<TRIPOS>ATOM
      1  N        -26.5190   -7.4860  -32.4670 N.3    49  TYR49      -0.1241
      2  CA       -25.5160   -7.2120  -31.4380 C.3    49  TYR49       0.1605
      3  C        -24.6200   -8.4030  -31.1510 C.2    49  TYR49       0.2264
      4  O        -23.4180   -8.2330  -30.9480 O.2    49  TYR49      -0.2867
      5  CB       -26.1650   -6.7840  -30.1290 C.3    49  TYR49       0.0534
      6  CG       -26.9290   -5.4990  -30.2690 C.ar   49  TYR49      -0.0201
      7  CD1      -26.3830   -4.4230  -30.9470 C.ar   49  TYR49      -0.0009
      8  CD2      -28.2030   -5.3690  -29.7450 C.ar   49  TYR49      -0.0009
      9  CE1      -27.0860   -3.2470  -31.0850 C.ar   49  TYR49       0.0417
     10  CE2      -28.9090   -4.2050  -29.8880 C.ar   49  TYR49       0.0417
     11  CZ       -28.3500   -3.1440  -30.5480 C.ar   49  TYR49       0.1957
     12  OH       -29.0750   -1.9760  -30.6730 O.3    49  TYR49      -0.2866
     13  N        -21.6640  -14.6970  -21.1970 N.3    95  LEU95      -0.1231
     14  CA       -22.5300  -13.5160  -21.3140 C.3    95  LEU95       0.1693
     15  C        -23.9030  -13.9690  -21.7400 C.2    95  LEU95       0.2592
     16  O        -24.0380  -14.7640  -22.6780 O.2    95  LEU95      -0.2718
     17  CB       -21.9580  -12.5420  -22.3790 C.3    95  LEU95       0.0284
     18  CG       -22.7940  -11.2760  -22.6200 C.3    95  LEU95       0.0019
     19  CD1      -21.9030  -10.0580  -22.8060 C.3    95  LEU95       0.0001
     20  CD2      -23.7000  -11.4300  -23.8300 C.3    95  LEU95       0.0001
     21  N        -24.9270  -13.4880  -21.0430 N.am   96  VAL96      -0.1966
     22  CA       -26.2890  -13.7490  -21.4540 C.3    96  VAL96       0.1727
     23  C        -26.7800  -12.4660  -22.1290 C.2    96  VAL96       0.2616
     24  O        -26.8240  -11.4020  -21.5000 O.2    96  VAL96      -0.2715
     25  CB       -27.1670  -14.1470  -20.2440 C.3    96  VAL96       0.0290
     26  CG1      -28.6180  -14.2750  -20.6780 C.3    96  VAL96       0.0023
     27  CG2      -26.6930  -15.4730  -19.6360 C.3    96  VAL96       0.0023
     28  N        -27.1010  -12.5500  -23.4240 N.am   97  GLN97      -0.1963
     29  CA       -27.5560  -11.3650  -24.1330 C.3    97  GLN97       0.1733
     30  C        -28.9260  -10.8960  -23.6370 C.2    97  GLN97       0.2616
     31  O        -29.9040  -11.6670  -23.6300 O.2    97  GLN97      -0.2715
     32  CB       -27.5840  -11.6370  -25.6430 C.3    97  GLN97       0.0408
     33  CG       -28.0280  -10.4390  -26.4750 C.3    97  GLN97       0.0908
     34  CD       -27.0070   -9.3080  -26.4670 C.2    97  GLN97       0.2608
     35  OE1      -25.8120   -9.5280  -26.2540 O.2    97  GLN97      -0.2717
     36  NE2      -27.4910   -8.0840  -26.6520 N.am   97  GLN97      -0.0878
     37  N        -29.0000   -9.6380  -23.2030 N.am   98  LEU98      -0.1977
     38  CA       -30.2730   -9.0770  -22.7560 C.3    98  LEU98       0.1596
     39  C        -30.9470   -8.3220  -23.9010 C.2    98  LEU98       0.2287
     40  O        -30.2750   -7.7980  -24.7880 O.2    98  LEU98      -0.2864
     41  CB       -30.0450   -8.1520  -21.5490 C.3    98  LEU98       0.0297
     42  CG       -29.3080   -8.8140  -20.3810 C.3    98  LEU98       0.0022
     43  CD1      -28.9850   -7.7530  -19.2920 C.3    98  LEU98       0.0001
     44  CD2      -30.1180   -9.9610  -19.7930 C.3    98  LEU98       0.0001
     45  N        -19.7870   -9.6210  -17.7030 N.3   120  ASP120     -0.1239
     46  CA       -20.6190   -8.4180  -17.6060 C.3   120  ASP120      0.1674
     47  C        -20.5420   -7.7690  -16.2270 C.2   120  ASP120      0.2266
     48  O        -21.0230   -6.6650  -16.0240 O.2   120  ASP120     -0.2867
     49  CB       -22.1070   -8.7510  -17.8540 C.3   120  ASP120      0.1410
     50  CG       -22.5210   -8.5620  -19.2940 C.2   120  ASP120      0.3668
     51  OD1      -22.1900   -7.5070  -19.8840 O.co2 120  ASP120     -0.2456
     52  OD2      -23.1900   -9.4900  -19.8210 O.co2 120  ASP120     -0.2456
     53  N        -22.2730   -8.5910  -13.6290 N.3   122  PHE122     -0.1241
     54  CA       -23.6380   -8.4420  -13.1060 C.3   122  PHE122      0.1605
     55  C        -23.9110   -9.2710  -11.8460 C.2   122  PHE122      0.2264
     56  O        -24.8970   -9.0260  -11.1360 O.2   122  PHE122     -0.2867
     57  CB       -24.6650   -8.8460  -14.1820 C.3   122  PHE122      0.0534
     58  CG       -24.7450   -7.8970  -15.3720 C.ar  122  PHE122     -0.0203
     59  CD1      -24.3720   -6.5710  -15.2630 C.ar  122  PHE122     -0.0042
     60  CD2      -25.2180   -8.3630  -16.5940 C.ar  122  PHE122     -0.0042
     61  CE1      -24.4600   -5.7010  -16.3730 C.ar  122  PHE122     -0.0003
     62  CE2      -25.3020   -7.5020  -17.7080 C.ar  122  PHE122     -0.0003
     63  CZ       -24.9220   -6.1960  -17.5870 C.ar  122  PHE122     -0.0000
     64  N        -20.0380   -1.2970  -19.5890 N.3   142  THR142     -0.1218
     65  CA       -20.3350    0.0650  -20.0370 C.3   142  THR142      0.1862
     66  C        -19.6670    1.1190  -19.1520 C.2   142  THR142      0.2287
     67  O        -18.9000    1.9480  -19.6660 O.2   142  THR142     -0.2866
     68  CB       -21.8500    0.3100  -20.1250 C.3   142  THR142      0.1770
     69  OG1      -22.4480   -0.7000  -20.9420 O.3   142  THR142     -0.2211
     70  CG2      -22.1490    1.6900  -20.7520 C.3   142  THR142      0.0375
     71  N        -25.7850    0.2470  -16.0470 N.3   171  VAL171     -0.1245
     72  CA       -24.9090    1.4080  -16.2360 C.3   171  VAL171      0.1561
     73  C        -24.8650    2.3800  -15.0830 C.2   171  VAL171      0.2260
     74  O        -23.8050    2.6510  -14.5330 O.2   171  VAL171     -0.2867
     75  CB       -25.3210    2.2430  -17.4930 C.3   171  VAL171      0.0252
     76  CG1      -24.2820    3.3620  -17.7300 C.3   171  VAL171      0.0019
     77  CG2      -25.3940    1.3720  -18.7070 C.3   171  VAL171      0.0019
     78  N        -24.4050    7.7510  -23.0670 N.3   230  VAL230     -0.1245
     79  CA       -24.5560    6.3010  -23.1550 C.3   230  VAL230      0.1561
     80  C        -25.7770    5.9380  -23.9860 C.2   230  VAL230      0.2260
     81  O        -26.0070    4.7630  -24.3370 O.2   230  VAL230     -0.2867
     82  CB       -24.6800    5.7000  -21.7150 C.3   230  VAL230      0.0252
     83  CG1      -24.8000    4.1550  -21.7410 C.3   230  VAL230      0.0019
     84  CG2      -23.4840    6.1440  -20.8820 C.3   230  VAL230      0.0019
     85  N        -17.8710   -0.2520  -24.8330 N.3   267  THR267     -0.1218
     86  CA       -18.5680   -1.2940  -24.0890 C.3   267  THR267      0.1862
     87  C        -18.1430   -2.6540  -24.6440 C.2   267  THR267      0.2287
     88  O        -17.8770   -3.5990  -23.8820 O.2   267  THR267     -0.2866
     89  CB       -20.0970   -1.1100  -24.1730 C.3   267  THR267      0.1770
     90  OG1      -20.4480    0.1260  -23.5410 O.3   267  THR267     -0.2211
     91  CG2      -20.8400   -2.2610  -23.4700 C.3   267  THR267      0.0375
@<TRIPOS>BOND
     1     1     2    1
     2     2     3    1
     3     2     5    1
     4     3     4    2
     5     9     7   ar
     6     9    11   ar
     7     7     6   ar
     8    12    11    1
     9    11    10   ar
    10     6     5    1
    11     6     8   ar
    12    10     8   ar
    13    36    34   am
    14    33    34    1
    15    33    32    1
    16    34    35    2
    17    32    29    1
    18    85    86    1
    19    40    39    2
    20    87    86    1
    21    87    88    2
    22    81    80    2
    23    89    86    1
    24    89    90    1
    25    89    91    1
    26    29    30    1
    27    29    28    1
    28    80    79    1
    29    39    38    1
    30    20    18    1
    31    30    31    2
    32    30    37   am
    33    28    23   am
    34    37    38    1
    35    79    78    1
    36    79    82    1
    37    19    18    1
    38    38    41    1
    39    16    15    2
    40    18    17    1
    41    17    14    1
    42    23    24    2
    43    23    22    1
    44    83    82    1
    45    15    14    1
    46    15    21   am
    47    82    84    1
    48    41    42    1
    49    22    21    1
    50    22    25    1
    51    14    13    1
    52    69    68    1
    53    70    68    1
    54    26    25    1
    55    42    44    1
    56    42    43    1
    57    25    27    1
    58    68    65    1
    59    65    64    1
    60    65    66    1
    61    51    50   ar
    62    52    50   ar
    63    67    66    2
    64    50    49    1
    65    77    75    1
    66    49    46    1
    67    76    75    1
    68    62    63   ar
    69    62    60   ar
    70    45    46    1
    71    46    47    1
    72    63    61   ar
    73    75    72    1
    74    60    58   ar
    75    61    59   ar
    76    72    71    1
    77    72    73    1
    78    47    48    2
    79    58    59   ar
    80    58    57    1
    81    73    74    2
    82    57    54    1
    83    53    54    1
    84    54    55    1
    85    55    56    2
