@<TRIPOS>MOLECULE
tmp/6debA00.pdb
 107 101 0 0 0
SMALL
GASTEIGER

@<TRIPOS>ATOM
      1  N        -19.1640   -0.6510   23.2380 N.3    49  TYR49      -0.1241
      2  CA       -20.1110   -1.0110   22.1860 C.3    49  TYR49       0.1605
      3  C        -20.5780   -2.4600   22.3210 C.2    49  TYR49       0.2264
      4  O        -21.7600   -2.7480   22.1710 O.2    49  TYR49      -0.2867
      5  CB       -19.4960   -0.8310   20.8000 C.3    49  TYR49       0.0534
      6  CG       -19.2290    0.5980   20.4030 C.ar   49  TYR49      -0.0201
      7  CD1      -20.1700    1.5940   20.6340 C.ar   49  TYR49      -0.0009
      8  CD2      -18.0280    0.9540   19.7940 C.ar   49  TYR49      -0.0009
      9  CE1      -19.9240    2.9110   20.2680 C.ar   49  TYR49       0.0417
     10  CE2      -17.7730    2.2650   19.4290 C.ar   49  TYR49       0.0417
     11  CZ       -18.7280    3.2380   19.6660 C.ar   49  TYR49       0.1957
     12  OH       -18.4820    4.5440   19.3040 O.3    49  TYR49      -0.2866
     13  N        -24.3610   -4.0700   23.0330 N.3    53  LYS53      -0.1245
     14  CA       -25.0300   -5.0280   22.1590 C.3    53  LYS53       0.1561
     15  C        -25.4790   -6.2210   22.9900 C.2    53  LYS53       0.2260
     16  O        -26.5960   -6.7090   22.8480 O.2    53  LYS53      -0.2867
     17  CB       -24.1080   -5.4440   21.0130 C.3    53  LYS53       0.0271
     18  CG       -23.7990   -4.2860   20.0680 C.3    53  LYS53       0.0035
     19  CD       -22.7850   -4.6330   18.9750 C.3    53  LYS53       0.0206
     20  CE       -22.3970   -3.3380   18.2580 C.3    53  LYS53       0.1093
     21  NZ       -21.4090   -3.4820   17.1730 N.3    53  LYS53      -0.1314
     22  N        -21.2510  -11.2660   14.2880 N.3    95  LEU95      -0.1231
     23  CA       -20.7670   -9.9010   14.1030 C.3    95  LEU95       0.1693
     24  C        -19.3170   -9.8260   14.5770 C.2    95  LEU95       0.2592
     25  O        -18.9840  -10.2990   15.6630 O.2    95  LEU95      -0.2718
     26  CB       -21.6230   -8.9360   14.9390 C.3    95  LEU95       0.0284
     27  CG       -21.2610   -7.4630   14.9180 C.3    95  LEU95       0.0019
     28  CD1      -22.5590   -6.6570   15.0300 C.3    95  LEU95       0.0001
     29  CD2      -20.3040   -7.0840   16.0400 C.3    95  LEU95       0.0001
     30  N        -18.4710   -9.1990   13.7660 N.am   96  VAL96      -0.1966
     31  CA       -17.1170   -8.8670   14.2140 C.3    96  VAL96       0.1727
     32  C        -17.0120   -7.3900   14.5050 C.2    96  VAL96       0.2616
     33  O        -17.2110   -6.5430   13.6150 O.2    96  VAL96      -0.2715
     34  CB       -16.0930   -9.2640   13.1440 C.3    96  VAL96       0.0290
     35  CG1      -14.6950   -8.7550   13.5250 C.3    96  VAL96       0.0023
     36  CG2      -16.1410  -10.7810   12.9320 C.3    96  VAL96       0.0023
     37  N        -16.7010   -7.0530   15.7540 N.am   97  GLN97      -0.1963
     38  CA       -16.6250   -5.6620   16.1450 C.3    97  GLN97       0.1733
     39  C        -15.4320   -4.9970   15.4560 C.2    97  GLN97       0.2616
     40  O        -14.3030   -5.4990   15.5130 O.2    97  GLN97      -0.2715
     41  CB       -16.5290   -5.5620   17.6660 C.3    97  GLN97       0.0408
     42  CG       -16.4960   -4.1480   18.2020 C.3    97  GLN97       0.0908
     43  CD       -17.8040   -3.4060   17.9750 C.2    97  GLN97       0.2608
     44  OE1      -18.8860   -3.9780   18.0890 O.2    97  GLN97      -0.2717
     45  NE2      -17.7060   -2.1390   17.6370 N.am   97  GLN97      -0.0878
     46  N        -15.6790   -3.8890   14.7680 N.am   98  LEU98      -0.1977
     47  CA       -14.5940   -3.1660   14.0920 C.3    98  LEU98       0.1596
     48  C        -14.1870   -1.9700   14.9380 C.2    98  LEU98       0.2287
     49  O        -15.0200   -1.3920   15.6340 O.2    98  LEU98      -0.2864
     50  CB       -15.0310   -2.7260   12.6920 C.3    98  LEU98       0.0297
     51  CG       -15.5420   -3.8540   11.7910 C.3    98  LEU98       0.0022
     52  CD1      -16.0970   -3.3010   10.4730 C.3    98  LEU98       0.0001
     53  CD2      -14.4490   -4.8880   11.5370 C.3    98  LEU98       0.0001
     54  N        -24.5150   -7.8050   10.0210 N.3   120  ASP120     -0.1239
     55  CA       -24.0640   -6.4540    9.7180 C.3   120  ASP120      0.1674
     56  C        -24.2300   -6.1100    8.2280 C.2   120  ASP120      0.2266
     57  O        -24.0950   -4.9640    7.8250 O.2   120  ASP120     -0.2867
     58  CB       -22.5800   -6.2960   10.0950 C.3   120  ASP120      0.1410
     59  CG       -22.3700   -5.5640   11.4140 C.2   120  ASP120      0.3668
     60  OD1      -23.0960   -4.5940   11.7240 O.co2 120  ASP120     -0.2456
     61  OD2      -21.4420   -5.9570   12.1420 O.co2 120  ASP120     -0.2456
     62  N        -22.2610   -6.8050    5.7870 N.3   122  PHE122     -0.1241
     63  CA       -20.9710   -6.4140    5.2090 C.3   122  PHE122      0.1605
     64  C        -20.4120   -7.3670    4.1490 C.2   122  PHE122      0.2264
     65  O        -19.5100   -6.9870    3.3980 O.2   122  PHE122     -0.2867
     66  CB       -19.9020   -6.2670    6.3080 C.3   122  PHE122      0.0534
     67  CG       -20.1630   -5.1280    7.2700 C.ar  122  PHE122     -0.0203
     68  CD1      -20.9810   -4.0690    6.9130 C.ar  122  PHE122     -0.0042
     69  CD2      -19.5910   -5.1430    8.5420 C.ar  122  PHE122     -0.0042
     70  CE1      -21.2330   -3.0090    7.8180 C.ar  122  PHE122     -0.0003
     71  CE2      -19.8350   -4.0870    9.4430 C.ar  122  PHE122     -0.0003
     72  CZ       -20.6610   -3.0440    9.0760 C.ar  122  PHE122     -0.0000
     73  N        -26.8170   -2.1630    9.4420 N.3   141  CYS141     -0.1221
     74  CA       -27.6880   -1.7510   10.5240 C.3   141  CYS141      0.1808
     75  C        -27.8620   -0.2510   10.6470 C.2   141  CYS141      0.2601
     76  O        -28.9520    0.2160   10.9710 O.2   141  CYS141     -0.2717
     77  CB       -27.2040   -2.3090   11.8550 C.3   141  CYS141      0.0970
     78  SG       -27.1470   -4.1280   11.9010 S.3   141  CYS141     -0.0800
     79  N        -26.7990    0.5200   10.4260 N.am  142  THR142     -0.1953
     80  CA       -26.9560    1.9710   10.6000 C.3   142  THR142      0.1897
     81  C        -27.8850    2.6000    9.5450 C.2   142  THR142      0.2313
     82  O        -28.8610    3.2610    9.9240 O.2   142  THR142     -0.2863
     83  CB       -25.5850    2.6910   10.6520 C.3   142  THR142      0.1794
     84  OG1      -24.8180    2.1640   11.7370 O.3   142  THR142     -0.2208
     85  CG2      -25.7670    4.1760   10.8630 C.3   142  THR142      0.0378
     86  N        -19.6140    1.1920    5.9480 N.3   170  ILE170     -0.1231
     87  CA       -20.4860    0.9270    7.0900 C.3   170  ILE170      0.1692
     88  C        -21.7580    1.7640    7.0760 C.2   170  ILE170      0.2591
     89  O        -22.8230    1.2780    7.4660 O.2   170  ILE170     -0.2718
     90  CB       -19.7170    1.1300    8.4290 C.3   170  ILE170      0.0266
     91  CG1      -18.5460    0.1570    8.5220 C.3   170  ILE170      0.0019
     92  CG2      -20.6730    0.9630    9.6460 C.3   170  ILE170      0.0020
     93  CD1      -17.7390    0.3080    9.7890 C.3   170  ILE170      0.0001
     94  N        -21.6580    3.0120    6.6220 N.am  171  VAL171     -0.1980
     95  CA       -22.8100    3.9140    6.6020 C.3   171  VAL171      0.1595
     96  C        -23.0890    4.5740    5.2560 C.2   171  VAL171      0.2287
     97  O        -24.1360    4.3550    4.6720 O.2   171  VAL171     -0.2864
     98  CB       -22.6640    5.0520    7.6460 C.3   171  VAL171      0.0276
     99  CG1      -23.9310    5.8960    7.6460 C.3   171  VAL171      0.0022
    100  CG2      -22.3990    4.4770    9.0300 C.3   171  VAL171      0.0022
    101  N        -29.4340    1.7640   15.4300 N.3   267  THR267     -0.1218
    102  CA       -28.4310    0.8840   14.8480 C.3   267  THR267      0.1862
    103  C        -28.4270   -0.4260   15.6070 C.2   267  THR267      0.2287
    104  O        -28.4050   -1.5150   15.0080 O.2   267  THR267     -0.2866
    105  CB       -27.0440    1.5160   14.8750 C.3   267  THR267      0.1770
    106  OG1      -27.0590    2.7160   14.0860 O.3   267  THR267     -0.2211
    107  CG2      -26.0260    0.5150   14.2870 C.3   267  THR267      0.0375
@<TRIPOS>BOND
     1    65    64    2
     2    64    63    1
     3    97    96    2
     4    63    62    1
     5    63    66    1
     6    96    95    1
     7    86    87    1
     8    66    67    1
     9    95    94    1
    10    95    98    1
    11    94    88   am
    12    68    67   ar
    13    68    70   ar
    14    88    87    1
    15    88    89    2
    16    87    90    1
    17    67    69   ar
    18    98    99    1
    19    98   100    1
    20    70    72   ar
    21    57    56    2
    22    56    55    1
    23    90    91    1
    24    90    92    1
    25    91    93    1
    26    69    71   ar
    27    72    71   ar
    28    73    74    1
    29    81    82    2
    30    81    80    1
    31    55    54    1
    32    55    58    1
    33    58    59    1
    34    79    80    1
    35    79    75   am
    36    52    51    1
    37    74    75    1
    38    74    77    1
    39    80    83    1
    40    75    76    2
    41    83    85    1
    42    83    84    1
    43    59    60   ar
    44    59    61   ar
    45    53    51    1
    46    51    50    1
    47    77    78    1
    48    50    47    1
    49    36    34    1
    50    34    35    1
    51    34    31    1
    52    33    32    2
    53    30    31    1
    54    30    24   am
    55   106   105    1
    56    47    46    1
    57    47    48    1
    58    23    22    1
    59    23    24    1
    60    23    26    1
    61    31    32    1
    62   107   105    1
    63    32    37   am
    64    24    25    2
    65    46    39   am
    66   102   105    1
    67   102   101    1
    68   102   103    1
    69    27    26    1
    70    27    28    1
    71    27    29    1
    72    48    49    2
    73   104   103    2
    74    39    40    2
    75    39    38    1
    76    37    38    1
    77    38    41    1
    78    21    20    1
    79    45    43   am
    80    41    42    1
    81    43    44    2
    82    43    42    1
    83    20    19    1
    84    19    18    1
    85    12    11    1
    86    10    11   ar
    87    10     8   ar
    88    11     9   ar
    89     8     6   ar
    90    18    17    1
    91     9     7   ar
    92     6     7   ar
    93     6     5    1
    94     5     2    1
    95    17    14    1
    96    14    15    1
    97    14    13    1
    98     4     3    2
    99     2     3    1
   100     2     1    1
   101    16    15    2
