@<TRIPOS>MOLECULE
tmp/6defC00.pdb
 197 189 0 0 0
SMALL
GASTEIGER

@<TRIPOS>ATOM
      1  N         27.6960   16.4650   24.9870 N.3    43  GLN43      -0.1231
      2  CA        26.3490   16.2580   25.5010 C.3    43  GLN43       0.1698
      3  C         25.9940   17.3410   26.5140 C.2    43  GLN43       0.2593
      4  O         26.8200   17.7420   27.3380 O.2    43  GLN43      -0.2718
      5  CB        26.2460   14.8660   26.1290 C.3    43  GLN43       0.0381
      6  CG        24.8320   14.4130   26.4610 C.3    43  GLN43       0.0905
      7  CD        24.3300   14.9660   27.7750 C.2    43  GLN43       0.2608
      8  OE1       25.1050   15.1930   28.7030 O.2    43  GLN43      -0.2717
      9  NE2       23.0240   15.1830   27.8630 N.am   43  GLN43      -0.0878
     10  N         24.7590   17.8350   26.4270 N.am   44  SER44      -0.1938
     11  CA        24.1890   18.8440   27.3170 C.3    44  SER44       0.2055
     12  C         24.6780   20.2520   27.0030 C.2    44  SER44       0.2644
     13  O         24.4420   21.1650   27.8030 O.2    44  SER44      -0.2714
     14  CB        24.4870   18.5420   28.7910 C.3    44  SER44       0.2130
     15  OG        23.6150   19.2640   29.6440 O.3    44  SER44      -0.2179
     16  N         25.3150   20.4720   25.8530 N.am   45  SER45      -0.1935
     17  CA        25.8350   21.7900   25.5170 C.3    45  SER45       0.2055
     18  C         24.7720   22.7290   24.9590 C.2    45  SER45       0.2644
     19  O         25.0640   23.9130   24.7600 O.2    45  SER45      -0.2714
     20  CB        26.9850   21.6610   24.5120 C.3    45  SER45       0.2130
     21  OG        26.5540   21.0390   23.3140 O.3    45  SER45      -0.2179
     22  N         23.5710   22.2370   24.6870 N.am   46  GLY46      -0.1939
     23  CA        22.5050   23.0560   24.1620 C.3    46  GLY46       0.2014
     24  C         22.2830   22.9500   22.6710 C.2    46  GLY46       0.2639
     25  O         21.7730   23.9040   22.0710 O.2    46  GLY46      -0.2714
     26  N         22.6370   21.8210   22.0560 N.am   47  LYS47      -0.1963
     27  CA        22.5580   21.7010   20.6040 C.3    47  LYS47       0.1728
     28  C         21.1170   21.7810   20.1140 C.2    47  LYS47       0.2617
     29  O         20.8140   22.5160   19.1660 O.2    47  LYS47      -0.2715
     30  CB        23.2000   20.3870   20.1570 C.3    47  LYS47       0.0311
     31  CG        24.6760   20.2690   20.5060 C.3    47  LYS47       0.0038
     32  CD        25.2640   18.9460   20.0250 C.3    47  LYS47       0.0206
     33  CE        24.6090   17.7510   20.6990 C.3    47  LYS47       0.1093
     34  NZ        24.6580   17.8440   22.1840 N.3    47  LYS47      -0.1314
     35  N         20.2160   21.0140   20.7330 N.am   48  SER48      -0.1936
     36  CA        18.8390   20.9610   20.2540 C.3    48  SER48       0.2055
     37  C         18.1860   22.3370   20.2950 C.2    48  SER48       0.2643
     38  O         17.4260   22.6970   19.3890 O.2    48  SER48      -0.2714
     39  CB        18.0360   19.9570   21.0800 C.3    48  SER48       0.2130
     40  OG        18.5350   18.6410   20.9050 O.3    48  SER48      -0.2179
     41  N         18.4740   23.1240   21.3350 N.am   49  SER49      -0.1949
     42  CA        17.9270   24.4740   21.4120 C.3    49  SER49       0.1924
     43  C         18.4080   25.3250   20.2430 C.2    49  SER49       0.2314
     44  O         17.6340   26.0960   19.6640 O.2    49  SER49      -0.2863
     45  CB        18.3260   25.1330   22.7330 C.3    49  SER49       0.2116
     46  OG        17.8470   24.4080   23.8490 O.3    49  SER49      -0.2180
     47  N         12.8700   17.9830   21.4170 N.3    61  PRO61      -0.2102
     48  CA        12.9480   17.7580   22.8670 C.3    61  PRO61       0.1504
     49  C         14.2090   18.3670   23.4640 C.2    61  PRO61       0.2576
     50  O         15.3130   18.1890   22.9440 O.2    61  PRO61      -0.2718
     51  CB        12.9470   16.2300   22.9920 C.3    61  PRO61       0.0282
     52  CG        12.3040   15.7450   21.7400 C.3    61  PRO61       0.0208
     53  CD        12.7220   16.7170   20.6740 C.3    61  PRO61       0.0893
     54  N         14.0330   19.0820   24.5750 N.am   62  ARG62      -0.1966
     55  CA        15.1260   19.7400   25.2740 C.3    62  ARG62       0.1729
     56  C         14.9380   19.5320   26.7690 C.2    62  ARG62       0.2617
     57  O         13.8060   19.5070   27.2600 O.2    62  ARG62      -0.2715
     58  CB        15.1930   21.2470   24.9730 C.3    62  ARG62       0.0348
     59  CG        15.5250   21.5960   23.5280 C.3    62  ARG62       0.0492
     60  CD        15.0690   23.0120   23.1390 C.3    62  ARG62       0.2205
     61  NE        13.6640   23.2810   23.4370 N.pl3  62  ARG62      -0.0865
     62  CZ        13.2290   24.1520   24.3480 C.cat  62  ARG62       0.5346
     63  NH1       14.0800   24.8670   25.0770 N.pl3  62  ARG62       0.1354
     64  NH2       11.9260   24.3100   24.5290 N.pl3  62  ARG62       0.1354
     65  N         16.0450   19.3720   27.4890 N.am   63  GLY63      -0.1940
     66  CA        15.9670   19.2190   28.9280 C.3    63  GLY63       0.2014
     67  C         17.2650   18.6930   29.4980 C.2    63  GLY63       0.2638
     68  O         18.3200   18.7630   28.8580 O.2    63  GLY63      -0.2714
     69  N         17.1740   18.1780   30.7190 N.am   64  GLN64      -0.1977
     70  CA        18.3190   17.6600   31.4470 C.3    64  GLN64       0.1601
     71  C         18.5510   16.1890   31.1140 C.2    64  GLN64       0.2287
     72  O         17.7090   15.5160   30.5170 O.2    64  GLN64      -0.2864
     73  CB        18.1140   17.8480   32.9490 C.3    64  GLN64       0.0394
     74  CG        18.0640   19.3060   33.3720 C.3    64  GLN64       0.0908
     75  CD        17.9100   19.4760   34.8660 C.2    64  GLN64       0.2608
     76  OE1       18.8890   19.6860   35.5830 O.2    64  GLN64      -0.2717
     77  NE2       16.6760   19.3880   35.3460 N.am   64  GLN64      -0.0878
     78  N         20.3690   12.8590   29.3380 N.3    66  ILE66      -0.1231
     79  CA        20.6010   12.4960   27.9450 C.3    66  ILE66       0.1692
     80  C         19.2610   12.6000   27.2250 C.2    66  ILE66       0.2592
     81  O         18.3660   11.7780   27.4400 O.2    66  ILE66      -0.2718
     82  CB        21.1970   11.0900   27.8120 C.3    66  ILE66       0.0266
     83  CG1       22.3430   10.8760   28.8070 C.3    66  ILE66       0.0019
     84  CG2       21.6910   10.8640   26.3890 C.3    66  ILE66       0.0020
     85  CD1       23.4890   11.8670   28.6810 C.3    66  ILE66       0.0001
     86  N         19.1200   13.6130   26.3730 N.am   67  VAL67      -0.1966
     87  CA        17.8470   13.9030   25.7220 C.3    67  VAL67       0.1727
     88  C         17.8610   13.3400   24.3080 C.2    67  VAL67       0.2616
     89  O         17.1570   12.3700   24.0080 O.2    67  VAL67      -0.2715
     90  CB        17.5630   15.4160   25.7130 C.3    67  VAL67       0.0290
     91  CG1       16.2110   15.7000   25.0810 C.3    67  VAL67       0.0023
     92  CG2       17.6270   15.9750   27.1260 C.3    67  VAL67       0.0023
     93  N         18.6540   13.9460   23.4270 N.am   68  THR68      -0.1951
     94  CA        18.7220   13.4950   22.0410 C.3    68  THR68       0.1897
     95  C         19.5110   12.1930   21.9790 C.2    68  THR68       0.2313
     96  O         20.7310   12.1870   22.1710 O.2    68  THR68      -0.2863
     97  CB        19.3640   14.5620   21.1600 C.3    68  THR68       0.1794
     98  OG1       18.7080   15.8190   21.3700 O.3    68  THR68      -0.2208
     99  CG2       19.2530   14.1740   19.6900 C.3    68  THR68       0.0378
    100  N         21.6500   15.7990   16.6390 N.3   156  LEU156     -0.1245
    101  CA        22.4130   14.6010   16.9560 C.3   156  LEU156      0.1561
    102  C         22.6110   14.4860   18.4570 C.2   156  LEU156      0.2260
    103  O         22.5950   15.4990   19.1680 O.2   156  LEU156     -0.2867
    104  CB        23.7870   14.6090   16.2660 C.3   156  LEU156      0.0270
    105  CG        23.7650   14.5010   14.7410 C.3   156  LEU156      0.0019
    106  CD1       25.1480   14.7590   14.1690 C.3   156  LEU156      0.0001
    107  CD2       23.2520   13.1360   14.3120 C.3   156  LEU156      0.0001
    108  N         24.8230   14.1340   21.8270 N.3   158  GLY158     -0.1225
    109  CA        26.0820   14.7510   22.1770 C.3   158  GLY158      0.1811
    110  C         27.1480   13.7240   22.5150 C.2   158  GLY158      0.2280
    111  O         26.8560   12.6210   22.9730 O.2   158  GLY158     -0.2866
    112  N         27.1200   28.6700   23.7590 N.3   224  THR224     -0.1203
    113  CA        25.8620   28.6790   24.4860 C.3   224  THR224      0.1994
    114  C         26.0910   29.0020   25.9630 C.2   224  THR224      0.2617
    115  O         27.2210   29.0470   26.4510 O.2   224  THR224     -0.2717
    116  CB        25.1620   27.3240   24.3570 C.3   224  THR224      0.1784
    117  OG1       25.9740   26.3130   24.9710 O.3   224  THR224     -0.2211
    118  CG2       24.9310   26.9630   22.8970 C.3   224  THR224      0.0376
    119  N         24.9900   29.2390   26.6740 N.am  225  LYS225     -0.1979
    120  CA        25.0060   29.3930   28.1280 C.3   225  LYS225      0.1596
    121  C         25.9070   30.5410   28.5730 C.2   225  LYS225      0.2287
    122  O         26.5360   30.4760   29.6320 O.2   225  LYS225     -0.2864
    123  CB        25.4340   28.0910   28.8120 C.3   225  LYS225      0.0298
    124  CG        24.6000   26.8800   28.4170 C.3   225  LYS225      0.0038
    125  CD        24.9960   25.6370   29.2000 C.3   225  LYS225      0.0206
    126  CE        24.1310   24.4420   28.8150 C.3   225  LYS225      0.1093
    127  NZ        24.4350   23.2460   29.6470 N.3   225  LYS225     -0.1314
    128  N         24.9260   33.1930   29.7310 N.3   227  ASP227     -0.1225
    129  CA        24.3190   33.7430   30.9360 C.3   227  ASP227      0.1805
    130  C         24.7230   33.0000   32.2030 C.2   227  ASP227      0.2597
    131  O         24.3980   33.4670   33.2990 O.2   227  ASP227     -0.2718
    132  CB        22.7920   33.7340   30.8020 C.3   227  ASP227      0.1424
    133  CG        22.2380   32.3540   30.4770 C.2   227  ASP227      0.3668
    134  OD1       22.8540   31.6400   29.6600 O.co2 227  ASP227     -0.2456
    135  OD2       21.1870   31.9840   31.0390 O.co2 227  ASP227     -0.2456
    136  N         25.4110   31.8640   32.0880 N.am  228  LEU228     -0.1979
    137  CA        25.7990   31.0700   33.2460 C.3   228  LEU228      0.1596
    138  C         27.2830   31.1780   33.5740 C.2   228  LEU228      0.2287
    139  O         27.7780   30.4230   34.4180 O.2   228  LEU228     -0.2864
    140  CB        25.4310   29.6020   33.0180 C.3   228  LEU228      0.0297
    141  CG        23.9510   29.2710   32.8310 C.3   228  LEU228      0.0022
    142  CD1       23.7720   27.7710   32.6590 C.3   228  LEU228      0.0001
    143  CD2       23.1310   29.7680   34.0080 C.3   228  LEU228      0.0001
    144  N         25.2340   32.8250   22.1950 N.3   253  VAL253     -0.1231
    145  CA        23.7820   32.7500   22.2920 C.3   253  VAL253      0.1692
    146  C         23.3810   32.5120   23.7420 C.2   253  VAL253      0.2592
    147  O         24.1470   31.9790   24.5470 O.2   253  VAL253     -0.2718
    148  CB        23.1880   31.6390   21.3950 C.3   253  VAL253      0.0266
    149  CG1       23.5240   31.8970   19.9360 C.3   253  VAL253      0.0020
    150  CG2       23.6920   30.2730   21.8340 C.3   253  VAL253      0.0020
    151  N         22.1550   32.9170   24.0610 N.am  254  VAL254     -0.1966
    152  CA        21.5440   32.6710   25.3630 C.3   254  VAL254      0.1727
    153  C         20.1850   32.0380   25.0980 C.2   254  VAL254      0.2616
    154  O         19.2490   32.7240   24.6700 O.2   254  VAL254     -0.2715
    155  CB        21.3990   33.9520   26.1940 C.3   254  VAL254      0.0290
    156  CG1       20.6130   33.6780   27.4700 C.3   254  VAL254      0.0023
    157  CG2       22.7700   34.5250   26.5250 C.3   254  VAL254      0.0023
    158  N         20.0790   30.7350   25.3320 N.am  255  ASN255     -0.1958
    159  CA        18.8370   30.0150   25.1200 C.3   255  ASN255      0.1819
    160  C         18.1170   29.8140   26.4500 C.2   255  ASN255      0.2621
    161  O         18.6200   30.1560   27.5210 O.2   255  ASN255     -0.2715
    162  CB        19.1140   28.6880   24.4130 C.3   255  ASN255      0.1195
    163  CG        19.6240   28.8850   23.0000 C.2   255  ASN255      0.2630
    164  OD1       19.2290   29.8280   22.3140 O.2   255  ASN255     -0.2716
    165  ND2       20.5040   27.9970   22.5560 N.am  255  ASN255     -0.0877
    166  N         16.9210   29.2390   26.3740 N.am  256  ARG256     -0.1963
    167  CA        16.1020   29.0490   27.5620 C.3   256  ARG256      0.1729
    168  C         16.7510   28.0510   28.5130 C.2   256  ARG256      0.2617
    169  O         17.1570   26.9580   28.1040 O.2   256  ARG256     -0.2715
    170  CB        14.7090   28.5660   27.1640 C.3   256  ARG256      0.0348
    171  CG        13.7930   29.6690   26.6670 C.3   256  ARG256      0.0492
    172  CD        12.5960   29.1070   25.9240 C.3   256  ARG256      0.2205
    173  NE        12.9710   28.6000   24.6080 N.pl3 256  ARG256     -0.0865
    174  CZ        12.1100   28.1250   23.7130 C.cat 256  ARG256      0.5346
    175  NH1       10.8150   28.0860   23.9870 N.pl3 256  ARG256      0.1354
    176  NH2       12.5480   27.6890   22.5410 N.pl3 256  ARG256      0.1354
    177  N         16.8530   28.4350   29.7800 N.am  257  GLY257     -0.1940
    178  CA        17.2930   27.5250   30.8140 C.3   257  GLY257      0.2014
    179  C         16.1970   26.5410   31.1730 C.2   257  GLY257      0.2638
    180  O         15.0680   26.5990   30.6830 O.2   257  GLY257     -0.2714
    181  N         16.5430   25.6100   32.0660 N.am  258  GLN258     -0.1977
    182  CA        15.5970   24.5550   32.4140 C.3   258  GLN258      0.1601
    183  C         14.3620   25.1260   33.0980 C.2   258  GLN258      0.2287
    184  O         13.2560   24.6050   32.9160 O.2   258  GLN258     -0.2864
    185  CB        16.2670   23.5070   33.3010 C.3   258  GLN258      0.0394
    186  CG        15.4040   22.2800   33.5550 C.3   258  GLN258      0.0908
    187  CD        14.9970   21.5690   32.2710 C.2   258  GLN258      0.2608
    188  OE1       15.8050   21.3970   31.3580 O.2   258  GLN258     -0.2717
    189  NE2       13.7360   21.1590   32.1980 N.am  258  GLN258     -0.0878
    190  N         12.1480   26.2300   30.4280 N.3   261  ILE261     -0.1245
    191  CA        11.4830   25.0840   29.8120 C.3   261  ILE261      0.1561
    192  C         10.3100   24.6350   30.6750 C.2   261  ILE261      0.2260
    193  O          9.2030   24.3990   30.1760 O.2   261  ILE261     -0.2867
    194  CB        12.4860   23.9400   29.5730 C.3   261  ILE261      0.0252
    195  CG1       13.4880   24.3420   28.4860 C.3   261  ILE261      0.0019
    196  CG2       11.7520   22.6580   29.1840 C.3   261  ILE261      0.0019
    197  CD1       14.5570   23.3020   28.1950 C.3   261  ILE261      0.0001
@<TRIPOS>BOND
     1   106   105    1
     2   107   105    1
     3   105   104    1
     4   104   101    1
     5   100   101    1
     6   101   102    1
     7   102   103    2
     8    29    28    2
     9    38    37    2
    10    44    43    2
    11    99    97    1
    12   149   148    1
    13    32    31    1
    14    32    33    1
    15    28    27    1
    16    28    35   am
    17    30    31    1
    18    30    27    1
    19    43    42    1
    20    36    37    1
    21    36    35    1
    22    36    39    1
    23    37    41   am
    24    27    26    1
    25    53    47    1
    26    53    52    1
    27    33    34    1
    28    40    39    1
    29    97    98    1
    30    97    94    1
    31    41    42    1
    32   148   150    1
    33   148   145    1
    34    42    45    1
    35    47    48    1
    36    52    51    1
    37   108   109    1
    38    95    94    1
    39    95    96    2
    40    94    93    1
    41    26    24   am
    42    25    24    2
    43   109   110    1
    44   144   145    1
    45   145   146    1
    46   164   163    2
    47   110   111    2
    48   176   174    1
    49   165   163   am
    50    24    23    1
    51    45    46    1
    52    48    51    1
    53    48    49    1
    54   118   116    1
    55    50    49    2
    56   163   162    1
    57    60    61    1
    58    60    59    1
    59    21    20    1
    60    93    88   am
    61    61    62    2
    62    49    54   am
    63    59    58    1
    64   174   175    1
    65   174   173    2
    66   146   151   am
    67   146   147    2
    68   112   113    1
    69    89    88    2
    70   151   152    1
    71    23    22    1
    72    88    87    1
    73    62    64    1
    74    62    63    1
    75   116   113    1
    76   116   117    1
    77   162   159    1
    78   113   114    1
    79    20    17    1
    80    54    55    1
    81   173   172    1
    82   154   153    2
    83    22    18   am
    84    19    18    2
    85    18    17    1
    86    58    55    1
    87     1     2    1
    88    91    90    1
    89   153   158   am
    90   153   152    1
    91   159   158    1
    92   159   160    1
    93    55    56    1
    94   152   155    1
    95     2     5    1
    96     2     3    1
    97    17    16    1
    98    90    87    1
    99    90    92    1
   100    87    86    1
   101    16    12   am
   102   172   171    1
   103   114   115    2
   104   114   119   am
   105     5     6    1
   106   155   157    1
   107   155   156    1
   108    86    80   am
   109   166   160   am
   110   166   167    1
   111    84    82    1
   112    10     3   am
   113    10    11    1
   114   160   161    2
   115     6     7    1
   116     3     4    2
   117   171   170    1
   118   119   120    1
   119    56    57    2
   120    56    65   am
   121    12    11    1
   122    12    13    2
   123   170   167    1
   124    80    81    2
   125    80    79    1
   126    11    14    1
   127    65    66    1
   128   167   168    1
   129     7     9   am
   130     7     8    2
   131    82    79    1
   132    82    83    1
   133    79    78    1
   134   169   168    2
   135   120   121    1
   136   120   123    1
   137   197   195    1
   138   124   123    1
   139   124   125    1
   140   195   194    1
   141   168   177   am
   142   121   122    2
   143    85    83    1
   144    14    15    1
   145   126   125    1
   146   126   127    1
   147    68    67    2
   148    66    67    1
   149   196   194    1
   150    67    69   am
   151   194   191    1
   152   134   133   ar
   153   128   129    1
   154   177   178    1
   155   191   190    1
   156   191   192    1
   157   193   192    2
   158   133   132    1
   159   133   135   ar
   160    72    71    2
   161   180   179    2
   162    69    70    1
   163   132   129    1
   164   178   179    1
   165   129   130    1
   166    71    70    1
   167   179   181   am
   168   188   187    2
   169    70    73    1
   170   181   182    1
   171   136   130   am
   172   136   137    1
   173   189   187   am
   174   130   131    2
   175   187   186    1
   176   182   183    1
   177   182   185    1
   178   142   141    1
   179   141   140    1
   180   141   143    1
   181   184   183    2
   182    73    74    1
   183   140   137    1
   184   137   138    1
   185   185   186    1
   186    74    75    1
   187   138   139    2
   188    75    77   am
   189    75    76    2
