@<TRIPOS>MOLECULE
tmp/6dejD00.pdb
 89 84 0 0 0
SMALL
GASTEIGER

@<TRIPOS>ATOM
      1  N        -11.9380   17.0210   17.4950 N.3    86  GLU86      -0.1231
      2  CA       -10.9420   16.4740   18.4000 C.3    86  GLU86       0.1699
      3  C        -10.4660   15.1610   17.8060 C.2    86  GLU86       0.2592
      4  O        -11.2740   14.3910   17.2840 O.2    86  GLU86      -0.2718
      5  CB       -11.5160   16.2330   19.8070 C.3    86  GLU86       0.0402
      6  CG       -12.1480   17.4520   20.4540 C.3    86  GLU86       0.1161
      7  CD       -11.3000   18.0260   21.5820 C.2    86  GLU86       0.3649
      8  OE1      -11.6290   19.1220   22.0850 O.co2  86  GLU86      -0.2457
      9  OE2      -10.3070   17.3780   21.9610 O.co2  86  GLU86      -0.2457
     10  N         -9.1630   14.9150   17.8800 N.am   87  ARG87      -0.1966
     11  CA        -8.6120   13.6870   17.3350 C.3    87  ARG87       0.1729
     12  C         -7.5150   13.1530   18.2380 C.2    87  ARG87       0.2616
     13  O         -6.7120   13.9160   18.7750 O.2    87  ARG87      -0.2715
     14  CB        -8.0650   13.8990   15.9160 C.3    87  ARG87       0.0348
     15  CG        -7.5910   12.5970   15.2510 C.3    87  ARG87       0.0492
     16  CD        -7.0800   12.8820   13.8540 C.3    87  ARG87       0.2205
     17  NE        -8.1770   13.2220   12.9510 N.pl3  87  ARG87      -0.0865
     18  CZ        -8.1060   14.1340   11.9770 C.cat  87  ARG87       0.5346
     19  NH1       -9.1510   14.3490   11.1970 N.pl3  87  ARG87       0.1354
     20  NH2       -6.9920   14.8240   11.7840 N.pl3  87  ARG87       0.1354
     21  N         -7.4850   11.8330   18.4100 N.am   88  THR88      -0.1951
     22  CA        -6.3110   11.1540   18.9410 C.3    88  THR88       0.1897
     23  C         -5.7550   10.2780   17.8270 C.2    88  THR88       0.2313
     24  O         -6.5100    9.5420   17.1930 O.2    88  THR88      -0.2863
     25  CB        -6.6550   10.3050   20.1720 C.3    88  THR88       0.1794
     26  OG1       -7.0980   11.1560   21.2400 O.3    88  THR88      -0.2208
     27  CG2       -5.4370    9.5180   20.6290 C.3    88  THR88       0.0378
     28  N         -2.8380    7.4070   17.1940 N.3    90  THR90      -0.1218
     29  CA        -1.8270    6.5110   17.7440 C.3    90  THR90       0.1862
     30  C         -0.9910    5.9190   16.6140 C.2    90  THR90       0.2287
     31  O         -1.5430    5.4060   15.6330 O.2    90  THR90      -0.2866
     32  CB        -2.4610    5.3840   18.5700 C.3    90  THR90       0.1770
     33  OG1       -3.2810    4.5640   17.7310 O.3    90  THR90      -0.2211
     34  CG2       -3.3180    5.9560   19.6900 C.3    90  THR90       0.0375
     35  N          2.0790    9.2020   20.0060 N.3    96  ILE96      -0.1245
     36  CA         0.6690    9.5610   20.1570 C.3    96  ILE96       0.1561
     37  C          0.5320   11.0590   19.9390 C.2    96  ILE96       0.2260
     38  O          1.3270   11.8380   20.4730 O.2    96  ILE96      -0.2867
     39  CB         0.0810    9.1450   21.5180 C.3    96  ILE96       0.0252
     40  CG1       -1.3500    9.6660   21.6450 C.3    96  ILE96       0.0019
     41  CG2        0.9260    9.6280   22.6560 C.3    96  ILE96       0.0019
     42  CD1       -2.2160    8.8950   22.6120 C.3    96  ILE96       0.0001
     43  N        -13.2470    7.1600   12.2200 N.3   152  ARG152     -0.1245
     44  CA       -12.1430    6.2350   12.4340 C.3   152  ARG152      0.1563
     45  C        -11.3990    6.0820   11.1160 C.2   152  ARG152      0.2260
     46  O        -12.0200    6.0420   10.0500 O.2   152  ARG152     -0.2867
     47  CB       -12.6270    4.8300   12.9230 C.3   152  ARG152      0.0307
     48  CG       -13.4450    4.8310   14.2190 C.3   152  ARG152      0.0489
     49  CD       -12.5740    5.1250   15.4390 C.3   152  ARG152      0.2205
     50  NE       -13.3200    4.9780   16.6830 N.pl3 152  ARG152     -0.0865
     51  CZ       -14.0520    5.9360   17.2440 C.cat 152  ARG152      0.5346
     52  NH1      -14.1530    7.1480   16.6800 N.pl3 152  ARG152      0.1354
     53  NH2      -14.6930    5.6840   18.3800 N.pl3 152  ARG152      0.1354
     54  N         -8.7280    8.4910   15.6810 N.3   169  TYR169     -0.1227
     55  CA        -9.9900    8.4840   16.4070 C.3   169  TYR169      0.1736
     56  C        -10.4430    9.9350   16.4720 C.2   169  TYR169      0.2596
     57  O         -9.8000   10.7470   17.1440 O.2   169  TYR169     -0.2718
     58  CB        -9.8160    7.9010   17.8090 C.3   169  TYR169      0.0548
     59  CG        -9.1840    6.5110   17.8380 C.ar  169  TYR169     -0.0200
     60  CD1       -7.8040    6.3440   17.7530 C.ar  169  TYR169     -0.0009
     61  CD2       -9.9710    5.3780   17.9760 C.ar  169  TYR169     -0.0009
     62  CE1       -7.2200    5.0750   17.7810 C.ar  169  TYR169      0.0417
     63  CE2       -9.4020    4.1120   18.0030 C.ar  169  TYR169      0.0417
     64  CZ        -8.0290    3.9620   17.9090 C.ar  169  TYR169      0.1957
     65  OH        -7.4750    2.6790   17.9460 O.3   169  TYR169     -0.2866
     66  N        -11.5400   10.2650   15.7960 N.am  170  THR170     -0.1939
     67  CA       -11.9450   11.6630   15.6570 C.3   170  THR170      0.2028
     68  C        -13.3900   11.8560   16.0900 C.2   170  THR170      0.2642
     69  O        -14.2480   11.0110   15.8210 O.2   170  THR170     -0.2714
     70  CB       -11.7970   12.1480   14.2100 C.3   170  THR170      0.1808
     71  OG1      -10.5530   11.6880   13.6770 O.3   170  THR170     -0.2208
     72  CG2      -11.8180   13.6740   14.1720 C.3   170  THR170      0.0379
     73  N        -13.6680   12.9990   16.7160 N.am  171  SER171     -0.1949
     74  CA       -15.0350   13.4310   16.9740 C.3   171  SER171      0.1924
     75  C        -15.2200   14.8110   16.3740 C.2   171  SER171      0.2314
     76  O        -14.3780   15.6910   16.5710 O.2   171  SER171     -0.2863
     77  CB       -15.3530   13.4700   18.4740 C.3   171  SER171      0.2116
     78  OG       -15.3910   12.1480   19.0030 O.3   171  SER171     -0.2180
     79  N        -17.9540   17.9820   16.2450 N.3   173  ARG173     -0.1245
     80  CA       -19.0930   18.5500   16.9570 C.3   173  ARG173      0.1563
     81  C        -19.5320   19.8480   16.2950 C.2   173  ARG173      0.2260
     82  O        -18.7180   20.7600   16.0940 O.2   173  ARG173     -0.2867
     83  CB       -18.7500   18.7930   18.4320 C.3   173  ARG173      0.0307
     84  CG       -18.3840   17.5190   19.1750 C.3   173  ARG173      0.0489
     85  CD       -18.0570   17.7770   20.6300 C.3   173  ARG173      0.2205
     86  NE       -17.6760   16.5460   21.3190 N.pl3 173  ARG173     -0.0865
     87  CZ       -16.4730   15.9920   21.2410 C.cat 173  ARG173      0.5346
     88  NH1      -15.5290   16.5580   20.5040 N.pl3 173  ARG173      0.1354
     89  NH2      -16.2130   14.8730   21.9000 N.pl3 173  ARG173      0.1354
@<TRIPOS>BOND
     1    46    45    2
     2    45    44    1
     3    19    18    1
     4    20    18    1
     5    18    17    2
     6    43    44    1
     7    44    47    1
     8    47    48    1
     9    17    16    1
    10    71    70    1
    11    16    15    1
    12    72    70    1
    13    70    67    1
    14    48    49    1
    15    15    14    1
    16    49    50    1
    17    31    30    2
    18    67    66    1
    19    67    68    1
    20    54    55    1
    21    66    56   am
    22    69    68    2
    23    14    11    1
    24    68    73   am
    25    82    81    2
    26    79    80    1
    27    81    80    1
    28    75    76    2
    29    75    74    1
    30    55    56    1
    31    55    58    1
    32    56    57    2
    33    30    29    1
    34    52    51    1
    35    50    51    2
    36    73    74    1
    37    80    83    1
    38    74    77    1
    39    24    23    2
    40    28    29    1
    41    51    53    1
    42     4     3    2
    43    11    10    1
    44    11    12    1
    45     1     2    1
    46    33    32    1
    47    29    32    1
    48    60    62   ar
    49    60    59   ar
    50    62    64   ar
    51     3    10   am
    52     3     2    1
    53    58    59    1
    54    23    22    1
    55    59    61   ar
    56    64    65    1
    57    64    63   ar
    58    61    63   ar
    59    12    21   am
    60    12    13    2
    61     2     5    1
    62    21    22    1
    63    83    84    1
    64    77    78    1
    65    32    34    1
    66    22    25    1
    67    84    85    1
    68     5     6    1
    69    37    36    1
    70    37    38    2
    71    35    36    1
    72    36    39    1
    73    25    27    1
    74    25    26    1
    75     6     7    1
    76    88    87    1
    77    85    86    1
    78    87    86    2
    79    87    89    1
    80    39    40    1
    81    39    41    1
    82     7     9   ar
    83     7     8   ar
    84    40    42    1
