@<TRIPOS>MOLECULE
tmp/6deqA01.pdb
 87 83 0 0 0
SMALL
GASTEIGER

@<TRIPOS>ATOM
      1  N         25.4780   84.8970  119.7810 N.3   268  MET268     -0.1230
      2  CA        24.2880   84.0670  119.9690 C.3   268  MET268      0.1702
      3  C         22.9950   84.7850  119.5910 C.2   268  MET268      0.2592
      4  O         22.1370   84.2120  118.9220 O.2   268  MET268     -0.2718
      5  CB        24.1960   83.5810  121.4220 C.3   268  MET268      0.0401
      6  CG        22.8950   82.8440  121.7400 C.3   268  MET268      0.0596
      7  SD        22.8650   82.0360  123.3570 S.3   268  MET268     -0.1393
      8  CE        23.6570   80.4720  122.9860 C.3   268  MET268      0.0692
      9  N         22.8540   86.0330  120.0240 N.am  269  HIS269     -0.1976
     10  CA        21.6620   86.8150  119.7020 C.3   269  HIS269      0.1656
     11  C         22.0160   88.0750  118.9220 C.2   269  HIS269      0.2291
     12  O         21.2540   89.0440  118.8990 O.2   269  HIS269     -0.2864
     13  CB        20.8950   87.1770  120.9780 C.3   269  HIS269      0.0771
     14  CG        20.1810   86.0170  121.5990 C.ar  269  HIS269      0.0820
     15  ND1       19.2380   85.2740  120.9190 N.ar  269  HIS269     -0.2267
     16  CD2       20.2740   85.4660  122.8330 C.ar  269  HIS269      0.1154
     17  CE1       18.7820   84.3170  121.7070 C.ar  269  HIS269      0.1986
     18  NE2       19.3920   84.4130  122.8750 N.ar  269  HIS269     -0.2212
     19  N         32.3410   82.3790  124.6930 N.3   293  ASP293     -0.1225
     20  CA        31.5370   81.3290  124.0640 C.3   293  ASP293      0.1805
     21  C         30.1040   81.7500  123.7180 C.2   293  ASP293      0.2597
     22  O         29.3550   80.9600  123.1470 O.2   293  ASP293     -0.2718
     23  CB        31.5270   80.0540  124.9370 C.3   293  ASP293      0.1424
     24  CG        30.8560   80.2460  126.3030 C.2   293  ASP293      0.3668
     25  OD1       29.8400   80.9630  126.4080 O.co2 293  ASP293     -0.2456
     26  OD2       31.3420   79.6370  127.2800 O.co2 293  ASP293     -0.2456
     27  N         29.7220   82.9790  124.0540 N.am  294  ARG294     -0.1979
     28  CA        28.4590   83.5270  123.5570 C.3   294  ARG294      0.1597
     29  C         28.6640   84.2020  122.1950 C.2   294  ARG294      0.2287
     30  O         27.7000   84.5760  121.5280 O.2   294  ARG294     -0.2864
     31  CB        27.8510   84.5330  124.5440 C.3   294  ARG294      0.0334
     32  CG        27.5240   83.9970  125.9420 C.3   294  ARG294      0.0492
     33  CD        26.4750   82.8880  125.9200 C.3   294  ARG294      0.2205
     34  NE        27.0750   81.5750  125.6960 N.pl3 294  ARG294     -0.0865
     35  CZ        26.4140   80.4250  125.7730 C.cat 294  ARG294      0.5346
     36  NH1       25.1210   80.4180  126.0700 N.pl3 294  ARG294      0.1354
     37  NH2       27.0470   79.2790  125.5570 N.pl3 294  ARG294      0.1354
     38  N         30.2370   80.9570  118.7560 N.3   297  GLY297     -0.1225
     39  CA        29.4810   79.7880  118.3450 C.3   297  GLY297      0.1811
     40  C         30.3630   78.5660  118.5320 C.2   297  GLY297      0.2280
     41  O         31.3060   78.6030  119.3220 O.2   297  GLY297     -0.2866
     42  N         18.8190   91.3680  125.9590 N.3   416  MET416     -0.1245
     43  CA        19.1410   91.1310  124.5560 C.3   416  MET416      0.1570
     44  C         18.3930   92.0890  123.6330 C.2   416  MET416      0.2261
     45  O         18.9570   92.6060  122.6630 O.2   416  MET416     -0.2867
     46  CB        18.8230   89.6820  124.1770 C.3   416  MET416      0.0387
     47  CG        19.7240   88.6490  124.8340 C.3   416  MET416      0.0595
     48  SD        21.4650   88.8550  124.4160 S.3   416  MET416     -0.1393
     49  CE        22.0790   89.7800  125.8280 C.3   416  MET416      0.0692
     50  N         13.8050   84.4410  129.4700 N.3   496  MET496     -0.1230
     51  CA        14.9510   83.7820  128.8580 C.3   496  MET496      0.1702
     52  C         14.9300   82.2810  129.1470 C.2   496  MET496      0.2592
     53  O         15.3050   81.4760  128.2920 O.2   496  MET496     -0.2718
     54  CB        16.2630   84.4000  129.3440 C.3   496  MET496      0.0401
     55  CG        17.5010   83.7910  128.6940 C.3   496  MET496      0.0596
     56  SD        17.4900   83.9450  126.8950 S.3   496  MET496     -0.1393
     57  CE        17.9250   85.6710  126.7140 C.3   496  MET496      0.0692
     58  N         14.4700   81.9010  130.3350 N.am  497  VAL497     -0.1980
     59  CA        14.4130   80.4880  130.6800 C.3   497  VAL497      0.1595
     60  C         13.2240   79.8060  130.0200 C.2   497  VAL497      0.2287
     61  O         13.3350   78.6600  129.5800 O.2   497  VAL497     -0.2864
     62  CB        14.3580   80.2660  132.2060 C.3   497  VAL497      0.0276
     63  CG1       14.5870   78.7910  132.5250 C.3   497  VAL497      0.0022
     64  CG2       15.4140   81.1120  132.8980 C.3   497  VAL497      0.0022
     65  N         14.0400   78.8460  126.4420 N.3   500  TRP500     -0.1241
     66  CA        14.7560   77.5770  126.3340 C.3   500  TRP500      0.1605
     67  C         13.8640   76.3820  126.6730 C.2   500  TRP500      0.2264
     68  O         14.0330   75.2960  126.1160 O.2   500  TRP500     -0.2867
     69  CB        15.9990   77.5900  127.2300 C.3   500  TRP500      0.0550
     70  CG        17.1430   78.3410  126.6110 C.ar  500  TRP500      0.0003
     71  CD1       17.1730   79.6680  126.2740 C.ar  500  TRP500      0.0946
     72  CD2       18.4170   77.8060  126.2420 C.ar  500  TRP500      0.0152
     73  NE1       18.3890   79.9880  125.7220 N.ar  500  TRP500     -0.2442
     74  CE2       19.1710   78.8630  125.6900 C.ar  500  TRP500      0.0810
     75  CE3       18.9960   76.5340  126.3240 C.ar  500  TRP500      0.0012
     76  CZ2       20.4700   78.6870  125.2250 C.ar  500  TRP500      0.0191
     77  CZ3       20.2870   76.3630  125.8610 C.ar  500  TRP500      0.0001
     78  CH2       21.0100   77.4340  125.3190 C.ar  500  TRP500      0.0015
     79  N         23.3780   76.7460  121.1650 N.3   571  ALA571     -0.1231
     80  CA        24.6330   76.2290  121.6950 C.3   571  ALA571      0.1694
     81  C         25.0840   75.0190  120.8940 C.2   571  ALA571      0.2592
     82  O         24.2870   74.1280  120.6060 O.2   571  ALA571     -0.2718
     83  CB        24.4840   75.8640  123.1620 C.3   571  ALA571      0.0304
     84  N         26.3600   74.9980  120.5220 N.am  572  GLY572     -0.1957
     85  CA        26.9080   73.8830  119.7690 C.3   572  GLY572      0.1869
     86  C         26.8920   74.0650  118.2610 C.2   572  GLY572      0.2309
     87  O         27.5060   73.2820  117.5390 O.2   572  GLY572     -0.2863
@<TRIPOS>BOND
     1    87    86    2
     2    86    85    1
     3    39    40    1
     4    39    38    1
     5    40    41    2
     6    12    11    2
     7     4     3    2
     8    11    10    1
     9     3     2    1
    10     3     9   am
    11    10     9    1
    12    10    13    1
    13    85    84    1
    14     1     2    1
    15     2     5    1
    16    84    81   am
    17    82    81    2
    18    81    80    1
    19    15    14   ar
    20    15    17   ar
    21    13    14    1
    22    79    80    1
    23     5     6    1
    24    30    29    2
    25    14    16   ar
    26    80    83    1
    27    17    18   ar
    28     6     7    1
    29    29    28    1
    30    45    44    2
    31    16    18   ar
    32     8     7    1
    33    22    21    2
    34    28    27    1
    35    28    31    1
    36    44    43    1
    37    21    27   am
    38    21    20    1
    39    20    19    1
    40    20    23    1
    41    46    43    1
    42    46    47    1
    43    48    47    1
    44    48    49    1
    45    31    32    1
    46    43    42    1
    47    23    24    1
    48    76    78   ar
    49    76    74   ar
    50    78    77   ar
    51    37    35    1
    52    74    73   ar
    53    74    72   ar
    54    34    35    2
    55    34    33    1
    56    73    71   ar
    57    35    36    1
    58    77    75   ar
    59    33    32    1
    60    68    67    2
    61    72    75   ar
    62    72    70   ar
    63    71    70   ar
    64    24    25   ar
    65    24    26   ar
    66    66    65    1
    67    66    67    1
    68    66    69    1
    69    70    69    1
    70    57    56    1
    71    56    55    1
    72    53    52    2
    73    55    54    1
    74    51    52    1
    75    51    54    1
    76    51    50    1
    77    52    58   am
    78    61    60    2
    79    60    59    1
    80    58    59    1
    81    59    62    1
    82    62    63    1
    83    62    64    1
