@<TRIPOS>MOLECULE
tmp/6deqA02.pdb
 147 142 0 0 0
SMALL
GASTEIGER

@<TRIPOS>ATOM
      1  N         19.2640   90.8190  133.4870 N.3   411  VAL411     -0.1231
      2  CA        19.7140   89.6950  132.6740 C.3   411  VAL411      0.1692
      3  C         18.5230   88.9020  132.1690 C.2   411  VAL411      0.2593
      4  O         17.6540   88.5080  132.9490 O.2   411  VAL411     -0.2718
      5  CB        20.6590   88.7600  133.4670 C.3   411  VAL411      0.0266
      6  CG1       21.0000   87.5070  132.6540 C.3   411  VAL411      0.0020
      7  CG2       21.9200   89.5050  133.8610 C.3   411  VAL411      0.0020
      8  N         18.4820   88.6790  130.8590 N.am  412  GLY412     -0.1942
      9  CA        17.4170   87.9040  130.2450 C.3   412  GLY412      0.2014
     10  C         17.0530   88.4260  128.8670 C.2   412  GLY412      0.2639
     11  O         17.8820   89.0280  128.1830 O.2   412  GLY412     -0.2714
     12  N         15.8080   88.2050  128.4590 N.am  413  GLN413     -0.1963
     13  CA        15.3580   88.6230  127.1350 C.3   413  GLN413      0.1733
     14  C         15.4180   90.1400  126.9520 C.2   413  GLN413      0.2616
     15  O         15.8970   90.6250  125.9260 O.2   413  GLN413     -0.2715
     16  CB        13.9360   88.1270  126.8770 C.3   413  GLN413      0.0408
     17  CG        13.7980   86.6160  126.7940 C.3   413  GLN413      0.0908
     18  CD        12.4210   86.1960  126.3160 C.2   413  GLN413      0.2608
     19  OE1       11.4040   86.6320  126.8590 O.2   413  GLN413     -0.2717
     20  NE2       12.3800   85.3700  125.2780 N.am  413  GLN413     -0.0878
     21  N         14.9310   90.8820  127.9460 N.am  414  HIS414     -0.1973
     22  CA        14.9300   92.3470  127.9020 C.3   414  HIS414      0.1656
     23  C         16.3320   92.8990  127.6410 C.2   414  HIS414      0.2291
     24  O         16.4950   93.8980  126.9460 O.2   414  HIS414     -0.2864
     25  CB        14.3880   92.9230  129.2120 C.3   414  HIS414      0.0771
     26  CG        15.2570   92.6310  130.3950 C.ar  414  HIS414      0.0820
     27  ND1       15.1980   91.4380  131.0820 N.ar  414  HIS414     -0.2267
     28  CD2       16.2350   93.3590  130.9860 C.ar  414  HIS414      0.1154
     29  CE1       16.0890   91.4500  132.0590 C.ar  414  HIS414      0.1986
     30  NE2       16.7340   92.6030  132.0200 N.ar  414  HIS414     -0.2212
     31  N         17.1210   92.3260  123.9330 N.3   417  TRP417     -0.1241
     32  CA        16.3230   93.2330  123.1180 C.3   417  TRP417      0.1605
     33  C         16.8380   94.6630  123.2490 C.2   417  TRP417      0.2264
     34  O         16.8360   95.4170  122.2810 O.2   417  TRP417     -0.2867
     35  CB        14.8470   93.1410  123.5040 C.3   417  TRP417      0.0550
     36  CG        14.1660   91.9380  122.9120 C.ar  417  TRP417      0.0003
     37  CD1       14.3520   91.4250  121.6570 C.ar  417  TRP417      0.0946
     38  CD2       13.2070   91.0860  123.5550 C.ar  417  TRP417      0.0152
     39  NE1       13.5590   90.3170  121.4770 N.ar  417  TRP417     -0.2442
     40  CE2       12.8490   90.0870  122.6240 C.ar  417  TRP417      0.0810
     41  CE3       12.6170   91.0730  124.8240 C.ar  417  TRP417      0.0012
     42  CZ2       11.9270   89.0850  122.9250 C.ar  417  TRP417      0.0191
     43  CZ3       11.6980   90.0770  125.1180 C.ar  417  TRP417      0.0001
     44  CH2       11.3660   89.0960  124.1740 C.ar  417  TRP417      0.0015
     45  N         26.6670   87.3500  134.2070 N.3   437  GLY437     -0.1210
     46  CA        25.2500   87.4890  133.9010 C.3   437  GLY437      0.1956
     47  C         24.3740   87.4890  135.1460 C.2   437  GLY437      0.2613
     48  O         23.5210   86.6190  135.3140 O.2   437  GLY437     -0.2717
     49  N         24.5720   88.4780  136.0120 N.am  438  THR438     -0.1938
     50  CA        23.8760   88.5390  137.3030 C.3   438  THR438      0.2028
     51  C         22.5260   89.2620  137.2510 C.2   438  THR438      0.2642
     52  O         22.4860   90.4780  137.0950 O.2   438  THR438     -0.2714
     53  CB        24.7480   89.2550  138.3580 C.3   438  THR438      0.1808
     54  OG1       26.0770   88.7150  138.3350 O.3   438  THR438     -0.2208
     55  CG2       24.1470   89.1100  139.7600 C.3   438  THR438      0.0379
     56  N         21.4260   88.5240  137.3830 N.am  439  MET439     -0.1976
     57  CA        20.1220   89.1570  137.6110 C.3   439  MET439      0.1605
     58  C         20.1770   90.0490  138.8500 C.2   439  MET439      0.2287
     59  O         20.7980   89.6800  139.8400 O.2   439  MET439     -0.2864
     60  CB        19.0250   88.1110  137.8010 C.3   439  MET439      0.0413
     61  CG        18.7010   87.2780  136.5870 C.3   439  MET439      0.0598
     62  SD        17.5730   85.9530  137.0540 S.3   439  MET439     -0.1393
     63  CE        16.1310   86.8870  137.5630 C.3   439  MET439      0.0692
     64  N         14.1740   93.2920  133.6570 N.3   463  GLY463     -0.1210
     65  CA        13.1460   92.2660  133.6020 C.3   463  GLY463      0.1956
     66  C         12.4030   92.2530  134.9250 C.2   463  GLY463      0.2612
     67  O         12.9240   92.7420  135.9240 O.2   463  GLY463     -0.2717
     68  N         11.1910   91.7090  134.9500 N.am  464  ASP464     -0.1959
     69  CA        10.4380   91.6720  136.2030 C.3   464  ASP464      0.1840
     70  C         11.0980   90.7440  137.2290 C.2   464  ASP464      0.2622
     71  O         11.1570   91.0670  138.4160 O.2   464  ASP464     -0.2715
     72  CB         8.9800   91.2530  135.9620 C.3   464  ASP464      0.1450
     73  CG         8.8530   89.9980  135.1150 C.2   464  ASP464      0.3671
     74  OD1        9.6490   89.8150  134.1710 O.co2 464  ASP464     -0.2456
     75  OD2        7.9500   89.1910  135.4020 O.co2 464  ASP464     -0.2456
     76  N         11.6110   89.6030  136.7780 N.am  465  ALA465     -0.1963
     77  CA        12.2740   88.6760  137.6970 C.3   465  ALA465      0.1728
     78  C         13.6020   89.2490  138.2000 C.2   465  ALA465      0.2616
     79  O         13.9160   89.1390  139.3890 O.2   465  ALA465     -0.2715
     80  CB        12.4900   87.3250  137.0340 C.3   465  ALA465      0.0334
     81  N         14.3740   89.8560  137.2970 N.am  466  SER466     -0.1950
     82  CA        15.6370   90.5020  137.6670 C.3   466  SER466      0.1924
     83  C         15.4170   91.6390  138.6540 C.2   466  SER466      0.2314
     84  O         16.1640   91.7890  139.6240 O.2   466  SER466     -0.2863
     85  CB        16.3710   91.0520  136.4320 C.3   466  SER466      0.2116
     86  OG        16.7930   90.0210  135.5600 O.3   466  SER466     -0.2180
     87  N         14.9690   90.7640  142.3100 N.3   469  MET469     -0.1245
     88  CA        16.1530   90.3470  143.0520 C.3   469  MET469      0.1570
     89  C         16.6560   91.4270  144.0020 C.2   469  MET469      0.2261
     90  O         17.0210   91.1380  145.1380 O.2   469  MET469     -0.2867
     91  CB        17.2770   89.9470  142.0900 C.3   469  MET469      0.0387
     92  CG        17.0160   88.6490  141.3440 C.3   469  MET469      0.0595
     93  SD        18.1070   87.3200  141.8940 S.3   469  MET469     -0.1393
     94  CE        17.3690   85.9090  141.0670 C.3   469  MET469      0.0692
     95  N         10.1890   95.6150  132.0670 N.3   489  LEU489     -0.1245
     96  CA         9.4390   94.8840  131.0530 C.3   489  LEU489      0.1561
     97  C          8.7380   93.7170  131.7200 C.2   489  LEU489      0.2260
     98  O          9.3360   92.6620  131.9350 O.2   489  LEU489     -0.2867
     99  CB        10.3420   94.3850  129.9220 C.3   489  LEU489      0.0270
    100  CG        10.7650   95.3810  128.8470 C.3   489  LEU489      0.0019
    101  CD1       11.7580   96.4040  129.3900 C.3   489  LEU489      0.0001
    102  CD2       11.3300   94.6540  127.6310 C.3   489  LEU489      0.0001
    103  N          6.6730   90.7670  131.6720 N.3   491  ASN491     -0.1240
    104  CA         6.0560   89.6600  130.9480 C.3   491  ASN491      0.1653
    105  C          5.6350   88.5570  131.9160 C.2   491  ASN491      0.2266
    106  O          5.2330   87.4720  131.4990 O.2   491  ASN491     -0.2867
    107  CB         7.0000   89.1090  129.8670 C.3   491  ASN491      0.1155
    108  CG         8.3930   88.7900  130.3930 C.2   491  ASN491      0.2627
    109  OD1        8.6250   88.7390  131.6030 O.2   491  ASN491     -0.2716
    110  ND2        9.3310   88.5720  129.4750 N.am  491  ASN491     -0.0877
    111  N          7.1940   86.5260  133.6980 N.3   493  GLU493     -0.1231
    112  CA         7.8950   85.2690  133.4860 C.3   493  GLU493      0.1699
    113  C          9.4000   85.4850  133.5150 C.2   493  GLU493      0.2592
    114  O          9.8870   86.6020  133.3220 O.2   493  GLU493     -0.2718
    115  CB         7.4850   84.6410  132.1450 C.3   493  GLU493      0.0402
    116  CG         7.9270   85.4710  130.9350 C.3   493  GLU493      0.1161
    117  CD         7.5620   84.8420  129.5960 C.2   493  GLU493      0.3649
    118  OE1        7.5070   83.5970  129.5040 O.co2 493  GLU493     -0.2457
    119  OE2        7.3400   85.6000  128.6290 O.co2 493  GLU493     -0.2457
    120  N         10.1300   84.4080  133.7710 N.am  494  GLN494     -0.1966
    121  CA        11.5610   84.3810  133.5190 C.3   494  GLN494      0.1733
    122  C         11.7350   84.0440  132.0380 C.2   494  GLN494      0.2617
    123  O         11.9910   82.8970  131.6700 O.2   494  GLN494     -0.2715
    124  CB        12.2560   83.3700  134.4360 C.3   494  GLN494      0.0408
    125  CG        12.2060   83.7780  135.9150 C.3   494  GLN494      0.0908
    126  CD        12.4470   82.6240  136.8730 C.2   494  GLN494      0.2608
    127  OE1       13.1600   81.6730  136.5560 O.2   494  GLN494     -0.2717
    128  NE2       11.8480   82.7050  138.0550 N.am  494  GLN494     -0.0878
    129  N         11.5610   85.0620  131.1970 N.am  495  GLY495     -0.1940
    130  CA        11.4410   84.8880  129.7560 C.3   495  GLY495      0.2014
    131  C         12.5720   84.1450  129.0750 C.2   495  GLY495      0.2639
    132  O         12.3380   83.3170  128.1930 O.2   495  GLY495     -0.2714
    133  N         13.8050   84.4410  129.4700 N.am  496  MET496     -0.1963
    134  CA        14.9510   83.7820  128.8580 C.3   496  MET496      0.1736
    135  C         14.9300   82.2810  129.1470 C.2   496  MET496      0.2616
    136  O         15.3050   81.4760  128.2920 O.2   496  MET496     -0.2715
    137  CB        16.2630   84.4000  129.3440 C.3   496  MET496      0.0427
    138  CG        17.5010   83.7910  128.6940 C.3   496  MET496      0.0599
    139  SD        17.4900   83.9450  126.8950 S.3   496  MET496     -0.1393
    140  CE        17.9250   85.6710  126.7140 C.3   496  MET496      0.0692
    141  N         14.4700   81.9010  130.3350 N.am  497  VAL497     -0.1977
    142  CA        14.4130   80.4880  130.6800 C.3   497  VAL497      0.1596
    143  C         13.2240   79.8060  130.0200 C.2   497  VAL497      0.2287
    144  O         13.3350   78.6600  129.5800 O.2   497  VAL497     -0.2864
    145  CB        14.3580   80.2660  132.2060 C.3   497  VAL497      0.0276
    146  CG1       14.5870   78.7910  132.5250 C.3   497  VAL497      0.0022
    147  CG2       15.4140   81.1120  132.8980 C.3   497  VAL497      0.0022
@<TRIPOS>BOND
     1    39    37   ar
     2    39    40   ar
     3    37    36   ar
     4    34    33    2
     5    40    42   ar
     6    40    38   ar
     7    36    35    1
     8    36    38   ar
     9    42    44   ar
    10    32    33    1
    11    32    35    1
    12    32    31    1
    13    38    41   ar
    14    44    43   ar
    15    41    43   ar
    16    20    18   am
    17    15    14    2
    18    18    17    1
    19    18    19    2
    20   140   139    1
    21    17    16    1
    22    16    13    1
    23   139   138    1
    24    24    23    2
    25    14    13    1
    26    14    21   am
    27    13    12    1
    28   102   100    1
    29    23    22    1
    30    22    21    1
    31    22    25    1
    32    11    10    2
    33   132   131    2
    34   136   135    2
    35    12    10   am
    36   119   117   ar
    37   138   137    1
    38   100   101    1
    39   100    99    1
    40   134   135    1
    41   134   137    1
    42   134   133    1
    43    10     9    1
    44   131   133   am
    45   131   130    1
    46   135   141   am
    47    25    26    1
    48   110   108   am
    49   118   117   ar
    50   144   143    2
    51   117   116    1
    52   130   129    1
    53   107   108    1
    54   107   104    1
    55    99    96    1
    56   143   142    1
    57     9     8    1
    58   141   142    1
    59   108   109    2
    60    26    28   ar
    61    26    27   ar
    62   142   145    1
    63     8     3   am
    64   116   115    1
    65   104   103    1
    66   104   105    1
    67    28    30   ar
    68    96    97    1
    69    96    95    1
    70    27    29   ar
    71   129   122   am
    72   106   105    2
    73   123   122    2
    74    97    98    2
    75    30    29   ar
    76   122   121    1
    77   115   112    1
    78     3     2    1
    79     3     4    2
    80   145   146    1
    81   145   147    1
    82     6     5    1
    83     2     5    1
    84     2     1    1
    85   114   113    2
    86     5     7    1
    87   112   113    1
    88   112   111    1
    89   113   120   am
    90   121   120    1
    91   121   124    1
    92    65    64    1
    93    65    66    1
    94    46    45    1
    95    46    47    1
    96    74    73   ar
    97   124   125    1
    98    66    68   am
    99    66    67    2
   100    68    69    1
   101    73    75   ar
   102    73    72    1
   103    47    48    2
   104    47    49   am
   105    86    85    1
   106   125   126    1
   107    72    69    1
   108    49    50    1
   109    69    70    1
   110    85    82    1
   111   127   126    2
   112    61    62    1
   113    61    60    1
   114    76    70   am
   115    76    77    1
   116   126   128   am
   117    80    77    1
   118    62    63    1
   119    52    51    2
   120    70    71    2
   121    51    50    1
   122    51    56   am
   123    81    82    1
   124    81    78   am
   125    50    53    1
   126    56    57    1
   127    57    60    1
   128    57    58    1
   129    82    83    1
   130    77    78    1
   131    78    79    2
   132    54    53    1
   133    53    55    1
   134    83    84    2
   135    58    59    2
   136    94    93    1
   137    92    93    1
   138    92    91    1
   139    91    88    1
   140    87    88    1
   141    88    89    1
   142    89    90    2
