@<TRIPOS>MOLECULE
tmp/6derA02.pdb
 162 156 0 0 0
SMALL
GASTEIGER

@<TRIPOS>ATOM
      1  N         26.2890   82.2740   61.9940 N.3    94  THR94      -0.1218
      2  CA        25.9970   82.7740   63.3400 C.3    94  THR94       0.1862
      3  C         25.1660   81.7590   64.1570 C.2    94  THR94       0.2287
      4  O         25.5270   81.4600   65.2870 O.2    94  THR94      -0.2866
      5  CB        25.2860   84.1510   63.3020 C.3    94  THR94       0.1770
      6  OG1       26.1960   85.1350   62.8080 O.3    94  THR94      -0.2211
      7  CG2       24.8180   84.5680   64.6940 C.3    94  THR94       0.0375
      8  N         18.9100   89.5420   73.3470 N.3   410  VAL410     -0.1231
      9  CA        20.1040   89.7040   74.1630 C.3   410  VAL410      0.1692
     10  C         20.2160   91.1380   74.6390 C.2   410  VAL410      0.2593
     11  O         20.0910   92.0790   73.8520 O.2   410  VAL410     -0.2718
     12  CB        21.3810   89.3130   73.3910 C.3   410  VAL410      0.0266
     13  CG1       22.6320   89.6360   74.2130 C.3   410  VAL410      0.0020
     14  CG2       21.3390   87.8360   73.0450 C.3   410  VAL410      0.0020
     15  N         20.4350   91.3000   75.9400 N.am  411  GLY411     -0.1942
     16  CA        20.5620   92.6190   76.5280 C.3   411  GLY411      0.2014
     17  C         19.9190   92.6480   77.8990 C.2   411  GLY411      0.2639
     18  O         19.7710   91.6130   78.5470 O.2   411  GLY411     -0.2714
     19  N         19.5190   93.8340   78.3370 N.am  412  GLN412     -0.1963
     20  CA        18.9430   94.0010   79.6650 C.3   412  GLN412      0.1733
     21  C         17.6550   93.2000   79.8460 C.2   412  GLN412      0.2616
     22  O         17.4660   92.5510   80.8690 O.2   412  GLN412     -0.2715
     23  CB        18.6790   95.4760   79.9240 C.3   412  GLN412      0.0408
     24  CG        19.9330   96.3060   80.0490 C.3   412  GLN412      0.0908
     25  CD        19.6190   97.7230   80.4570 C.2   412  GLN412      0.2608
     26  OE1       18.7330   98.3620   79.8880 O.2   412  GLN412     -0.2717
     27  NE2       20.3110   98.2100   81.4760 N.am  412  GLN412     -0.0878
     28  N         16.7760   93.2520   78.8450 N.am  413  HIS413     -0.1973
     29  CA        15.5070   92.5250   78.8860 C.3   413  HIS413      0.1656
     30  C         15.7310   91.0370   79.1420 C.2   413  HIS413      0.2291
     31  O         14.9470   90.3840   79.8280 O.2   413  HIS413     -0.2864
     32  CB        14.7440   92.7060   77.5730 C.3   413  HIS413      0.0771
     33  CG        15.4280   92.0810   76.3980 C.ar  413  HIS413      0.0820
     34  ND1       16.4310   92.7190   75.6960 N.ar  413  HIS413     -0.2267
     35  CD2       15.2900   90.8610   75.8220 C.ar  413  HIS413      0.1154
     36  CE1       16.8630   91.9310   74.7300 C.ar  413  HIS413      0.1986
     37  NE2       16.1910   90.7920   74.7890 N.ar  413  HIS413     -0.2212
     38  N         16.7170   90.6310   82.8350 N.3   416  TRP416     -0.1241
     39  CA        15.5340   90.8820   83.6460 C.3   416  TRP416      0.1605
     40  C         14.5570   89.7210   83.5270 C.2   416  TRP416      0.2264
     41  O         13.9360   89.3320   84.5110 O.2   416  TRP416     -0.2867
     42  CB        14.8810   92.1960   83.2380 C.3   416  TRP416      0.0550
     43  CG        15.5960   93.3960   83.8160 C.ar  416  TRP416      0.0003
     44  CD1       16.1740   93.4930   85.0570 C.ar  416  TRP416      0.0946
     45  CD2       15.8280   94.6530   83.1660 C.ar  416  TRP416      0.0152
     46  NE1       16.7340   94.7400   85.2200 N.ar  416  TRP416     -0.2442
     47  CE2       16.5380   95.4700   84.0730 C.ar  416  TRP416      0.0810
     48  CE3       15.5060   95.1660   81.9020 C.ar  416  TRP416      0.0012
     49  CZ2       16.9260   96.7730   83.7590 C.ar  416  TRP416      0.0191
     50  CZ3       15.8880   96.4630   81.5930 C.ar  416  TRP416      0.0001
     51  CH2       16.5940   97.2500   82.5160 C.ar  416  TRP416      0.0015
     52  N         27.1760   82.7140   72.9920 N.3   435  LEU435     -0.1231
     53  CA        27.4930   83.6840   71.9520 C.3   435  LEU435      0.1693
     54  C         26.7450   84.9930   72.2110 C.2   435  LEU435      0.2593
     55  O         27.2810   86.0800   71.9920 O.2   435  LEU435     -0.2718
     56  CB        27.1430   83.1260   70.5690 C.3   435  LEU435      0.0284
     57  CG        27.6970   83.9290   69.3930 C.3   435  LEU435      0.0019
     58  CD1       29.2230   83.9750   69.4490 C.3   435  LEU435      0.0001
     59  CD2       27.2360   83.3350   68.0750 C.3   435  LEU435      0.0001
     60  N         25.5130   84.8800   72.7010 N.am  436  GLY436     -0.1942
     61  CA        24.7060   86.0500   73.0030 C.3   436  GLY436      0.2014
     62  C         24.2760   86.7870   71.7420 C.2   436  GLY436      0.2640
     63  O         24.6100   87.9580   71.5470 O.2   436  GLY436     -0.2714
     64  N         23.5090   86.1030   70.9010 N.am  437  THR437     -0.1936
     65  CA        23.1240   86.6280   69.5880 C.3   437  THR437      0.2028
     66  C         21.8380   87.4480   69.6300 C.2   437  THR437      0.2642
     67  O         20.7530   86.8920   69.8010 O.2   437  THR437     -0.2714
     68  CB        22.9230   85.4820   68.5830 C.3   437  THR437      0.1808
     69  OG1       24.0850   84.6420   68.5770 O.3   437  THR437     -0.2208
     70  CG2       22.6670   86.0370   67.1730 C.3   437  THR437      0.0379
     71  N         21.9490   88.7660   69.4860 N.am  438  MET438     -0.1976
     72  CA        20.7610   89.5940   69.2930 C.3   438  MET438      0.1605
     73  C         20.0100   89.0920   68.0650 C.2   438  MET438      0.2287
     74  O         20.6380   88.7110   67.0800 O.2   438  MET438     -0.2864
     75  CB        21.1260   91.0600   69.0930 C.3   438  MET438      0.0413
     76  CG        21.6790   91.7660   70.3040 C.3   438  MET438      0.0598
     77  SD        22.2690   93.3840   69.7880 S.3   438  MET438     -0.1393
     78  CE        20.7210   94.2110   69.4420 C.3   438  MET438      0.0692
     79  N         14.2510   92.6530   73.1560 N.3   462  GLY462     -0.1210
     80  CA        14.6450   94.0470   73.2220 C.3   462  GLY462      0.1956
     81  C         14.2340   94.7120   71.9270 C.2   462  GLY462      0.2612
     82  O         14.0050   94.0240   70.9360 O.2   462  GLY462     -0.2717
     83  N         14.1340   96.0370   71.9130 N.am  463  ASP463     -0.1959
     84  CA        13.8010   96.7070   70.6650 C.3   463  ASP463      0.1840
     85  C         14.9440   96.5650   69.6580 C.2   463  ASP463      0.2622
     86  O         14.7020   96.3030   68.4750 O.2   463  ASP463     -0.2715
     87  CB        13.4480   98.1910   70.8940 C.3   463  ASP463      0.1450
     88  CG        14.4870   98.9350   71.7150 C.2   463  ASP463      0.3671
     89  OD1       14.9720   98.3920   72.7330 O.co2 463  ASP463     -0.2456
     90  OD2       14.7970  100.0870   71.3530 O.co2 463  ASP463     -0.2456
     91  N         16.1850   96.7100   70.1160 N.am  464  ALA464     -0.1963
     92  CA        17.3190   96.5960   69.1990 C.3   464  ALA464      0.1728
     93  C         17.4800   95.1570   68.7090 C.2   464  ALA464      0.2616
     94  O         17.7290   94.9350   67.5250 O.2   464  ALA464     -0.2715
     95  CB        18.6010   97.0860   69.8540 C.3   464  ALA464      0.0334
     96  N         17.3350   94.1870   69.6150 N.am  465  SER465     -0.1950
     97  CA        17.4010   92.7670   69.2540 C.3   465  SER465      0.1924
     98  C         16.3250   92.3920   68.2510 C.2   465  SER465      0.2314
     99  O         16.5900   91.7090   67.2590 O.2   465  SER465     -0.2863
    100  CB        17.2540   91.8730   70.4910 C.3   465  SER465      0.2116
    101  OG        18.3690   91.9830   71.3520 O.3   465  SER465     -0.2180
    102  N         16.8010   93.1720   64.6180 N.3   468  MET468     -0.1245
    103  CA        17.7550   92.3530   63.8780 C.3   468  MET468      0.1570
    104  C         17.0720   91.3720   62.9330 C.2   468  MET468      0.2261
    105  O         17.5250   91.1670   61.8120 O.2   468  MET468     -0.2867
    106  CB        18.6580   91.5890   64.8490 C.3   468  MET468      0.0387
    107  CG        19.6370   92.4810   65.5930 C.3   468  MET468      0.0595
    108  SD        21.3350   92.2170   65.0650 S.3   468  MET468     -0.1393
    109  CE        22.1710   93.6180   65.7960 C.3   468  MET468      0.0692
    110  N         10.3660   94.8380   74.8640 N.3   488  LEU488     -0.1245
    111  CA        10.6240   95.8410   75.8920 C.3   488  LEU488      0.1561
    112  C         11.2680   97.0280   75.2190 C.2   488  LEU488      0.2260
    113  O         12.4830   97.0500   75.0090 O.2   488  LEU488     -0.2867
    114  CB        11.5340   95.3190   77.0030 C.3   488  LEU488      0.0270
    115  CG        10.8730   94.5050   78.1020 C.3   488  LEU488      0.0019
    116  CD1       10.4800   93.1320   77.5730 C.3   488  LEU488      0.0001
    117  CD2       11.7930   94.3950   79.3130 C.3   488  LEU488      0.0001
    118  N         12.7780  100.2570   75.2750 N.3   490  ASN490     -0.1240
    119  CA        13.4010  101.3630   75.9910 C.3   490  ASN490      0.1653
    120  C         14.0740  102.3080   75.0040 C.2   490  ASN490      0.2266
    121  O         14.8200  103.2010   75.3950 O.2   490  ASN490     -0.2867
    122  CB        14.4090  100.8570   77.0360 C.3   490  ASN490      0.1155
    123  CG        15.3190   99.7670   76.5030 C.2   490  ASN490      0.2627
    124  OD1       15.4790   99.6080   75.2960 O.2   490  ASN490     -0.2716
    125  ND2       15.9280   99.0110   77.4090 N.am  490  ASN490     -0.0877
    126  N         16.5510  101.9910   73.1220 N.3   492  GLU492     -0.1231
    127  CA        18.0000  102.0180   73.3210 C.3   492  GLU492      0.1699
    128  C         18.5870  100.6130   73.2810 C.2   492  GLU492      0.2592
    129  O         17.8730   99.6180   73.4910 O.2   492  GLU492     -0.2718
    130  CB        18.3530  102.6740   74.6630 C.3   492  GLU492      0.0402
    131  CG        17.8500  101.8740   75.8650 C.3   492  GLU492      0.1161
    132  CD        18.2090  102.5000   77.2100 C.2   492  GLU492      0.3649
    133  OE1       19.1760  103.2950   77.2800 O.co2 492  GLU492     -0.2457
    134  OE2       17.5160  102.1970   78.2030 O.co2 492  GLU492     -0.2457
    135  N         19.8870  100.5430   73.0180 N.am  493  GLN493     -0.1966
    136  CA        20.6360   99.3270   73.2620 C.3   493  GLN493      0.1733
    137  C         20.9680   99.3520   74.7500 C.2   493  GLN493      0.2617
    138  O         22.0640   99.7530   75.1300 O.2   493  GLN493     -0.2715
    139  CB        21.9090   99.2720   72.4060 C.3   493  GLN493      0.0408
    140  CG        21.6950   98.7910   70.9930 C.3   493  GLN493      0.0908
    141  CD        22.6960   99.3850   70.0050 C.2   493  GLN493      0.2608
    142  OE1       23.7280   99.9040   70.4040 O.2   493  GLN493     -0.2717
    143  NE2       22.3650   99.3400   68.7170 N.am  493  GLN493     -0.0878
    144  N         19.9950   98.9560   75.5720 N.am  494  GLY494     -0.1940
    145  CA        20.0400   99.1900   77.0070 C.3   494  GLY494      0.2014
    146  C         21.2930   98.6880   77.6910 C.2   494  GLY494      0.2639
    147  O         21.8980   99.4000   78.4960 O.2   494  GLY494     -0.2714
    148  N         21.7040   97.4700   77.3460 N.am  495  MET495     -0.1963
    149  CA        22.8540   96.8380   77.9890 C.3   495  MET495      0.1736
    150  C         24.1520   97.5750   77.6600 C.2   495  MET495      0.2616
    151  O         25.0690   97.6270   78.4810 O.2   495  MET495     -0.2715
    152  CB        22.9530   95.3610   77.5810 C.3   495  MET495      0.0427
    153  CG        24.0350   94.5710   78.3190 C.3   495  MET495      0.0599
    154  SD        23.6850   94.3160   80.0760 S.3   495  MET495     -0.1393
    155  CE        22.5940   92.8860   80.0370 C.3   495  MET495      0.0692
    156  N         24.2260   98.1510   76.4650 N.am  496  VAL496     -0.1977
    157  CA        25.4000   98.9200   76.0760 C.3   496  VAL496      0.1596
    158  C         25.3650  100.3060   76.6950 C.2   496  VAL496      0.2287
    159  O         26.4070  100.8250   77.1060 O.2   496  VAL496     -0.2864
    160  CB        25.5400   99.0600   74.5500 C.3   496  VAL496      0.0276
    161  CG1       26.9490   99.5530   74.2070 C.3   496  VAL496      0.0022
    162  CG2       25.3090   97.7370   73.8910 C.3   496  VAL496      0.0022
@<TRIPOS>BOND
     1   105   104    2
     2     1     2    1
     3     6     5    1
     4   104   103    1
     5     5     2    1
     6     5     7    1
     7     2     3    1
     8   103   102    1
     9   103   106    1
    10     3     4    2
    11   106   107    1
    12   108   107    1
    13   108   109    1
    14    74    73    2
    15    70    68    1
    16    99    98    2
    17    94    93    2
    18    73    72    1
    19    59    57    1
    20    98    97    1
    21    86    85    2
    22    69    68    1
    23    68    65    1
    24    93    92    1
    25    93    96   am
    26   143   141   am
    27    75    72    1
    28    75    76    1
    29    92    95    1
    30    92    91    1
    31    97    96    1
    32    97   100    1
    33    72    71    1
    34    57    58    1
    35    57    56    1
    36    78    77    1
    37    71    66   am
    38    65    66    1
    39    65    64    1
    40    66    67    2
    41    85    91   am
    42    85    84    1
    43    77    76    1
    44   141   142    2
    45   141   140    1
    46   100   101    1
    47    56    53    1
    48    84    87    1
    49    84    83    1
    50    87    88    1
    51    64    62   am
    52    82    81    2
    53   140   139    1
    54    90    88   ar
    55    63    62    2
    56    88    89   ar
    57    62    61    1
    58    83    81   am
    59    81    80    1
    60    53    54    1
    61    53    52    1
    62    55    54    2
    63    54    60   am
    64   139   136    1
    65    60    61    1
    66   135   136    1
    67   135   128   am
    68    14    12    1
    69   126   127    1
    70    79    80    1
    71   136   137    1
    72   128   127    1
    73   128   129    2
    74   127   130    1
    75     8     9    1
    76    12     9    1
    77    12    13    1
    78    11    10    2
    79   162   160    1
    80     9    10    1
    81   161   160    1
    82   160   157    1
    83    10    15   am
    84   130   131    1
    85    36    37   ar
    86    36    34   ar
    87   137   138    2
    88   137   144   am
    89    37    35   ar
    90   110   111    1
    91   120   121    2
    92   120   119    1
    93   113   112    2
    94   112   111    1
    95   118   119    1
    96   124   123    2
    97   144   145    1
    98    34    33   ar
    99    35    33   ar
   100   131   132    1
   101   111   114    1
   102    15    16    1
   103   119   122    1
   104   157   156    1
   105   157   158    1
   106    33    32    1
   107   156   150   am
   108   123   122    1
   109   123   125   am
   110    16    17    1
   111   158   159    2
   112   114   115    1
   113   145   146    1
   114   132   133   ar
   115   132   134   ar
   116   148   146   am
   117   148   149    1
   118   116   115    1
   119    32    29    1
   120   152   149    1
   121   152   153    1
   122   150   149    1
   123   150   151    2
   124   146   147    2
   125    17    19   am
   126    17    18    2
   127   115   117    1
   128   153   154    1
   129    19    20    1
   130    28    29    1
   131    28    21   am
   132    29    30    1
   133    30    31    2
   134    20    21    1
   135    20    23    1
   136    21    22    2
   137    26    25    2
   138    23    24    1
   139   155   154    1
   140    24    25    1
   141    25    27   am
   142    50    48   ar
   143    50    51   ar
   144    48    45   ar
   145    51    49   ar
   146    38    39    1
   147    45    43   ar
   148    45    47   ar
   149    42    39    1
   150    42    43    1
   151    40    39    1
   152    40    41    2
   153    49    47   ar
   154    43    44   ar
   155    47    46   ar
   156    44    46   ar
