@<TRIPOS>MOLECULE
tmp/6derA01.pdb
 90 87 0 0 0
SMALL
GASTEIGER

@<TRIPOS>ATOM
      1  N         27.2760   87.1750   87.0830 N.3   267  MET267     -0.1230
      2  CA        27.4190   88.6230   86.9340 C.3   267  MET267      0.1702
      3  C         26.1340   89.3830   87.2180 C.2   267  MET267      0.2592
      4  O         26.1510   90.4390   87.8530 O.2   267  MET267     -0.2718
      5  CB        27.9000   88.9620   85.5210 C.3   267  MET267      0.0401
      6  CG        27.8800   90.4520   85.2120 C.3   267  MET267      0.0596
      7  SD        28.3800   90.8420   83.5200 S.3   267  MET267     -0.1393
      8  CE        29.9410   91.6630   83.8480 C.3   267  MET267      0.0692
      9  N         25.0220   88.8460   86.7360 N.am  268  HIS268     -0.1976
     10  CA        23.7240   89.4720   86.9380 C.3   268  HIS268      0.1656
     11  C         22.8210   88.5520   87.7430 C.2   268  HIS268      0.2291
     12  O         21.6000   88.7150   87.7670 O.2   268  HIS268     -0.2864
     13  CB        23.0840   89.8320   85.5900 C.3   268  HIS268      0.0771
     14  CG        23.6850   91.0450   84.9450 C.ar  268  HIS268      0.0820
     15  ND1       24.0380   91.0880   83.6140 N.ar  268  HIS268     -0.2267
     16  CD2       23.9970   92.2620   85.4550 C.ar  268  HIS268      0.1154
     17  CE1       24.5390   92.2780   83.3290 C.ar  268  HIS268      0.1986
     18  NE2       24.5280   93.0090   84.4300 N.ar  268  HIS268     -0.2212
     19  N         32.6480   82.4310   82.1400 N.3   292  ASP292     -0.1225
     20  CA        33.1640   83.6310   82.7970 C.3   292  ASP292      0.1805
     21  C         32.0610   84.5830   83.2650 C.2   292  ASP292      0.2597
     22  O         32.3350   85.4880   84.0510 O.2   292  ASP292     -0.2718
     23  CB        34.1710   84.3830   81.8950 C.3   292  ASP292      0.1424
     24  CG        33.5920   84.8030   80.5360 C.2   292  ASP292      0.3668
     25  OD1       32.4730   85.3510   80.4770 O.co2 292  ASP292     -0.2456
     26  OD2       34.2870   84.6100   79.5150 O.co2 292  ASP292     -0.2456
     27  N         30.8250   84.3870   82.8040 N.am  293  ARG293     -0.1979
     28  CA        29.7090   85.1660   83.3540 C.3   293  ARG293      0.1597
     29  C         29.3220   84.6540   84.7460 C.2   293  ARG293      0.2287
     30  O         28.6910   85.3620   85.5280 O.2   293  ARG293     -0.2864
     31  CB        28.4850   85.1240   82.4360 C.3   293  ARG293      0.0334
     32  CG        28.7030   85.7000   81.0430 C.3   293  ARG293      0.0492
     33  CD        29.1460   87.1410   81.1090 C.3   293  ARG293      0.2205
     34  NE        30.5900   87.2620   80.9460 N.pl3 293  ARG293     -0.0865
     35  CZ        31.2400   88.4190   80.9000 C.cat 293  ARG293      0.5346
     36  NH1       30.5720   89.5590   81.0150 N.pl3 293  ARG293      0.1354
     37  NH2       32.5590   88.4370   80.7380 N.pl3 293  ARG293      0.1354
     38  N         18.3240   89.6330   80.8170 N.3   415  MET415     -0.1245
     39  CA        18.7170   89.4080   82.2000 C.3   415  MET415      0.1570
     40  C         17.5460   89.6470   83.1510 C.2   415  MET415      0.2261
     41  O         17.3870   88.9450   84.1480 O.2   415  MET415     -0.2867
     42  CB        19.9060   90.2950   82.5690 C.3   415  MET415      0.0387
     43  CG        21.2150   89.8470   81.9330 C.3   415  MET415      0.0595
     44  SD        21.6100   88.1250   82.3340 S.3   415  MET415     -0.1393
     45  CE        21.1310   87.3220   80.8210 C.3   415  MET415      0.0692
     46  N         21.7040   97.4700   77.3460 N.3   495  MET495     -0.1230
     47  CA        22.8540   96.8380   77.9890 C.3   495  MET495      0.1702
     48  C         24.1520   97.5750   77.6600 C.2   495  MET495      0.2592
     49  O         25.0690   97.6270   78.4810 O.2   495  MET495     -0.2718
     50  CB        22.9530   95.3610   77.5810 C.3   495  MET495      0.0401
     51  CG        24.0350   94.5710   78.3190 C.3   495  MET495      0.0596
     52  SD        23.6850   94.3160   80.0760 S.3   495  MET495     -0.1393
     53  CE        22.5940   92.8860   80.0370 C.3   495  MET495      0.0692
     54  N         24.2260   98.1510   76.4650 N.am  496  VAL496     -0.1980
     55  CA        25.4000   98.9200   76.0760 C.3   496  VAL496      0.1595
     56  C         25.3650  100.3060   76.6950 C.2   496  VAL496      0.2287
     57  O         26.4070  100.8250   77.1060 O.2   496  VAL496     -0.2864
     58  CB        25.5400   99.0600   74.5500 C.3   496  VAL496      0.0276
     59  CG1       26.9490   99.5530   74.2070 C.3   496  VAL496      0.0022
     60  CG2       25.3090   97.7370   73.8910 C.3   496  VAL496      0.0022
     61  N         26.6440  100.0330   80.1630 N.3   499  TRP499     -0.1241
     62  CA        28.1090  100.0410   80.2260 C.3   499  TRP499      0.1605
     63  C         28.6670  101.4350   79.9410 C.2   499  TRP499      0.2264
     64  O         29.6650  101.8440   80.5330 O.2   499  TRP499     -0.2867
     65  CB        28.7050   98.9960   79.2620 C.3   499  TRP499      0.0550
     66  CG        29.1080   97.7030   79.9610 C.ar  499  TRP499      0.0003
     67  CD1       30.3810   97.2490   80.2010 C.ar  499  TRP499      0.0946
     68  CD2       28.2270   96.7530   80.5780 C.ar  499  TRP499      0.0152
     69  NE1       30.3340   96.0560   80.8890 N.ar  499  TRP499     -0.2442
     70  CE2       29.0240   95.7350   81.1360 C.ar  499  TRP499      0.0810
     71  CE3       26.8400   96.6600   80.7020 C.ar  499  TRP499      0.0012
     72  CZ2       28.4760   94.6380   81.8000 C.ar  499  TRP499      0.0191
     73  CZ3       26.3060   95.5800   81.3590 C.ar  499  TRP499      0.0001
     74  CH2       27.1160   94.5800   81.8950 C.ar  499  TRP499      0.0015
     75  N         30.9920  103.1240   82.5590 N.3   503  PHE503     -0.1241
     76  CA        32.4260  103.1740   82.2960 C.3   503  PHE503      0.1605
     77  C         32.8510  104.3000   81.3690 C.2   503  PHE503      0.2264
     78  O         34.0350  104.6050   81.2800 O.2   503  PHE503     -0.2867
     79  CB        32.9000  101.8400   81.7080 C.3   503  PHE503      0.0534
     80  CG        32.7450  100.6790   82.6480 C.ar  503  PHE503     -0.0203
     81  CD1       33.5460  100.5750   83.7770 C.ar  503  PHE503     -0.0042
     82  CD2       31.7950   99.6970   82.4120 C.ar  503  PHE503     -0.0042
     83  CE1       33.4060   99.5130   84.6490 C.ar  503  PHE503     -0.0003
     84  CE2       31.6520   98.6300   83.2810 C.ar  503  PHE503     -0.0003
     85  CZ        32.4580   98.5400   84.4030 C.ar  503  PHE503     -0.0000
     86  N         33.4120   93.1780   85.9800 N.3   570  ALA570     -0.1245
     87  CA        34.5590   92.4080   85.5140 C.3   570  ALA570      0.1562
     88  C         35.7580   92.6540   86.4210 C.2   570  ALA570      0.2260
     89  O         36.0060   93.7850   86.8340 O.2   570  ALA570     -0.2867
     90  CB        34.8950   92.7660   84.0790 C.3   570  ALA570      0.0290
@<TRIPOS>BOND
     1    60    58    1
     2    59    58    1
     3    58    55    1
     4    55    54    1
     5    55    56    1
     6    54    48   am
     7    56    57    2
     8    46    47    1
     9    50    47    1
    10    50    51    1
    11    48    47    1
    12    48    49    2
    13    51    52    1
    14    65    66    1
    15    65    62    1
    16    26    24   ar
    17    63    62    1
    18    63    64    2
    19    66    67   ar
    20    66    68   ar
    21    53    52    1
    22    61    62    1
    23    67    69   ar
    24    25    24   ar
    25    24    23    1
    26    68    71   ar
    27    68    70   ar
    28    71    73   ar
    29    37    35    1
    30    38    39    1
    31    45    44    1
    32    69    70   ar
    33    35    34    2
    34    35    36    1
    35    34    33    1
    36    32    33    1
    37    32    31    1
    38    70    72   ar
    39    78    77    2
    40    73    74   ar
    41    77    76    1
    42    79    76    1
    43    79    80    1
    44    72    74   ar
    45    23    20    1
    46    43    44    1
    47    43    42    1
    48    19    20    1
    49    39    42    1
    50    39    40    1
    51    76    75    1
    52    82    80   ar
    53    82    84   ar
    54    31    28    1
    55    80    81   ar
    56    20    21    1
    57    27    21   am
    58    27    28    1
    59    40    41    2
    60    21    22    2
    61    84    85   ar
    62    17    15   ar
    63    17    18   ar
    64    28    29    1
    65     7     8    1
    66     7     6    1
    67    15    14   ar
    68    81    83   ar
    69    90    87    1
    70    85    83   ar
    71    18    16   ar
    72    29    30    2
    73    14    16   ar
    74    14    13    1
    75     6     5    1
    76    87    86    1
    77    87    88    1
    78     5     2    1
    79    13    10    1
    80    88    89    2
    81     9    10    1
    82     9     3   am
    83     2     1    1
    84     2     3    1
    85    10    11    1
    86     3     4    2
    87    11    12    2
