@<TRIPOS>MOLECULE
tmp/6dewD00.pdb
 139 130 0 0 0
SMALL
GASTEIGER

@<TRIPOS>ATOM
      1  N         24.6430   82.0900    3.5720 N.3    56  VAL56      -0.1245
      2  CA        23.9270   81.6270    4.7710 C.3    56  VAL56       0.1561
      3  C         22.9970   82.7230    5.3160 C.2    56  VAL56       0.2260
      4  O         21.8740   82.4460    5.7830 O.2    56  VAL56      -0.2867
      5  CB        24.9260   81.1530    5.8480 C.3    56  VAL56       0.0252
      6  CG1       24.1760   80.7080    7.0670 C.3    56  VAL56       0.0019
      7  CG2       25.7440   80.0000    5.2550 C.3    56  VAL56       0.0019
      8  N         18.8550   82.5170    5.5810 N.3    60  ASN60      -0.1240
      9  CA        18.0600   82.7020    6.8000 C.3    60  ASN60       0.1653
     10  C         17.0630   83.8430    6.6320 C.2    60  ASN60       0.2266
     11  O         15.9770   83.8040    7.1790 O.2    60  ASN60      -0.2867
     12  CB        18.9710   82.9570    8.0050 C.3    60  ASN60       0.1155
     13  CG        19.8060   81.7050    8.4030 C.2    60  ASN60       0.2627
     14  OD1       19.5720   80.5590    7.9390 O.2    60  ASN60      -0.2716
     15  ND2       20.7420   81.9130    9.2940 N.am   60  ASN60      -0.0877
     16  N         14.3260   75.1580    4.5030 N.3    95  ARG95      -0.1245
     17  CA        15.6470   75.7670    4.6280 C.3    95  ARG95       0.1563
     18  C         16.7370   74.9530    3.9400 C.2    95  ARG95       0.2260
     19  O         17.5990   75.5200    3.2520 O.2    95  ARG95      -0.2867
     20  CB        16.0070   75.9300    6.1200 C.3    95  ARG95       0.0307
     21  CG        17.3930   76.4400    6.3450 C.3    95  ARG95       0.0489
     22  CD        17.6170   77.8310    5.7460 C.3    95  ARG95       0.2205
     23  NE        18.9120   78.4050    6.1260 N.pl3  95  ARG95      -0.0865
     24  CZ        20.0720   77.9730    5.6490 C.cat  95  ARG95       0.5346
     25  NH1       20.0980   77.0260    4.7070 N.pl3  95  ARG95       0.1354
     26  NH2       21.1860   78.5240    6.0660 N.pl3  95  ARG95       0.1354
     27  N         29.2690   71.9890   -0.5610 N.3   106  TRP106     -0.1241
     28  CA        28.8630   72.2950    0.8020 C.3   106  TRP106      0.1605
     29  C         29.8840   71.7150    1.7840 C.2   106  TRP106      0.2264
     30  O         30.1590   72.3330    2.8270 O.2   106  TRP106     -0.2867
     31  CB        27.4480   71.8050    1.0920 C.3   106  TRP106      0.0550
     32  CG        26.9010   72.5270    2.2880 C.ar  106  TRP106      0.0003
     33  CD1       26.5320   71.9670    3.4820 C.ar  106  TRP106      0.0946
     34  CD2       26.7690   73.9650    2.4480 C.ar  106  TRP106      0.0152
     35  NE1       26.1440   72.9520    4.3380 N.ar  106  TRP106     -0.2442
     36  CE2       26.3390   74.1930    3.7660 C.ar  106  TRP106      0.0810
     37  CE3       27.0280   75.0690    1.6100 C.ar  106  TRP106      0.0012
     38  CZ2       26.0690   75.4700    4.2520 C.ar  106  TRP106      0.0191
     39  CZ3       26.7340   76.3480    2.0840 C.ar  106  TRP106      0.0001
     40  CH2       26.3050   76.5490    3.4130 C.ar  106  TRP106      0.0015
     41  N         31.4690   74.0520    4.6040 N.3   110  LEU110     -0.1245
     42  CA        31.4420   73.7910    6.0350 C.3   110  LEU110      0.1561
     43  C         32.8350   73.8140    6.6130 C.2   110  LEU110      0.2260
     44  O         33.0170   74.2570    7.7380 O.2   110  LEU110     -0.2867
     45  CB        30.7780   72.4670    6.3400 C.3   110  LEU110      0.0270
     46  CG        29.2590   72.4550    6.0910 C.3   110  LEU110      0.0019
     47  CD1       28.7280   70.9760    6.1190 C.3   110  LEU110      0.0001
     48  CD2       28.5800   73.3200    7.0870 C.3   110  LEU110      0.0001
     49  N         33.4010   77.4010    7.2110 N.3   113  LEU113     -0.1231
     50  CA        32.5810   77.9350    8.2970 C.3   113  LEU113      0.1693
     51  C         33.0610   77.4660    9.6700 C.2   113  LEU113      0.2591
     52  O         32.7760   78.1390   10.6740 O.2   113  LEU113     -0.2718
     53  CB        31.1370   77.5010    8.1300 C.3   113  LEU113      0.0284
     54  CG        30.3640   78.1830    6.9550 C.3   113  LEU113      0.0019
     55  CD1       29.0210   77.5270    6.6980 C.3   113  LEU113      0.0001
     56  CD2       30.1710   79.5900    7.2010 C.3   113  LEU113      0.0001
     57  N         33.7370   76.3110    9.7450 N.am  114  MET114     -0.1979
     58  CA        34.2220   75.7820   11.0190 C.3   114  MET114      0.1605
     59  C         35.5780   76.3370   11.4220 C.2   114  MET114      0.2287
     60  O         36.0450   76.0360   12.5190 O.2   114  MET114     -0.2864
     61  CB        34.2820   74.2670   10.9740 C.3   114  MET114      0.0413
     62  CG        32.9430   73.5960   10.7460 C.3   114  MET114      0.0598
     63  SD        31.8030   73.6230   12.1330 S.3   114  MET114     -0.1393
     64  CE        32.6700   72.5650   13.3220 C.3   114  MET114      0.0692
     65  N         33.9060   80.4250   13.3760 N.3   119  ILE119     -0.1245
     66  CA        32.9040   79.5490   13.9660 C.3   119  ILE119      0.1561
     67  C         31.9980   80.4360   14.8350 C.2   119  ILE119      0.2260
     68  O         30.7950   80.1690   14.9700 O.2   119  ILE119     -0.2867
     69  CB        33.5510   78.3850   14.7750 C.3   119  ILE119      0.0252
     70  CG1       32.4910   77.4790   15.3830 C.3   119  ILE119      0.0019
     71  CG2       34.4920   78.8510   15.8170 C.3   119  ILE119      0.0019
     72  CD1       31.7220   76.7060   14.3800 C.3   119  ILE119      0.0001
     73  N         29.3310   81.6270   12.4180 N.3   122  SER122     -0.1202
     74  CA        28.5180   80.5260   11.9470 C.3   122  SER122      0.2020
     75  C         27.5530   80.0690   13.0230 C.2   122  SER122      0.2618
     76  O         26.4310   79.6890   12.7180 O.2   122  SER122     -0.2717
     77  CB        29.4210   79.3730   11.4770 C.3   122  SER122      0.2103
     78  OG        30.5000   79.9160   10.7490 O.3   122  SER122     -0.2182
     79  N         27.9930   80.0320   14.2830 N.am  123  LEU123     -0.1979
     80  CA        27.0820   79.6440   15.3580 C.3   123  LEU123      0.1596
     81  C         25.9870   80.6960   15.5860 C.2   123  LEU123      0.2287
     82  O         24.8280   80.3300   15.8270 O.2   123  LEU123     -0.2864
     83  CB        27.8620   79.4180   16.6810 C.3   123  LEU123      0.0297
     84  CG        28.7700   78.1950   16.7130 C.3   123  LEU123      0.0022
     85  CD1       29.5700   78.0660   18.0540 C.3   123  LEU123      0.0001
     86  CD2       27.9690   76.9760   16.4400 C.3   123  LEU123      0.0001
     87  N         24.6400   82.5620   13.3240 N.3   125  LEU125     -0.1231
     88  CA        23.6840   82.3360   12.2280 C.3   125  LEU125      0.1693
     89  C         22.8010   81.1330   12.4980 C.2   125  LEU125      0.2591
     90  O         21.5860   81.1830   12.3110 O.2   125  LEU125     -0.2718
     91  CB        24.4740   82.1090   10.9180 C.3   125  LEU125      0.0284
     92  CG        25.0370   83.4400   10.3280 C.3   125  LEU125      0.0019
     93  CD1       26.1150   83.1540    9.3070 C.3   125  LEU125      0.0001
     94  CD2       23.9410   84.2680    9.7450 C.3   125  LEU125      0.0001
     95  N         23.4020   80.0230   12.9040 N.am  126  LEU126     -0.1980
     96  CA        22.6200   78.8150   13.2130 C.3   126  LEU126      0.1596
     97  C         21.6250   79.0530   14.3510 C.2   126  LEU126      0.2287
     98  O         20.4530   78.6910   14.2660 O.2   126  LEU126     -0.2864
     99  CB        23.5410   77.6880   13.6420 C.3   126  LEU126      0.0297
    100  CG        22.9070   76.3890   14.1400 C.3   126  LEU126      0.0022
    101  CD1       22.1010   75.7870   12.9770 C.3   126  LEU126      0.0001
    102  CD2       23.9600   75.4000   14.5880 C.3   126  LEU126      0.0001
    103  N         18.7800   81.1550   13.2110 N.3   129  MET129     -0.1245
    104  CA        17.8720   80.3850   12.3410 C.3   129  MET129      0.1570
    105  C         16.9090   79.5290   13.1580 C.2   129  MET129      0.2261
    106  O         15.6940   79.4840   12.8850 O.2   129  MET129     -0.2867
    107  CB        18.6520   79.4680   11.4380 C.3   129  MET129      0.0387
    108  CG        17.8100   78.7160   10.3510 C.3   129  MET129      0.0595
    109  SD        18.8110   77.3530    9.7080 S.3   129  MET129     -0.1393
    110  CE        18.7100   76.1560   11.0720 C.3   129  MET129      0.0692
    111  N         18.6470   69.6330   12.5550 N.3   157  TYR157     -0.1227
    112  CA        19.0500   70.3130   11.3280 C.3   157  TYR157      0.1736
    113  C         20.4430   69.8660   10.8750 C.2   157  TYR157      0.2595
    114  O         20.6460   69.5690    9.7050 O.2   157  TYR157     -0.2718
    115  CB        19.0320   71.8120   11.5570 C.3   157  TYR157      0.0548
    116  CG        19.4530   72.6200   10.3260 C.ar  157  TYR157     -0.0200
    117  CD1       18.5180   73.0320    9.4170 C.ar  157  TYR157     -0.0009
    118  CD2       20.7500   72.9580   10.1120 C.ar  157  TYR157     -0.0009
    119  CE1       18.8360   73.7100    8.3160 C.ar  157  TYR157      0.0417
    120  CE2       21.1320   73.6730    8.9210 C.ar  157  TYR157      0.0417
    121  CZ        20.1210   74.0380    8.0640 C.ar  157  TYR157      0.1957
    122  OH        20.4040   74.7540    6.9170 O.3   157  TYR157     -0.2866
    123  N         21.4240   69.9090   11.7550 N.am  158  ASN158     -0.1974
    124  CA        22.7900   69.5950   11.3700 C.3   158  ASN158      0.1688
    125  C         22.9630   68.1670   10.9120 C.2   158  ASN158      0.2292
    126  O         23.7130   67.9290    9.9740 O.2   158  ASN158     -0.2864
    127  CB        23.7450   69.8840   12.5220 C.3   158  ASN158      0.1181
    128  CG        23.9250   71.4250   12.7600 C.2   158  ASN158      0.2629
    129  OD1       23.7980   72.2090   11.8740 O.2   158  ASN158     -0.2716
    130  ND2       24.2550   71.8060   13.9790 N.am  158  ASN158     -0.0877
    131  N         21.3890   67.7820    7.4660 N.3   161  GLU161     -0.1245
    132  CA        22.2960   68.3680    6.4750 C.3   161  GLU161      0.1567
    133  C         23.4350   67.3890    6.1000 C.2   161  GLU161      0.2260
    134  O         23.7990   67.2430    4.9250 O.2   161  GLU161     -0.2867
    135  CB        22.8350   69.7090    7.0410 C.3   161  GLU161      0.0388
    136  CG        23.7080   70.5860    6.1840 C.3   161  GLU161      0.1160
    137  CD        24.1650   71.8830    6.9860 C.2   161  GLU161      0.3649
    138  OE1       24.3070   71.8740    8.2390 O.co2 161  GLU161     -0.2457
    139  OE2       24.3620   72.9290    6.3710 O.co2 161  GLU161     -0.2457
@<TRIPOS>BOND
     1    27    28    1
     2    28    31    1
     3    28    29    1
     4    31    32    1
     5    37    39   ar
     6    37    34   ar
     7    29    30    2
     8    39    40   ar
     9    32    34   ar
    10    32    33   ar
    11    34    36   ar
    12    19    18    2
    13    40    38   ar
    14    33    35   ar
    15     1     2    1
    16    36    38   ar
    17    36    35   ar
    18    18    17    1
    19    16    17    1
    20    41    42    1
    21    17    20    1
    22    25    24    1
    23     2     3    1
    24     2     5    1
    25   134   133    2
    26     7     5    1
    27     3     4    2
    28     8     9    1
    29    24    26    1
    30    24    23    2
    31    22    23    1
    32    22    21    1
    33     5     6    1
    34    42    45    1
    35    42    43    1
    36    46    47    1
    37    46    45    1
    38    46    48    1
    39   133   132    1
    40    20    21    1
    41   136   137    1
    42   136   135    1
    43   139   137   ar
    44   132   135    1
    45   132   131    1
    46    43    44    2
    47    10     9    1
    48    10    11    2
    49    55    54    1
    50     9    12    1
    51   122   121    1
    52    54    56    1
    53    54    53    1
    54   137   138   ar
    55    49    50    1
    56    14    13    2
    57    12    13    1
    58   121   119   ar
    59   121   120   ar
    60    53    50    1
    61    50    51    1
    62   119   117   ar
    63    13    15   am
    64   120   118   ar
    65    93    92    1
    66   117   116   ar
    67    51    57   am
    68    51    52    2
    69   114   113    2
    70   109   108    1
    71   109   110    1
    72    57    58    1
    73    94    92    1
    74   126   125    2
    75   118   116   ar
    76   116   115    1
    77    92    91    1
    78   108   107    1
    79    62    61    1
    80    62    63    1
    81    78    77    1
    82   113   112    1
    83   113   123   am
    84   125   124    1
    85    91    88    1
    86    61    58    1
    87    58    59    1
    88   112   115    1
    89   112   111    1
    90   124   123    1
    91   124   127    1
    92    59    60    2
    93   107   104    1
    94    77    74    1
    95   129   128    2
    96    74    73    1
    97    74    75    1
    98    63    64    1
    99    88    89    1
   100    88    87    1
   101    90    89    2
   102   104   105    1
   103   104   103    1
   104    89    95   am
   105   127   128    1
   106    76    75    2
   107   128   130   am
   108   106   105    2
   109    95    96    1
   110   101   100    1
   111    75    79   am
   112    96    99    1
   113    96    97    1
   114    65    66    1
   115    99   100    1
   116    66    69    1
   117    66    67    1
   118   100   102    1
   119    98    97    2
   120    79    80    1
   121    72    70    1
   122    69    70    1
   123    69    71    1
   124    67    68    2
   125    80    81    1
   126    80    83    1
   127    81    82    2
   128    86    84    1
   129    83    84    1
   130    84    85    1
