@<TRIPOS>MOLECULE
tmp/6dewA02.pdb
 139 130 0 0 0
SMALL
GASTEIGER

@<TRIPOS>ATOM
      1  N         54.3170  115.1060   13.1680 N.3    58  VAL58      -0.1245
      2  CA        54.1510  114.1440   14.2480 C.3    58  VAL58       0.1561
      3  C         52.6960  113.6970   14.3680 C.2    58  VAL58       0.2260
      4  O         52.3840  112.4940   14.5330 O.2    58  VAL58      -0.2867
      5  CB        54.6340  114.7450   15.5900 C.3    58  VAL58       0.0252
      6  CG1       54.2720  113.6550   16.8330 C.3    58  VAL58       0.0019
      7  CG2       56.0720  114.9280   15.4900 C.3    58  VAL58       0.0019
      8  N         51.2740  109.8820   13.8500 N.3    62  ASN62      -0.1240
      9  CA        50.4450  109.1810   14.8040 C.3    62  ASN62       0.1653
     10  C         49.1070  108.7210   14.1770 C.2    62  ASN62       0.2266
     11  O         48.6460  107.6030   14.4310 O.2    62  ASN62      -0.2867
     12  CB        50.2150  110.0650   16.0200 C.3    62  ASN62       0.1155
     13  CG        51.4990  110.2830   16.8370 C.2    62  ASN62       0.2627
     14  OD1       52.5450  109.6040   16.6450 O.2    62  ASN62      -0.2716
     15  ND2       51.4020  111.1790   17.7880 N.am   62  ASN62      -0.0877
     16  N         56.2150  102.8800   13.4640 N.3    97  ARG97      -0.1245
     17  CA        56.1710  104.2840   13.7240 C.3    97  ARG97       0.1563
     18  C         57.4990  104.9770   13.4680 C.2    97  ARG97       0.2260
     19  O         57.5220  106.0890   12.9030 O.2    97  ARG97      -0.2867
     20  CB        55.7220  104.5310   15.1660 C.3    97  ARG97       0.0307
     21  CG        55.7520  106.0450   15.5350 C.3    97  ARG97       0.0489
     22  CD        54.7990  106.8340   14.7020 C.3    97  ARG97       0.2205
     23  NE        54.7020  108.1560   15.2550 N.pl3  97  ARG97      -0.0865
     24  CZ        55.5750  109.1630   15.0090 C.cat  97  ARG97       0.5346
     25  NH1       56.7510  108.9030   14.3770 N.pl3  97  ARG97       0.1354
     26  NH2       55.3930  110.3480   15.6550 N.pl3  97  ARG97       0.1354
     27  N         66.1110  114.9520   11.6660 N.3   108  TRP108     -0.1241
     28  CA        65.2600  114.6380   12.8120 C.3   108  TRP108      0.1605
     29  C         65.8340  115.1150   14.1660 C.2   108  TRP108      0.2264
     30  O         65.0690  115.5360   15.0430 O.2   108  TRP108     -0.2867
     31  CB        64.9310  113.1230   12.8360 C.3   108  TRP108      0.0550
     32  CG        63.8130  112.8550   13.8250 C.ar  108  TRP108      0.0003
     33  CD1       63.8880  112.1520   14.9850 C.ar  108  TRP108      0.0946
     34  CD2       62.4920  113.3480   13.7460 C.ar  108  TRP108      0.0152
     35  NE1       62.6800  112.1860   15.6770 N.ar  108  TRP108     -0.2442
     36  CE2       61.8110  112.9560   14.9490 C.ar  108  TRP108      0.0810
     37  CE3       61.8200  114.1520   12.8050 C.ar  108  TRP108      0.0012
     38  CZ2       60.4950  113.3450   15.2380 C.ar  108  TRP108      0.0191
     39  CZ3       60.5030  114.5360   13.0960 C.ar  108  TRP108      0.0001
     40  CH2       59.8660  114.1430   14.3000 C.ar  108  TRP108      0.0015
     41  N         63.6470  117.2720   16.8110 N.3   112  LEU112     -0.1245
     42  CA        63.5380  117.0110   18.2420 C.3   112  LEU112      0.1561
     43  C         63.9270  118.2170   19.0680 C.2   112  LEU112      0.2260
     44  O         63.2750  118.4920   20.0720 O.2   112  LEU112     -0.2867
     45  CB        64.4160  115.8440   18.6670 C.3   112  LEU112      0.0270
     46  CG        63.8400  114.4830   18.2180 C.3   112  LEU112      0.0019
     47  CD1       64.8130  113.3510   18.5270 C.3   112  LEU112      0.0001
     48  CD2       62.4900  114.1640   18.8600 C.3   112  LEU112      0.0001
     49  N         60.9520  120.5400   18.9140 N.3   115  LEU115     -0.1231
     50  CA        59.8730  120.0240   19.7560 C.3   115  LEU115      0.1693
     51  C         60.1560  120.1620   21.2660 C.2   115  LEU115      0.2591
     52  O         59.2350  120.1390   22.1020 O.2   115  LEU115     -0.2718
     53  CB        59.6610  118.5460   19.4700 C.3   115  LEU115      0.0284
     54  CG        59.0640  118.1560   18.0930 C.3   115  LEU115      0.0019
     55  CD1       59.2040  116.7630   17.7580 C.3   115  LEU115      0.0001
     56  CD2       57.6350  118.6130   18.0560 C.3   115  LEU115      0.0001
     57  N         61.4010  120.2580   21.6560 N.am  116  MET116     -0.1979
     58  CA        61.7040  120.4880   23.0800 C.3   116  MET116      0.1605
     59  C         61.7190  121.9690   23.5250 C.2   116  MET116      0.2287
     60  O         61.8650  122.2530   24.7270 O.2   116  MET116     -0.2864
     61  CB        63.0670  119.8820   23.4140 C.3   116  MET116      0.0413
     62  CG        63.1650  118.3950   23.3120 C.3   116  MET116      0.0598
     63  SD        61.9990  117.5710   24.4430 S.3   116  MET116     -0.1393
     64  CE        62.1260  118.6280   25.8880 C.3   116  MET116      0.0692
     65  N         56.7960  122.2260   24.3430 N.3   121  ILE121     -0.1245
     66  CA        56.8960  120.9790   25.1330 C.3   121  ILE121      0.1561
     67  C         55.5280  120.4480   25.5140 C.2   121  ILE121      0.2260
     68  O         55.3290  119.2090   25.4800 O.2   121  ILE121     -0.2867
     69  CB        57.7740  121.2320   26.3820 C.3   121  ILE121      0.0252
     70  CG1       59.2370  121.4510   25.9740 C.3   121  ILE121      0.0019
     71  CG2       57.7580  119.9830   27.3010 C.3   121  ILE121      0.0019
     72  CD1       60.2050  121.6120   27.1170 C.3   121  ILE121      0.0001
     73  N         54.2700  118.6080   22.4660 N.3   124  SER124     -0.1202
     74  CA        55.0560  117.4120   22.1720 C.3   124  SER124      0.2020
     75  C         54.7670  116.3130   23.1660 C.2   124  SER124      0.2618
     76  O         54.7020  115.1320   22.8080 O.2   124  SER124     -0.2717
     77  CB        56.5580  117.7150   22.1940 C.3   124  SER124      0.2103
     78  OG        56.7660  118.9270   21.4210 O.3   124  SER124     -0.2182
     79  N         54.5590  116.6840   24.4270 N.am  125  LEU125     -0.1979
     80  CA        54.2620  115.6440   25.4080 C.3   125  LEU125      0.1596
     81  C         52.8770  115.0650   25.2120 C.2   125  LEU125      0.2287
     82  O         52.6640  113.8710   25.4400 O.2   125  LEU125     -0.2864
     83  CB        54.3650  116.1860   26.8310 C.3   125  LEU125      0.0297
     84  CG        55.7880  116.5430   27.2530 C.3   125  LEU125      0.0022
     85  CD1       55.7280  117.1770   28.6250 C.3   125  LEU125      0.0001
     86  CD2       56.7500  115.4250   27.2160 C.3   125  LEU125      0.0001
     87  N         51.3000  114.8000   22.3680 N.3   127  LEU127     -0.1231
     88  CA        51.4290  113.8820   21.2410 C.3   127  LEU127      0.1693
     89  C         52.1260  112.5510   21.6000 C.2   127  LEU127      0.2591
     90  O         51.7470  111.4860   21.1110 O.2   127  LEU127     -0.2718
     91  CB        52.2070  114.5940   20.1790 C.3   127  LEU127      0.0284
     92  CG        51.4150  115.6600   19.4110 C.3   127  LEU127      0.0019
     93  CD1       52.4060  116.4160   18.5170 C.3   127  LEU127      0.0001
     94  CD2       50.3220  115.0770   18.5530 C.3   127  LEU127      0.0001
     95  N         53.2520  112.5880   22.3060 N.am  128  LEU128     -0.1980
     96  CA        53.8600  111.3250   22.7580 C.3   128  LEU128      0.1596
     97  C         52.8660  110.4950   23.5600 C.2   128  LEU128      0.2287
     98  O         52.7790  109.2660   23.4200 O.2   128  LEU128     -0.2864
     99  CB        55.0860  111.6050   23.6380 C.3   128  LEU128      0.0297
    100  CG        55.8940  110.4220   24.2070 C.3   128  LEU128      0.0022
    101  CD1       56.4380  109.5190   23.1180 C.3   128  LEU128      0.0001
    102  CD2       57.0630  110.9550   25.0740 C.3   128  LEU128      0.0001
    103  N         50.2100  108.9390   21.4080 N.3   131  MET131     -0.1196
    104  CA        50.8110  107.8250   20.6810 C.3   131  MET131      0.1786
    105  C         50.9220  106.5460   21.5260 C.2   131  MET131      0.2306
    106  O         50.4900  105.4930   21.0910 O.2   131  MET131     -0.2863
    107  CB        52.1880  108.2940   20.1990 C.2   131  MET131      0.0070
    108  CG        52.9900  107.3410   19.0930 C.2   131  MET131      0.0282
    109  SD        54.6330  107.5160   18.8630 S.3   131  MET131     -0.1125
    110  CE        55.2250  106.8870   20.3870 C.3   131  MET131      0.0742
    111  N         60.3370  103.6440   23.1960 N.3   159  TYR159     -0.1227
    112  CA        60.2290  104.4800   21.9860 C.3   159  TYR159      0.1736
    113  C         61.3210  105.5260   21.8930 C.2   159  TYR159      0.2595
    114  O         62.0680  105.5820   20.9110 O.2   159  TYR159     -0.2718
    115  CB        58.8610  105.1510   21.9620 C.3   159  TYR159      0.0548
    116  CG        58.6860  105.9280   20.6900 C.ar  159  TYR159     -0.0200
    117  CD1       58.2620  105.2880   19.5090 C.ar  159  TYR159     -0.0009
    118  CD2       58.9990  107.2710   20.6350 C.ar  159  TYR159     -0.0009
    119  CE1       58.1250  106.0180   18.2980 C.ar  159  TYR159      0.0417
    120  CE2       58.7990  108.0380   19.3830 C.ar  159  TYR159      0.0417
    121  CZ        58.4120  107.3690   18.2450 C.ar  159  TYR159      0.1957
    122  OH        58.2100  108.0580   16.9950 O.3   159  TYR159     -0.2866
    123  N         61.4550  106.3610   22.9010 N.am  160  ASN160     -0.1974
    124  CA        62.4190  107.4350   22.8760 C.3   160  ASN160      0.1688
    125  C         63.8260  106.8950   22.9030 C.2   160  ASN160      0.2292
    126  O         64.6820  107.4520   22.2460 O.2   160  ASN160     -0.2864
    127  CB        62.2600  108.3750   24.1000 C.3   160  ASN160      0.1181
    128  CG        60.8990  109.1250   24.1080 C.2   160  ASN160      0.2629
    129  OD1       60.2730  109.3110   25.0940 O.2   160  ASN160     -0.2716
    130  ND2       60.5030  109.5520   23.0090 N.am  160  ASN160     -0.0877
    131  N         64.5040  105.7040   19.3980 N.3   163  GLU163     -0.1245
    132  CA        64.6520  106.8940   18.5110 C.3   163  GLU163      0.1567
    133  C         66.0510  107.5240   18.5770 C.2   163  GLU163      0.2260
    134  O         66.6750  107.8630   17.5540 O.2   163  GLU163     -0.2867
    135  CB        63.5910  107.9360   18.8770 C.3   163  GLU163      0.0388
    136  CG        63.4220  109.1620   18.0450 C.3   163  GLU163      0.1160
    137  CD        62.1580  110.0160   18.4990 C.2   163  GLU163      0.3649
    138  OE1       61.7590  110.0050   19.7170 O.co2 163  GLU163     -0.2457
    139  OE2       61.5480  110.6850   17.6230 O.co2 163  GLU163     -0.2457
@<TRIPOS>BOND
     1    27    28    1
     2    37    39   ar
     3    37    34   ar
     4    28    31    1
     5    28    29    1
     6    31    32    1
     7    19    18    2
     8    39    40   ar
     9     1     2    1
    10    16    17    1
    11    18    17    1
    12    17    20    1
    13    34    32   ar
    14    34    36   ar
    15    32    33   ar
    16     8     9    1
    17    29    30    2
    18    10    11    2
    19    10     9    1
    20     2     3    1
    21     2     5    1
    22    40    38   ar
    23     3     4    2
    24    25    24    1
    25    22    23    1
    26    22    21    1
    27     9    12    1
    28    36    38   ar
    29    36    35   ar
    30    33    35   ar
    31    24    23    2
    32    24    26    1
    33    20    21    1
    34     7     5    1
    35     5     6    1
    36    12    13    1
    37    14    13    2
    38    41    42    1
    39    13    15   am
    40   122   121    1
    41   134   133    2
    42   139   137   ar
    43    55    54    1
    44   136   137    1
    45   136   135    1
    46    56    54    1
    47    54    53    1
    48    46    47    1
    49    46    45    1
    50    46    48    1
    51    42    45    1
    52    42    43    1
    53   121   119   ar
    54   121   120   ar
    55   119   117   ar
    56   137   138   ar
    57   132   133    1
    58   132   135    1
    59   132   131    1
    60    93    92    1
    61    94    92    1
    62   109   108    1
    63   109   110    1
    64    49    50    1
    65    43    44    2
    66   108   107    2
    67   120   118   ar
    68    92    91    1
    69    53    50    1
    70   117   116   ar
    71    50    51    1
    72    91    88    1
    73   107   104    1
    74   118   116   ar
    75   104   103    1
    76   104   105    1
    77   116   115    1
    78   114   113    2
    79   106   105    2
    80    90    89    2
    81    88    89    1
    82    88    87    1
    83    51    57   am
    84    51    52    2
    85    78    77    1
    86    89    95   am
    87    57    58    1
    88   113   112    1
    89   113   123   am
    90   115   112    1
    91   112   111    1
    92    74    77    1
    93    74    73    1
    94    74    75    1
    95   126   125    2
    96    95    96    1
    97    96    97    1
    98    96    99    1
    99    76    75    2
   100   124   123    1
   101   124   125    1
   102   124   127    1
   103   130   128   am
   104    58    61    1
   105    58    59    1
   106   101   100    1
   107    75    79   am
   108    62    61    1
   109    62    63    1
   110    98    97    2
   111    59    60    2
   112    99   100    1
   113   127   128    1
   114   128   129    2
   115   100   102    1
   116    65    66    1
   117    79    80    1
   118    63    64    1
   119    66    67    1
   120    66    69    1
   121    81    80    1
   122    81    82    2
   123    80    83    1
   124    68    67    2
   125    70    69    1
   126    70    72    1
   127    69    71    1
   128    83    84    1
   129    86    84    1
   130    84    85    1
