@<TRIPOS>MOLECULE
tmp/6df4A00.pdb
 164 165 0 0 0
SMALL
GASTEIGER

@<TRIPOS>ATOM
      1  N         17.5420   15.1870   -1.4760 N.3    26  TRP26      -0.1228
      2  CA        18.2290   14.7060   -0.2620 C.3    26  TRP26       0.1722
      3  C         17.5680   15.1150    1.0560 C.2    26  TRP26       0.2437
      4  O         17.6640   14.3110    2.0030 O.2    26  TRP26      -0.2733
      5  CB        19.7210   15.1210   -0.2490 C.3    26  TRP26       0.0563
      6  CG        19.9670   16.6020   -0.2240 C.ar   26  TRP26       0.0003
      7  CD1       20.0960   17.4210   -1.3190 C.ar   26  TRP26       0.0946
      8  CD2       19.9040   17.4710    0.9230 C.ar   26  TRP26       0.0152
      9  NE1       20.1400   18.7320   -0.9250 N.ar   26  TRP26      -0.2442
     10  CE2       20.0180   18.7960    0.4480 C.ar   26  TRP26       0.0810
     11  CE3       19.7450   17.2580    2.3090 C.ar   26  TRP26       0.0012
     12  CZ2       19.9250   19.9030    1.3010 C.ar   26  TRP26       0.0191
     13  CZ3       19.6950   18.3530    3.1510 C.ar   26  TRP26       0.0001
     14  CH2       19.7710   19.6600    2.6420 C.ar   26  TRP26       0.0015
     15  N         16.9120   16.2900    1.2410 N.am   27  PRO27      -0.2718
     16  CA        16.3440   16.5800    2.5730 C.3    27  PRO27       0.1535
     17  C         15.3050   15.5670    3.0000 C.2    27  PRO27       0.2598
     18  O         15.0520   15.4180    4.1890 O.2    27  PRO27      -0.2715
     19  CB        15.6880   17.9530    2.3890 C.3    27  PRO27       0.0310
     20  CG        16.4380   18.5880    1.2260 C.3    27  PRO27       0.0237
     21  CD        16.6920   17.4220    0.3100 C.3    27  PRO27       0.0939
     22  N         14.6760   14.8660    2.0290 N.am   28  PHE28      -0.1974
     23  CA        13.5440   13.9680    2.2780 C.3    28  PHE28       0.1639
     24  C         13.9570   12.5120    2.2850 C.2    28  PHE28       0.2290
     25  O         13.0860   11.6540    2.4830 O.2    28  PHE28      -0.2864
     26  CB        12.4880   14.2160    1.1870 C.3    28  PHE28       0.0560
     27  CG        12.0700   15.6550    1.1560 C.ar   28  PHE28      -0.0200
     28  CD1       11.1850   16.1560    2.1030 C.ar   28  PHE28      -0.0042
     29  CD2       12.5780   16.5280    0.1970 C.ar   28  PHE28      -0.0042
     30  CE1       10.8300   17.4910    2.1070 C.ar   28  PHE28      -0.0003
     31  CE2       12.1970   17.8660    0.1870 C.ar   28  PHE28      -0.0003
     32  CZ        11.3340   18.3390    1.1450 C.ar   28  PHE28      -0.0000
     33  N         15.8030   10.7230    4.4180 N.3    30  HIS30      -0.1227
     34  CA        16.0010   10.0860    5.7320 C.3    30  HIS30       0.1738
     35  C         15.2590   10.9190    6.7650 C.2    30  HIS30       0.2443
     36  O         15.0200   12.1190    6.5300 O.2    30  HIS30      -0.2733
     37  CB        17.5270   10.0870    6.0890 C.3    30  HIS30       0.0758
     38  CG        18.3860    9.3610    5.1100 C.ar   30  HIS30       0.0818
     39  ND1       18.3770    7.9690    5.0220 N.ar   30  HIS30      -0.2268
     40  CD2       19.2090    9.8520    4.1430 C.ar   30  HIS30       0.1154
     41  CE1       19.2240    7.6530    4.0400 C.ar   30  HIS30       0.1986
     42  NE2       19.7490    8.7480    3.4790 N.ar   30  HIS30      -0.2212
     43  N         14.9530   10.3410    7.9390 N.am   31  PRO31      -0.2643
     44  CA        14.3380   11.1610    9.0040 C.3    31  PRO31       0.1762
     45  C         15.2530   12.2930    9.4400 C.2    31  PRO31       0.2642
     46  O         16.4760   12.1430    9.5110 O.2    31  PRO31      -0.2712
     47  CB        14.1200   10.1810   10.1700 C.2    31  PRO31      -0.0003
     48  CG        14.7600    8.9050    9.7820 C.2    31  PRO31      -0.0071
     49  CD        15.1900    8.9330    8.3440 C.3    31  PRO31       0.1204
     50  N         14.6370   13.4130    9.8210 N.am   32  VAL32      -0.1961
     51  CA        15.3880   14.5730   10.3060 C.3    32  VAL32       0.1727
     52  C         16.0930   14.2340   11.6100 C.2    32  VAL32       0.2616
     53  O         15.5030   13.6150   12.5090 O.2    32  VAL32      -0.2715
     54  CB        14.4240   15.7550   10.5340 C.3    32  VAL32       0.0290
     55  CG1       15.1440   16.9550   11.1670 C.3    32  VAL32       0.0023
     56  CG2       13.7710   16.1680    9.2290 C.3    32  VAL32       0.0023
     57  N         17.3540   14.6350   11.7190 N.am   33  ASN33      -0.1972
     58  CA        18.1030   14.4960   12.9490 C.3    33  ASN33       0.1688
     59  C         17.9830   15.8240   13.6990 C.2    33  ASN33       0.2292
     60  O         18.4020   16.8610   13.1680 O.2    33  ASN33      -0.2864
     61  CB        19.5620   14.2090   12.5850 C.3    33  ASN33       0.1181
     62  CG        20.4620   13.8930   13.7380 C.2    33  ASN33       0.2629
     63  OD1       20.2370   14.3170   14.8800 O.2    33  ASN33      -0.2716
     64  ND2       21.5400   13.1640   13.4340 N.am   33  ASN33      -0.0877
     65  N         20.7340   18.3470   13.7150 N.3    36  PHE36      -0.1227
     66  CA        20.9380   19.1270   12.4940 C.3    36  PHE36       0.1736
     67  C         19.8460   20.1510   12.2340 C.2    36  PHE36       0.2595
     68  O         20.0840   21.1190   11.4900 O.2    36  PHE36      -0.2718
     69  CB        21.0760   18.1780   11.3000 C.3    36  PHE36       0.0547
     70  CG        22.1640   17.1190   11.3960 C.ar   36  PHE36      -0.0202
     71  CD1       23.2650   17.2870   12.2370 C.ar   36  PHE36      -0.0042
     72  CD2       22.1270   16.0000   10.5860 C.ar   36  PHE36      -0.0042
     73  CE1       24.2700   16.3100   12.3120 C.ar   36  PHE36      -0.0003
     74  CE2       23.1250   15.0290   10.6560 C.ar   36  PHE36      -0.0003
     75  CZ        24.1990   15.2030   11.4980 C.ar   36  PHE36      -0.0000
     76  N         18.6180   19.8960   12.7370 N.am   37  VAL37      -0.1980
     77  CA        17.4720   20.8100   12.5380 C.3    37  VAL37       0.1595
     78  C         16.7830   20.8940   13.9200 C.2    37  VAL37       0.2287
     79  O         15.8330   20.1460   14.2130 O.2    37  VAL37      -0.2864
     80  CB        16.4990   20.3550   11.4370 C.3    37  VAL37       0.0276
     81  CG1       15.4760   21.4590   11.1840 C.3    37  VAL37       0.0022
     82  CG2       17.2250   19.9800   10.1230 C.3    37  VAL37       0.0022
     83  N         12.8130   21.0640   14.4640 N.3    40  TYR40      -0.1241
     84  CA        11.9290   20.3110   13.5840 C.3    40  TYR40       0.1605
     85  C         10.7540   19.6290   14.2780 C.2    40  TYR40       0.2264
     86  O          9.6000   19.7790   13.8690 O.2    40  TYR40      -0.2867
     87  CB        12.7280   19.2900   12.7510 C.3    40  TYR40       0.0534
     88  CG        11.9110   18.7300   11.6200 C.ar   40  TYR40      -0.0201
     89  CD1       11.6700   19.4810   10.4770 C.ar   40  TYR40      -0.0009
     90  CD2       11.3000   17.4780   11.7210 C.ar   40  TYR40      -0.0009
     91  CE1       10.9220   18.9700    9.4290 C.ar   40  TYR40       0.0417
     92  CE2       10.5000   16.9800   10.6960 C.ar   40  TYR40       0.0417
     93  CZ        10.3070   17.7430    9.5570 C.ar   40  TYR40       0.1957
     94  OH         9.5730   17.2630    8.5020 O.3    40  TYR40      -0.2866
     95  N          7.6520   12.1820    8.4920 N.3    48  MET48      -0.1230
     96  CA         7.7200   11.1690    7.4450 C.3    48  MET48       0.1702
     97  C          8.8940   11.4200    6.5330 C.2    48  MET48       0.2592
     98  O          9.2910   12.5650    6.3450 O.2    48  MET48      -0.2718
     99  CB         6.3890   11.1100    6.6760 C.3    48  MET48       0.0401
    100  CG         6.2490    9.9300    5.6730 C.3    48  MET48       0.0596
    101  SD         6.6240    8.2840    6.3370 S.3    48  MET48      -0.1393
    102  CE         5.4920    8.1920    7.7990 C.3    48  MET48       0.0692
    103  N          9.4480   10.3730    5.9140 N.am   49  ASP49      -0.1974
    104  CA        10.5720   10.5430    4.9830 C.3    49  ASP49       0.1709
    105  C         10.5700    9.3180    4.0550 C.2    49  ASP49       0.2293
    106  O          9.8730    8.3220    4.3250 O.2    49  ASP49      -0.2864
    107  CB        11.8850   10.6950    5.7460 C.3    49  ASP49       0.1436
    108  CG        12.2040    9.4280    6.4760 C.2    49  ASP49       0.3671
    109  OD1       11.6950    9.2600    7.6110 O.co2  49  ASP49      -0.2456
    110  OD2       12.8610    8.5390    5.8640 O.co2  49  ASP49      -0.2456
    111  N          4.6030   13.9220    3.6200 N.3    75  ILE75      -0.1245
    112  CA         5.8720   14.6190    3.4020 C.3    75  ILE75       0.1561
    113  C          5.5930   16.0420    2.8750 C.2    75  ILE75       0.2260
    114  O          6.1850   17.0270    3.3640 O.2    75  ILE75      -0.2867
    115  CB         6.7520   13.8150    2.4290 C.3    75  ILE75       0.0252
    116  CG1        7.1540   12.4820    3.0930 C.3    75  ILE75       0.0019
    117  CG2        7.9880   14.6440    2.0480 C.3    75  ILE75       0.0019
    118  CD1        7.9740   11.5100    2.2040 C.3    75  ILE75       0.0001
    119  N          3.9760   18.2340    5.6320 N.3    78  ASN78      -0.1225
    120  CA         4.9590   18.6300    6.6350 C.3    78  ASN78       0.1785
    121  C          5.8730   19.7440    6.1280 C.2    78  ASN78       0.2597
    122  O          6.1950   20.6760    6.8960 O.2    78  ASN78      -0.2718
    123  CB         5.7910   17.4460    7.1230 C.3    78  ASN78       0.1169
    124  CG         5.0130   16.4980    8.0050 C.2    78  ASN78       0.2627
    125  OD1        4.0290   16.8880    8.6590 O.2    78  ASN78      -0.2716
    126  ND2        5.5010   15.2830    8.1100 N.am   78  ASN78      -0.0877
    127  N          6.2810   19.6850    4.8450 N.am   79  SER79      -0.1952
    128  CA         7.1190   20.7740    4.3370 C.3    79  SER79       0.1924
    129  C          6.3170   22.0950    4.2760 C.2    79  SER79       0.2314
    130  O          6.8680   23.1620    4.5950 O.2    79  SER79      -0.2863
    131  CB         7.6500   20.4250    2.9550 C.3    79  SER79       0.2116
    132  OG         8.5700   21.4090    2.5100 O.3    79  SER79      -0.2180
    133  N          6.3730   23.3010    7.9590 N.3    82  TYR82      -0.1227
    134  CA         7.6570   23.6990    8.5140 C.3    82  TYR82       0.1736
    135  C          8.3660   24.8020    7.7510 C.2    82  TYR82       0.2595
    136  O          8.9780   25.7050    8.3570 O.2    82  TYR82      -0.2718
    137  CB         8.6050   22.4770    8.6310 C.3    82  TYR82       0.0548
    138  CG         9.7800   22.7660    9.5350 C.ar   82  TYR82      -0.0200
    139  CD1        9.6170   22.8390   10.9140 C.ar   82  TYR82      -0.0009
    140  CD2       11.0430   23.0210    9.0130 C.ar   82  TYR82      -0.0009
    141  CE1       10.6630   23.2120   11.7440 C.ar   82  TYR82       0.0417
    142  CE2       12.1200   23.3570    9.8470 C.ar   82  TYR82       0.0417
    143  CZ        11.9100   23.4470   11.2100 C.ar   82  TYR82       0.1957
    144  OH        12.9180   23.7730   12.0960 O.3    82  TYR82      -0.2866
    145  N          8.3000   24.7350    6.4260 N.am   83  ASN83      -0.1974
    146  CA         9.0500   25.6320    5.5470 C.3    83  ASN83       0.1688
    147  C          8.2010   26.7250    4.8950 C.2    83  ASN83       0.2292
    148  O          8.7620   27.7410    4.4490 O.2    83  ASN83      -0.2864
    149  CB         9.7200   24.7860    4.4520 C.3    83  ASN83       0.1181
    150  CG        10.6220   23.7330    5.0310 C.2    83  ASN83       0.2629
    151  OD1       11.5220   24.0460    5.8320 O.2    83  ASN83      -0.2716
    152  ND2       10.3770   22.4820    4.6960 N.am   83  ASN83      -0.0877
    153  N         12.2110   23.9760   -0.3210 N.3    89  TYR89      -0.1241
    154  CA        12.0050   22.6100    0.2060 C.3    89  TYR89       0.1605
    155  C         10.6190   22.1030   -0.2200 C.2    89  TYR89       0.2264
    156  O         10.4800   20.9410   -0.6180 O.2    89  TYR89      -0.2867
    157  CB        12.0500   22.5830    1.7350 C.3    89  TYR89       0.0534
    158  CG        13.4250   22.7130    2.3450 C.ar   89  TYR89      -0.0201
    159  CD1       14.3640   21.6880    2.2340 C.ar   89  TYR89      -0.0009
    160  CD2       13.7810   23.8440    3.0800 C.ar   89  TYR89      -0.0009
    161  CE1       15.6140   21.7790    2.8490 C.ar   89  TYR89       0.0417
    162  CE2       15.0310   23.9510    3.6850 C.ar   89  TYR89       0.0417
    163  CZ        15.9460   22.9100    3.5710 C.ar   89  TYR89       0.1957
    164  OH        17.2130   23.0290    4.1160 O.3    89  TYR89      -0.2866
@<TRIPOS>BOND
     1     1     2    1
     2     7     9   ar
     3     7     6   ar
     4     9    10   ar
     5   156   155    2
     6   153   154    1
     7     2     5    1
     8     2     3    1
     9     5     6    1
    10     6     8   ar
    11   155   154    1
    12    31    29   ar
    13    31    32   ar
    14    29    27   ar
    15   154   157    1
    16    21    20    1
    17    21    15    1
    18    10     8   ar
    19    10    12   ar
    20     8    11   ar
    21     3    15   am
    22     3     4    2
    23    32    30   ar
    24    27    26    1
    25    27    28   ar
    26    26    23    1
    27    20    19    1
    28    15    16    1
    29    12    14   ar
    30   157   158    1
    31    22    23    1
    32    22    17   am
    33   117   115    1
    34    28    30   ar
    35   118   116    1
    36   159   158   ar
    37   159   161   ar
    38    23    24    1
    39    24    25    2
    40    11    13   ar
    41   158   160   ar
    42    19    16    1
    43   115   116    1
    44   115   112    1
    45   132   131    1
    46    16    17    1
    47    14    13   ar
    48   161   163   ar
    49   113   114    2
    50   113   112    1
    51   131   128    1
    52    17    18    2
    53   160   162   ar
    54   112   111    1
    55    42    41   ar
    56    42    40   ar
    57   163   162   ar
    58   163   164    1
    59    41    39   ar
    60   105   106    2
    61   105   104    1
    62    40    38   ar
    63   129   128    1
    64   129   130    2
    65   128   127    1
    66    33    34    1
    67   148   147    2
    68   149   150    1
    69   149   146    1
    70   152   150   am
    71   127   121   am
    72   147   146    1
    73   104   107    1
    74   104   103    1
    75    39    38   ar
    76   150   151    2
    77    38    37    1
    78   146   145    1
    79   119   120    1
    80   100   101    1
    81   100    99    1
    82    34    37    1
    83    34    35    1
    84   107   108    1
    85   110   108   ar
    86   103    97   am
    87   121   120    1
    88   121   122    2
    89   101   102    1
    90    98    97    2
    91   145   135   am
    92   108   109   ar
    93    36    35    2
    94    97    96    1
    95   120   123    1
    96    99    96    1
    97    35    43   am
    98   123   124    1
    99    96    95    1
   100   135   136    2
   101   135   134    1
   102    43    49    1
   103    43    44    1
   104   133   134    1
   105   124   126   am
   106   124   125    2
   107    49    48    1
   108    94    93    1
   109   134   137    1
   110   137   138    1
   111    44    45    1
   112    44    47    1
   113   140   138   ar
   114   140   142   ar
   115    56    54    1
   116    91    93   ar
   117    91    89   ar
   118    45    46    2
   119    45    50   am
   120   138   139   ar
   121    93    92   ar
   122    48    47    2
   123    50    51    1
   124   142   143   ar
   125    82    80    1
   126    51    54    1
   127    51    52    1
   128    89    88   ar
   129    54    55    1
   130    72    74   ar
   131    72    70   ar
   132    74    75   ar
   133    92    90   ar
   134   139   141   ar
   135    81    80    1
   136   143   141   ar
   137   143   144    1
   138    69    70    1
   139    69    66    1
   140    70    71   ar
   141    80    77    1
   142    68    67    2
   143    75    73   ar
   144    52    57   am
   145    52    53    2
   146    88    90   ar
   147    88    87    1
   148    57    58    1
   149    67    66    1
   150    67    76   am
   151    71    73   ar
   152    66    65    1
   153    77    76    1
   154    77    78    1
   155    61    58    1
   156    61    62    1
   157    87    84    1
   158    58    59    1
   159    60    59    2
   160    64    62   am
   161    84    85    1
   162    84    83    1
   163    62    63    2
   164    86    85    2
   165    78    79    2
