@<TRIPOS>MOLECULE
tmp/6df7B00.pdb
 164 165 0 0 0
SMALL
GASTEIGER

@<TRIPOS>ATOM
      1  N          9.4030  -23.2700   95.2830 N.3    26  TRP26      -0.1228
      2  CA         9.5540  -24.7290   95.4600 C.3    26  TRP26       0.1722
      3  C         10.6390  -25.3690   94.5440 C.2    26  TRP26       0.2437
      4  O         11.3350  -26.2540   95.0560 O.2    26  TRP26      -0.2733
      5  CB         8.1910  -25.4860   95.3460 C.3    26  TRP26       0.0563
      6  CG         7.5730  -25.3980   93.9770 C.ar   26  TRP26       0.0003
      7  CD1        6.7250  -24.4300   93.5240 C.ar   26  TRP26       0.0946
      8  CD2        7.8860  -26.2250   92.8430 C.ar   26  TRP26       0.0152
      9  NE1        6.4970  -24.5960   92.1760 N.ar   26  TRP26      -0.2442
     10  CE2        7.1860  -25.7000   91.7360 C.ar   26  TRP26       0.0810
     11  CE3        8.7240  -27.3550   92.6490 C.ar   26  TRP26       0.0012
     12  CZ2        7.2880  -26.2620   90.4480 C.ar   26  TRP26       0.0191
     13  CZ3        8.8310  -27.9050   91.3800 C.ar   26  TRP26       0.0001
     14  CH2        8.1200  -27.3600   90.2940 C.ar   26  TRP26       0.0015
     15  N         10.8960  -24.9460   93.2610 N.am   27  PRO27      -0.2718
     16  CA        11.9380  -25.6370   92.4730 C.3    27  PRO27       0.1535
     17  C         13.3450  -25.4210   93.0100 C.2    27  PRO27       0.2598
     18  O         14.2410  -26.1620   92.6530 O.2    27  PRO27      -0.2715
     19  CB        11.7990  -25.0130   91.0660 C.3    27  PRO27       0.0310
     20  CG        10.4500  -24.3850   91.0420 C.3    27  PRO27       0.0237
     21  CD        10.2440  -23.9000   92.4330 C.3    27  PRO27       0.0939
     22  N         13.5240  -24.4340   93.9000 N.am   28  PHE28      -0.1974
     23  CA        14.8290  -24.0610   94.4590 C.3    28  PHE28       0.1639
     24  C         15.0790  -24.6310   95.8400 C.2    28  PHE28       0.2290
     25  O         16.1720  -24.4450   96.3830 O.2    28  PHE28      -0.2864
     26  CB        14.9600  -22.5180   94.4950 C.3    28  PHE28       0.0560
     27  CG        14.8360  -21.8870   93.1310 C.ar   28  PHE28      -0.0200
     28  CD1       15.9440  -21.7840   92.2930 C.ar   28  PHE28      -0.0042
     29  CD2       13.6010  -21.4530   92.6570 C.ar   28  PHE28      -0.0042
     30  CE1       15.8200  -21.2440   91.0130 C.ar   28  PHE28      -0.0003
     31  CE2       13.4820  -20.8940   91.3750 C.ar   28  PHE28      -0.0003
     32  CZ        14.5900  -20.7900   90.5690 C.ar   28  PHE28      -0.0000
     33  N         15.2870  -27.7760   96.9430 N.3    30  HIS30      -0.1227
     34  CA        16.1180  -28.9750   97.0500 C.3    30  HIS30       0.1737
     35  C         17.0090  -29.1300   95.8150 C.2    30  HIS30       0.2438
     36  O         16.7160  -28.5020   94.7920 O.2    30  HIS30      -0.2733
     37  CB        15.2100  -30.2210   97.1940 C.3    30  HIS30       0.0758
     38  CG        14.2380  -30.1160   98.3290 C.ar   30  HIS30       0.0818
     39  ND1       14.6330  -30.3310   99.6400 N.ar   30  HIS30      -0.2268
     40  CD2       12.9330  -29.7540   98.3170 C.ar   30  HIS30       0.1154
     41  CE1       13.5560  -30.1150  100.3760 C.ar   30  HIS30       0.1986
     42  NE2       12.5090  -29.7680   99.6240 N.ar   30  HIS30      -0.2212
     43  N         18.0830  -29.9670   95.8800 N.am   31  PRO31      -0.2718
     44  CA        18.9030  -30.1890   94.6760 C.3    31  PRO31       0.1535
     45  C         18.0540  -30.7680   93.5560 C.2    31  PRO31       0.2598
     46  O         17.1440  -31.5590   93.8240 O.2    31  PRO31      -0.2715
     47  CB        19.9430  -31.2450   95.1090 C.3    31  PRO31       0.0310
     48  CG        19.8810  -31.3040   96.5890 C.3    31  PRO31       0.0237
     49  CD        18.5500  -30.7820   97.0260 C.3    31  PRO31       0.0939
     50  N         18.3270  -30.3480   92.3210 N.am   32  VAL32      -0.1964
     51  CA        17.6900  -30.8960   91.1220 C.3    32  VAL32       0.1727
     52  C         17.9290  -32.4010   91.0420 C.2    32  VAL32       0.2616
     53  O         19.0530  -32.8600   91.2480 O.2    32  VAL32      -0.2715
     54  CB        18.2170  -30.2050   89.8330 C.3    32  VAL32       0.0290
     55  CG1       17.7510  -30.9320   88.5860 C.3    32  VAL32       0.0023
     56  CG2       17.7820  -28.7620   89.7880 C.3    32  VAL32       0.0023
     57  N         16.8740  -33.1630   90.7590 N.am   33  ASN33      -0.1972
     58  CA        16.9920  -34.5970   90.5600 C.3    33  ASN33       0.1688
     59  C         17.0950  -34.7290   89.0530 C.2    33  ASN33       0.2292
     60  O         16.1420  -34.3600   88.3510 O.2    33  ASN33      -0.2864
     61  CB        15.7470  -35.3230   91.0900 C.3    33  ASN33       0.1181
     62  CG        15.8140  -36.8460   91.0550 C.2    33  ASN33       0.2629
     63  OD1       16.4640  -37.4700   90.2070 O.2    33  ASN33      -0.2716
     64  ND2       15.1160  -37.4810   91.9690 N.am   33  ASN33      -0.0877
     65  N         14.2420  -35.8480   86.6890 N.3    36  PHE36      -0.1227
     66  CA        13.1970  -34.9270   86.2350 C.3    36  PHE36       0.1736
     67  C         13.7420  -33.8730   85.2740 C.2    36  PHE36       0.2595
     68  O         12.9920  -33.3540   84.4610 O.2    36  PHE36      -0.2718
     69  CB        12.4970  -34.2450   87.4230 C.3    36  PHE36       0.0547
     70  CG        11.9360  -35.1990   88.4550 C.ar   36  PHE36      -0.0202
     71  CD1       11.0330  -36.1960   88.0920 C.ar   36  PHE36      -0.0042
     72  CD2       12.2840  -35.0820   89.7940 C.ar   36  PHE36      -0.0042
     73  CE1       10.5200  -37.0770   89.0410 C.ar   36  PHE36      -0.0003
     74  CE2       11.7620  -35.9650   90.7510 C.ar   36  PHE36      -0.0003
     75  CZ        10.8740  -36.9450   90.3720 C.ar   36  PHE36      -0.0000
     76  N         15.0310  -33.5220   85.3970 N.am   37  VAL37      -0.1980
     77  CA        15.6960  -32.4580   84.6100 C.3    37  VAL37       0.1595
     78  C         17.0260  -33.0830   84.0970 C.2    37  VAL37       0.2287
     79  O         18.0790  -32.9190   84.7260 O.2    37  VAL37      -0.2864
     80  CB        15.8820  -31.1940   85.5030 C.3    37  VAL37       0.0276
     81  CG1       16.4080  -30.0060   84.6990 C.3    37  VAL37       0.0022
     82  CG2       14.5760  -30.8160   86.2280 C.3    37  VAL37       0.0022
     83  N         20.5340  -30.9960   83.4700 N.3    40  TYR40      -0.1241
     84  CA        20.8390  -29.9250   84.4230 C.3    40  TYR40       0.1605
     85  C         22.3050  -29.8350   84.8120 C.2    40  TYR40       0.2264
     86  O         22.8920  -28.7580   84.7240 O.2    40  TYR40      -0.2867
     87  CB        19.9620  -29.9990   85.6760 C.3    40  TYR40       0.0534
     88  CG        20.0840  -28.7550   86.5280 C.ar   40  TYR40      -0.0201
     89  CD1       19.4160  -27.5790   86.1810 C.ar   40  TYR40      -0.0009
     90  CD2       20.8710  -28.7460   87.6770 C.ar   40  TYR40      -0.0009
     91  CE1       19.5260  -26.4300   86.9590 C.ar   40  TYR40       0.0417
     92  CE2       20.9910  -27.5990   88.4620 C.ar   40  TYR40       0.0417
     93  CZ        20.3220  -26.4410   88.0910 C.ar   40  TYR40       0.1957
     94  OH        20.4260  -25.3000   88.8420 O.3    40  TYR40      -0.2866
     95  N         23.3890  -25.2810   93.2600 N.3    48  MET48      -0.1230
     96  CA        23.0710  -24.7430   94.5650 C.3    48  MET48       0.1702
     97  C         21.5620  -24.7710   94.7400 C.2    48  MET48       0.2592
     98  O         20.8170  -24.5880   93.7790 O.2    48  MET48      -0.2718
     99  CB        23.6080  -23.2940   94.7070 C.3    48  MET48       0.0401
    100  CG        23.5940  -22.7590   96.1540 C.3    48  MET48       0.0596
    101  SD        24.2620  -23.8690   97.4700 S.3    48  MET48      -0.1393
    102  CE        25.9600  -24.1480   96.9140 C.3    48  MET48       0.0692
    103  N         21.1190  -24.9990   95.9660 N.am   49  ASP49      -0.1974
    104  CA        19.6940  -24.9730   96.3150 C.3    49  ASP49       0.1709
    105  C         19.6130  -24.5670   97.7760 C.2    49  ASP49       0.2293
    106  O         20.6310  -24.5790   98.4790 O.2    49  ASP49      -0.2864
    107  CB        19.0560  -26.3400   96.0830 C.3    49  ASP49       0.1436
    108  CG        19.6390  -27.3620   97.0140 C.2    49  ASP49       0.3671
    109  OD1       20.6880  -27.9560   96.6610 O.co2  49  ASP49      -0.2456
    110  OD2       19.0670  -27.5580   98.1120 O.co2  49  ASP49      -0.2456
    111  N         22.3410  -19.2760   93.0130 N.3    75  ILE75      -0.1245
    112  CA        20.9600  -19.6430   92.6750 C.3    75  ILE75       0.1561
    113  C         20.4350  -18.7900   91.4820 C.2    75  ILE75       0.2260
    114  O         19.8840  -19.3450   90.5260 O.2    75  ILE75      -0.2867
    115  CB        20.0510  -19.6080   93.9340 C.3    75  ILE75       0.0252
    116  CG1       20.3540  -20.8520   94.8390 C.3    75  ILE75       0.0019
    117  CG2       18.5480  -19.4970   93.5730 C.3    75  ILE75       0.0019
    118  CD1       19.8950  -20.7280   96.1750 C.3    75  ILE75       0.0001
    119  N         22.8470  -19.5570   88.2320 N.3    78  ASN78      -0.1225
    120  CA        22.5020  -20.8630   87.6570 C.3    78  ASN78       0.1785
    121  C         21.2040  -20.7990   86.8820 C.2    78  ASN78       0.2597
    122  O         21.1130  -21.3930   85.8020 O.2    78  ASN78      -0.2718
    123  CB        22.4300  -21.9530   88.7380 C.3    78  ASN78       0.1169
    124  CG        23.8120  -22.3150   89.2520 C.2    78  ASN78       0.2627
    125  OD1       24.8310  -22.0630   88.5990 O.2    78  ASN78      -0.2716
    126  ND2       23.8810  -22.9370   90.4110 N.am   78  ASN78      -0.0877
    127  N         20.2000  -20.0750   87.4150 N.am   79  SER79      -0.1952
    128  CA        18.9270  -19.9490   86.7130 C.3    79  SER79       0.1924
    129  C         19.0800  -19.1880   85.3990 C.2    79  SER79       0.2314
    130  O         18.4780  -19.6090   84.4060 O.2    79  SER79      -0.2863
    131  CB        17.8700  -19.2830   87.5870 C.3    79  SER79       0.2116
    132  OG        16.6290  -19.3760   86.9130 O.3    79  SER79      -0.2180
    133  N         20.8460  -21.6660   82.9750 N.3    82  TYR82      -0.1227
    134  CA        20.0640  -22.8110   82.5460 C.3    82  TYR82       0.1736
    135  C         18.7380  -22.4510   81.8660 C.2    82  TYR82       0.2595
    136  O         18.3510  -23.0930   80.8870 O.2    82  TYR82      -0.2718
    137  CB        19.8310  -23.8040   83.7250 C.3    82  TYR82       0.0548
    138  CG        19.2280  -25.1210   83.2540 C.ar   82  TYR82      -0.0200
    139  CD1       20.0140  -26.0890   82.6300 C.ar   82  TYR82      -0.0009
    140  CD2       17.8600  -25.3570   83.3490 C.ar   82  TYR82      -0.0009
    141  CE1       19.4560  -27.2740   82.1320 C.ar   82  TYR82       0.0417
    142  CE2       17.2870  -26.5300   82.8450 C.ar   82  TYR82       0.0417
    143  CZ        18.0910  -27.4890   82.2430 C.ar   82  TYR82       0.1957
    144  OH        17.5330  -28.6570   81.7720 O.3    82  TYR82      -0.2866
    145  N         18.0100  -21.4890   82.4320 N.am   83  ASN83      -0.1974
    146  CA        16.6540  -21.1310   81.9940 C.3    83  ASN83       0.1688
    147  C         16.5710  -19.9010   81.0920 C.2    83  ASN83       0.2292
    148  O         15.5610  -19.7220   80.4150 O.2    83  ASN83      -0.2864
    149  CB        15.7650  -20.9190   83.2340 C.3    83  ASN83       0.1181
    150  CG        15.7230  -22.1230   84.1300 C.2    83  ASN83       0.2629
    151  OD1       15.3380  -23.2050   83.7040 O.2    83  ASN83      -0.2716
    152  ND2       16.1250  -21.9740   85.3880 N.am   83  ASN83      -0.0877
    153  N         11.4960  -19.0030   86.2650 N.3    89  TYR89      -0.1241
    154  CA        12.4620  -19.5410   87.2330 C.3    89  TYR89       0.1605
    155  C         13.4190  -18.4050   87.6500 C.2    89  TYR89       0.2264
    156  O         13.6650  -18.2290   88.8420 O.2    89  TYR89      -0.2867
    157  CB        13.3110  -20.6920   86.6340 C.3    89  TYR89       0.0534
    158  CG        12.5560  -21.9850   86.4530 C.ar   89  TYR89      -0.0201
    159  CD1       12.3630  -22.8570   87.5230 C.ar   89  TYR89      -0.0009
    160  CD2       12.0940  -22.3760   85.1980 C.ar   89  TYR89      -0.0009
    161  CE1       11.6510  -24.0470   87.3650 C.ar   89  TYR89       0.0417
    162  CE2       11.3980  -23.5730   85.0220 C.ar   89  TYR89       0.0417
    163  CZ        11.1930  -24.4130   86.1060 C.ar   89  TYR89       0.1957
    164  OH        10.5200  -25.5960   85.9360 O.3    89  TYR89      -0.2866
@<TRIPOS>BOND
     1   148   147    2
     2   136   135    2
     3   147   146    1
     4   144   143    1
     5   135   145   am
     6   135   134    1
     7   146   145    1
     8   146   149    1
     9   141   143   ar
    10   141   139   ar
    11   143   142   ar
    12   134   133    1
    13   134   137    1
    14   139   138   ar
    15   142   140   ar
    16   149   150    1
    17   138   140   ar
    18   138   137    1
    19    83    84    1
    20   151   150    2
    21    78    77    1
    22    78    79    2
    23   150   152   am
    24   130   129    2
    25    84    85    1
    26    84    87    1
    27    68    67    2
    28    77    76    1
    29    77    80    1
    30    81    80    1
    31    86    85    2
    32   162   160   ar
    33   162   163   ar
    34   160   158   ar
    35    67    76   am
    36    67    66    1
    37   129   128    1
    38    80    82    1
    39    87    88    1
    40   122   121    2
    41   164   163    1
    42   163   161   ar
    43    89    88   ar
    44    89    91   ar
    45    66    65    1
    46    66    69    1
    47   153   154    1
    48   158   157    1
    49   158   159   ar
    50    88    90   ar
    51   157   154    1
    52   128   127    1
    53   128   131    1
    54   121   127   am
    55   121   120    1
    56   132   131    1
    57    91    93   ar
    58   154   155    1
    59   161   159   ar
    60    69    70    1
    61   155   156    2
    62   120   119    1
    63   120   123    1
    64    90    92   ar
    65    93    92   ar
    66    93    94    1
    67    71    70   ar
    68    71    73   ar
    69    60    59    2
    70    70    72   ar
    71    55    54    1
    72   125   124    2
    73   123   124    1
    74    73    75   ar
    75    59    58    1
    76   124   126   am
    77    56    54    1
    78    72    74   ar
    79    54    51    1
    80    63    62    2
    81    14    12   ar
    82    14    13   ar
    83    75    74   ar
    84    12    10   ar
    85   114   113    2
    86    58    57    1
    87    58    61    1
    88    32    30   ar
    89    32    31   ar
    90    57    52   am
    91    30    28   ar
    92    20    19    1
    93    20    21    1
    94    52    51    1
    95    52    53    2
    96    62    61    1
    97    62    64   am
    98    19    16    1
    99    51    50    1
   100    31    29   ar
   101    13    11   ar
   102   113   112    1
   103    10     9   ar
   104    10     8   ar
   105     9     7   ar
   106    28    27   ar
   107    50    45   am
   108    21    15    1
   109    16    17    1
   110    16    15    1
   111    11     8   ar
   112    18    17    2
   113    29    27   ar
   114   112   111    1
   115   112   115    1
   116     8     6   ar
   117    17    22   am
   118    27    26    1
   119    95    96    1
   120    15     3   am
   121     7     6   ar
   122    45    46    2
   123    45    44    1
   124   117   115    1
   125    98    97    2
   126    22    23    1
   127   115   116    1
   128     6     5    1
   129    23    26    1
   130    23    24    1
   131     3     4    2
   132     3     2    1
   133    96    99    1
   134    96    97    1
   135    44    47    1
   136    44    43    1
   137    99   100    1
   138    97   103   am
   139    36    35    2
   140   116   118    1
   141    47    48    1
   142     1     2    1
   143     5     2    1
   144    35    43   am
   145    35    34    1
   146    24    25    2
   147    43    49    1
   148   103   104    1
   149   107   104    1
   150   107   108    1
   151   100   101    1
   152   104   105    1
   153    48    49    1
   154   109   108   ar
   155   102   101    1
   156    33    34    1
   157   108   110   ar
   158    34    37    1
   159    37    38    1
   160   105   106    2
   161    40    38   ar
   162    40    42   ar
   163    38    39   ar
   164    42    41   ar
   165    39    41   ar
