@<TRIPOS>MOLECULE
tmp/6dfeB03.pdb
 175 170 0 0 0
SMALL
GASTEIGER

@<TRIPOS>ATOM
      1  N         47.9620   46.4120   47.2510 N.3    10  SER10      -0.1202
      2  CA        48.1510   45.1870   46.4470 C.3    10  SER10       0.2020
      3  C         48.3420   45.5680   44.9770 C.2    10  SER10       0.2618
      4  O         48.5740   46.7270   44.6890 O.2    10  SER10      -0.2717
      5  CB        46.9530   44.2360   46.6700 C.3    10  SER10       0.2103
      6  OG        47.0700   43.6660   47.9890 O.3    10  SER10      -0.2182
      7  N         48.2670   44.6080   44.0530 N.am   11  MET11      -0.1979
      8  CA        48.6090   44.8610   42.6610 C.3    11  MET11       0.1605
      9  C         47.7930   46.0100   42.0630 C.2    11  MET11       0.2287
     10  O         48.3760   46.8960   41.4440 O.2    11  MET11      -0.2864
     11  CB        48.4410   43.6240   41.8080 C.3    11  MET11       0.0413
     12  CG        48.8860   43.8350   40.3390 C.3    11  MET11       0.0598
     13  SD        48.5130   42.4890   39.1860 S.3    11  MET11      -0.1393
     14  CE        49.4120   41.1110   39.9190 C.3    11  MET11       0.0692
     15  N         56.0380   46.2870   47.3270 N.3    38  GLU38      -0.1231
     16  CA        56.2910   44.8520   47.6100 C.3    38  GLU38       0.1699
     17  C         57.0480   44.2010   46.4580 C.2    38  GLU38       0.2592
     18  O         56.8240   44.5080   45.3030 O.2    38  GLU38      -0.2718
     19  CB        55.0010   44.0710   47.8560 C.3    38  GLU38       0.0402
     20  CG        54.4740   44.1360   49.2950 C.3    38  GLU38       0.1161
     21  CD        55.2380   43.2230   50.2630 C.2    38  GLU38       0.3649
     22  OE1       55.9310   42.3020   49.7880 O.co2  38  GLU38      -0.2457
     23  OE2       55.1240   43.4090   51.5000 O.co2  38  GLU38      -0.2457
     24  N         57.9460   43.2950   46.7870 N.am   39  GLU39      -0.1966
     25  CA        58.8000   42.6520   45.7930 C.3    39  GLU39       0.1733
     26  C         58.0110   42.0480   44.6230 C.2    39  GLU39       0.2617
     27  O         58.4400   42.1400   43.4690 O.2    39  GLU39      -0.2715
     28  CB        59.7130   41.6080   46.4620 C.3    39  GLU39       0.0429
     29  CG        58.9790   40.4010   47.0560 C.3    39  GLU39       0.1163
     30  CD        59.8840   39.5000   47.9220 C.2    39  GLU39       0.3649
     31  OE1       61.1520   39.6970   48.0170 O.co2  39  GLU39      -0.2457
     32  OE2       59.3100   38.5910   48.5660 O.co2  39  GLU39      -0.2457
     33  N         56.8460   41.4690   44.9010 N.am   40  GLY40      -0.1940
     34  CA        56.0390   40.8430   43.8630 C.3    40  GLY40       0.2014
     35  C         55.5490   41.7720   42.7720 C.2    40  GLY40       0.2638
     36  O         55.2770   41.3130   41.6530 O.2    40  GLY40      -0.2714
     37  N         55.4450   43.0640   43.0910 N.am   41  PHE41      -0.1973
     38  CA        55.0080   44.0880   42.1820 C.3    41  PHE41       0.1639
     39  C         56.1190   45.0430   41.7590 C.2    41  PHE41       0.2290
     40  O         55.8400   46.0560   41.1470 O.2    41  PHE41      -0.2864
     41  CB        53.8630   44.8890   42.8200 C.3    41  PHE41       0.0560
     42  CG        52.8450   44.0420   43.5660 C.ar   41  PHE41      -0.0200
     43  CD1       52.2080   42.9910   42.9380 C.ar   41  PHE41      -0.0042
     44  CD2       52.5200   44.3270   44.8680 C.ar   41  PHE41      -0.0042
     45  CE1       51.2770   42.1930   43.6140 C.ar   41  PHE41      -0.0003
     46  CE2       51.5990   43.5430   45.5610 C.ar   41  PHE41      -0.0003
     47  CZ        50.9660   42.4730   44.9430 C.ar   41  PHE41      -0.0000
     48  N         55.4200   41.2090   53.8550 N.3    60  ARG60      -0.1231
     49  CA        54.5950   40.0030   54.0190 C.3    60  ARG60       0.1694
     50  C         55.4440   38.7380   54.2770 C.2    60  ARG60       0.2591
     51  O         55.1230   37.9250   55.1340 O.2    60  ARG60      -0.2718
     52  CB        53.6650   39.8120   52.8070 C.3    60  ARG60       0.0321
     53  CG        52.6000   40.8970   52.7000 C.3    60  ARG60       0.0489
     54  CD        52.0240   41.0900   51.2950 C.3    60  ARG60       0.2205
     55  NE        50.6980   41.7230   51.3340 N.pl3  60  ARG60      -0.0865
     56  CZ        49.8990   41.9610   50.2810 C.cat  60  ARG60       0.5346
     57  NH1       50.2590   41.6150   49.0450 N.pl3  60  ARG60       0.1354
     58  NH2       48.7010   42.5270   50.4690 N.pl3  60  ARG60       0.1354
     59  N         56.5350   38.6110   53.5360 N.am   61  ARG61      -0.1980
     60  CA        57.4240   37.4870   53.6720 C.3    61  ARG61       0.1597
     61  C         58.2810   37.5900   54.9480 C.2    61  ARG61       0.2287
     62  O         58.5330   36.6020   55.6210 O.2    61  ARG61      -0.2864
     63  CB        58.3290   37.4040   52.4520 C.3    61  ARG61       0.0334
     64  CG        58.6390   35.9780   52.0310 C.3    61  ARG61       0.0492
     65  CD        59.7200   35.9780   50.9760 C.3    61  ARG61       0.2205
     66  NE        60.9870   36.3020   51.6160 N.pl3  61  ARG61      -0.0865
     67  CZ        61.8470   37.2520   51.2570 C.cat  61  ARG61       0.5346
     68  NH1       61.6550   38.0580   50.2120 N.pl3  61  ARG61       0.1354
     69  NH2       62.9450   37.3840   51.9740 N.pl3  61  ARG61       0.1354
     70  N         41.6140   33.5050   37.1550 N.3   186  ALA186     -0.1231
     71  CA        42.1370   33.4370   38.5050 C.3   186  ALA186      0.1694
     72  C         41.8510   34.6830   39.3650 C.2   186  ALA186      0.2593
     73  O         42.1270   35.8250   38.9550 O.2   186  ALA186     -0.2718
     74  CB        43.6380   33.2220   38.4250 C.3   186  ALA186      0.0304
     75  N         41.2990   34.4450   40.5460 N.am  187  THR187     -0.1939
     76  CA        41.0710   35.4900   41.5230 C.3   187  THR187      0.2028
     77  C         41.2020   34.8920   42.9520 C.2   187  THR187      0.2642
     78  O         41.8470   33.8720   43.1490 O.2   187  THR187     -0.2714
     79  CB        39.7190   36.2640   41.2560 C.3   187  THR187      0.1808
     80  OG1       39.5630   37.3160   42.2130 O.3   187  THR187     -0.2208
     81  CG2       38.4750   35.3610   41.2740 C.3   187  THR187      0.0379
     82  N         40.5360   35.4940   43.9190 N.am  188  THR188     -0.1950
     83  CA        40.9940   35.5450   45.3020 C.3   188  THR188      0.1897
     84  C         40.1430   34.7290   46.3340 C.2   188  THR188      0.2313
     85  O         40.6140   34.4410   47.4330 O.2   188  THR188     -0.2863
     86  CB        41.1190   37.0840   45.6140 C.3   188  THR188      0.1794
     87  OG1       42.5020   37.4070   45.8680 O.3   188  THR188     -0.2208
     88  CG2       40.1030   37.6270   46.6960 C.3   188  THR188      0.0378
     89  N         46.4000   32.8460   31.2940 N.3   216  PRO216     -0.2102
     90  CA        47.5100   32.9230   32.2230 C.3   216  PRO216      0.1504
     91  C         47.2640   32.2410   33.5530 C.2   216  PRO216      0.2576
     92  O         46.1340   31.9460   33.9190 O.2   216  PRO216     -0.2718
     93  CB        47.6850   34.4250   32.4540 C.3   216  PRO216      0.0282
     94  CG        46.6780   35.0890   31.6170 C.3   216  PRO216      0.0208
     95  CD        45.6190   34.0820   31.3650 C.3   216  PRO216      0.0893
     96  N         48.3520   32.0200   34.2740 N.am  217  TRP217     -0.1963
     97  CA        48.2980   31.4340   35.5930 C.3   217  TRP217      0.1771
     98  C         49.5500   31.8230   36.3650 C.2   217  TRP217      0.2620
     99  O         50.6080   32.0140   35.7660 O.2   217  TRP217     -0.2715
    100  CB        48.1850   29.9280   35.4700 C.3   217  TRP217      0.0590
    101  CG        49.3220   29.2640   34.7070 C.ar  217  TRP217      0.0006
    102  CD1       49.4000   29.0610   33.3530 C.ar  217  TRP217      0.0946
    103  CD2       50.5180   28.7240   35.2640 C.ar  217  TRP217      0.0152
    104  NE1       50.5490   28.4140   33.0440 N.ar  217  TRP217     -0.2442
    105  CE2       51.2690   28.1920   34.1900 C.ar  217  TRP217      0.0810
    106  CE3       51.0220   28.6140   36.5700 C.ar  217  TRP217      0.0012
    107  CZ2       52.5080   27.5380   34.3750 C.ar  217  TRP217      0.0191
    108  CZ3       52.2670   27.9630   36.7630 C.ar  217  TRP217      0.0001
    109  CH2       52.9920   27.4410   35.6620 C.ar  217  TRP217      0.0015
    110  N         49.4190   31.9570   37.6840 N.am  218  GLY218     -0.1940
    111  CA        50.5380   32.2920   38.5580 C.3   218  GLY218      0.2014
    112  C         50.7420   31.3950   39.7730 C.2   218  GLY218      0.2638
    113  O         51.5350   31.7340   40.6540 O.2   218  GLY218     -0.2714
    114  N         50.0160   30.2810   39.8430 N.am  219  ALA219     -0.1977
    115  CA        50.1920   29.2950   40.9080 C.3   219  ALA219      0.1597
    116  C         49.6200   27.9580   40.4360 C.2   219  ALA219      0.2287
    117  O         48.7350   27.9450   39.5920 O.2   219  ALA219     -0.2864
    118  CB        49.5210   29.7580   42.1980 C.3   219  ALA219      0.0319
    119  N         45.9270   27.3990   39.7480 N.3   222  GLU222     -0.1245
    120  CA        45.5040   28.2210   38.5980 C.3   222  GLU222      0.1567
    121  C         45.8880   27.5840   37.2590 C.2   222  GLU222      0.2260
    122  O         45.0570   27.5550   36.3380 O.2   222  GLU222     -0.2867
    123  CB        46.0660   29.6540   38.6910 C.3   222  GLU222      0.0388
    124  CG        45.5900   30.4530   39.9160 C.3   222  GLU222      0.1160
    125  CD        46.2690   31.7950   40.1150 C.2   222  GLU222      0.3649
    126  OE1       47.1250   32.2300   39.2970 O.co2 222  GLU222     -0.2457
    127  OE2       45.9420   32.4260   41.1380 O.co2 222  GLU222     -0.2457
    128  N         55.1990   32.9720   33.4520 N.3   242  MET242     -0.1230
    129  CA        55.9410   34.1630   33.1070 C.3   242  MET242      0.1702
    130  C         55.9260   35.1230   34.2550 C.2   242  MET242      0.2593
    131  O         55.1690   34.9660   35.2170 O.2   242  MET242     -0.2718
    132  CB        55.4620   34.8220   31.7980 C.3   242  MET242      0.0401
    133  CG        53.9840   34.7010   31.4990 C.3   242  MET242      0.0596
    134  SD        53.5450   35.4590   29.9270 S.3   242  MET242     -0.1393
    135  CE        54.8530   34.9310   28.8120 C.3   242  MET242      0.0692
    136  N         56.8110   36.1040   34.1310 N.am  243  SER243     -0.1938
    137  CA        56.9190   37.1980   35.0720 C.3   243  SER243      0.2055
    138  C         55.7710   38.1410   34.8460 C.2   243  SER243      0.2642
    139  O         55.0710   38.0790   33.8310 O.2   243  SER243     -0.2714
    140  CB        58.1960   37.9610   34.8240 C.3   243  SER243      0.2130
    141  OG        58.0480   38.7240   33.6410 O.3   243  SER243     -0.2179
    142  N         55.6100   39.0510   35.7890 N.am  244  LEU244     -0.1977
    143  CA        54.5690   40.0520   35.7050 C.3   244  LEU244      0.1596
    144  C         54.7400   40.8580   34.4250 C.2   244  LEU244      0.2287
    145  O         53.7600   41.1190   33.7250 O.2   244  LEU244     -0.2864
    146  CB        54.5500   40.9420   36.9440 C.3   244  LEU244      0.0297
    147  CG        53.3410   41.8280   37.2380 C.3   244  LEU244      0.0022
    148  CD1       52.0630   41.0180   37.1830 C.3   244  LEU244      0.0001
    149  CD2       53.5200   42.4500   38.6290 C.3   244  LEU244      0.0001
    150  N         53.4350   38.7030   31.3960 N.3   247  VAL247     -0.1245
    151  CA        51.9810   38.6560   31.2930 C.3   247  VAL247      0.1561
    152  C         51.4390   40.0320   30.8790 C.2   247  VAL247      0.2260
    153  O         50.4570   40.1080   30.1630 O.2   247  VAL247     -0.2867
    154  CB        51.2880   38.0780   32.5470 C.3   247  VAL247      0.0252
    155  CG1       51.5030   38.9500   33.7710 C.3   247  VAL247      0.0019
    156  CG2       49.8070   37.9680   32.3260 C.3   247  VAL247      0.0019
    157  N         40.0320   40.9140   39.6710 N.3   262  THR262     -0.1203
    158  CA        41.3330   40.3600   40.0070 C.3   262  THR262      0.1994
    159  C         42.3960   41.3900   39.6300 C.2   262  THR262      0.2618
    160  O         42.1420   42.3210   38.8150 O.2   262  THR262     -0.2717
    161  CB        41.5520   38.9940   39.2850 C.3   262  THR262      0.1784
    162  OG1       42.6880   38.2960   39.8090 O.3   262  THR262     -0.2211
    163  CG2       41.7340   39.1910   37.7390 C.3   262  THR262      0.0376
    164  N         43.5690   41.2380   40.2400 N.am  263  GLY263     -0.1942
    165  CA        44.6840   42.1180   40.0080 C.3   263  GLY263      0.2014
    166  C         44.9740   42.3720   38.5410 C.2   263  GLY263      0.2638
    167  O         45.1710   43.5150   38.1310 O.2   263  GLY263     -0.2714
    168  N         44.9980   41.3060   37.7470 N.am  264  LEU264     -0.1977
    169  CA        45.4060   41.3850   36.3560 C.3   264  LEU264      0.1596
    170  C         44.3380   42.0730   35.4920 C.2   264  LEU264      0.2287
    171  O         44.6550   42.5520   34.4200 O.2   264  LEU264     -0.2864
    172  CB        45.7140   39.9870   35.8160 C.3   264  LEU264      0.0297
    173  CG        47.0160   39.3040   36.2580 C.3   264  LEU264      0.0022
    174  CD1       47.1100   37.9280   35.5950 C.3   264  LEU264      0.0001
    175  CD2       48.2000   40.1760   35.8640 C.3   264  LEU264      0.0001
@<TRIPOS>BOND
     1   135   134    1
     2   134   133    1
     3   153   152    2
     4   152   151    1
     5   151   150    1
     6   151   154    1
     7    89    95    1
     8    89    90    1
     9    95    94    1
    10   133   132    1
    11    94    93    1
    12   132   129    1
    13    90    93    1
    14    90    91    1
    15   156   154    1
    16   154   155    1
    17   104   102   ar
    18   104   105   ar
    19   129   128    1
    20   129   130    1
    21   102   101   ar
    22    91    92    2
    23    91    96   am
    24   141   140    1
    25   145   144    2
    26   139   138    2
    27   136   130   am
    28   136   137    1
    29   105   107   ar
    30   105   103   ar
    31   130   131    2
    32    96    97    1
    33   107   109   ar
    34   171   170    2
    35   144   143    1
    36   101   103   ar
    37   101   100    1
    38   140   137    1
    39   138   137    1
    40   138   142   am
    41   103   106   ar
    42   100    97    1
    43   170   169    1
    44    97    98    1
    45   174   173    1
    46   109   108   ar
    47   143   142    1
    48   143   146    1
    49    99    98    2
    50   172   173    1
    51   172   169    1
    52   175   173    1
    53   122   121    2
    54   169   168    1
    55    98   110   am
    56   106   108   ar
    57   146   147    1
    58    70    71    1
    59   148   147    1
    60   147   149    1
    61   121   120    1
    62   110   111    1
    63   163   161    1
    64   168   166   am
    65   167   166    2
    66    74    71    1
    67    71    72    1
    68   166   165    1
    69   111   112    1
    70   120   123    1
    71   120   119    1
    72   123   124    1
    73   160   159    2
    74    73    72    2
    75    13    14    1
    76    13    12    1
    77   161   162    1
    78   161   158    1
    79   126   125   ar
    80    72    75   am
    81   117   116    2
    82   159   158    1
    83   159   164   am
    84   157   158    1
    85   112   114   am
    86   112   113    2
    87   114   115    1
    88   124   125    1
    89   165   164    1
    90   125   127   ar
    91    12    11    1
    92   116   115    1
    93    75    76    1
    94   115   118    1
    95    40    39    2
    96    79    81    1
    97    79    76    1
    98    79    80    1
    99    10     9    2
   100    76    77    1
   101    36    35    2
   102    39    38    1
   103    11     8    1
   104     9     8    1
   105    38    41    1
   106    38    37    1
   107     8     7    1
   108    35    37   am
   109    35    34    1
   110    41    42    1
   111    43    42   ar
   112    43    45   ar
   113    77    78    2
   114    77    82   am
   115    27    26    2
   116    42    44   ar
   117    45    47   ar
   118    34    33    1
   119    82    83    1
   120     7     3   am
   121    26    33   am
   122    26    25    1
   123     4     3    2
   124    44    46   ar
   125    47    46   ar
   126     3     2    1
   127    83    86    1
   128    83    84    1
   129    18    17    2
   130    86    87    1
   131    86    88    1
   132    25    28    1
   133    25    24    1
   134    84    85    2
   135     2     5    1
   136     2     1    1
   137    17    24   am
   138    17    16    1
   139    28    29    1
   140     5     6    1
   141    29    30    1
   142    15    16    1
   143    16    19    1
   144    19    20    1
   145    30    31   ar
   146    30    32   ar
   147    57    56    1
   148    20    21    1
   149    22    21   ar
   150    68    67    1
   151    21    23   ar
   152    56    58    1
   153    56    55    2
   154    65    66    1
   155    65    64    1
   156    67    66    2
   157    67    69    1
   158    54    55    1
   159    54    53    1
   160    64    63    1
   161    63    60    1
   162    53    52    1
   163    52    49    1
   164    59    60    1
   165    59    50   am
   166    60    61    1
   167    48    49    1
   168    49    50    1
   169    50    51    2
   170    61    62    2
