@<TRIPOS>MOLECULE
tmp/6dfeB00.pdb
 98 88 0 0 0
SMALL
GASTEIGER

@<TRIPOS>ATOM
      1  N         53.7130   52.9460   48.6320 N.3     7  LYS7       -0.1245
      2  CA        52.5140   52.3420   48.1120 C.3     7  LYS7        0.1561
      3  C         52.8910   50.9270   47.7160 C.2     7  LYS7        0.2260
      4  O         53.3480   50.6660   46.5870 O.2     7  LYS7       -0.2867
      5  CB        52.0040   53.1310   46.9080 C.3     7  LYS7        0.0271
      6  CG        50.6480   52.6740   46.3770 C.3     7  LYS7        0.0035
      7  CD        49.5530   52.7330   47.4540 C.3     7  LYS7        0.0206
      8  CE        48.1930   52.9650   46.8360 C.3     7  LYS7        0.1093
      9  NZ        47.0580   52.7090   47.7470 N.3     7  LYS7       -0.1314
     10  N         51.2490   47.7530   48.0680 N.3     9  SER9       -0.1217
     11  CA        50.3390   46.6360   47.8320 C.3     9  SER9        0.1889
     12  C         48.9160   47.1520   47.7960 C.2     9  SER9        0.2288
     13  O         48.6770   48.2560   48.2440 O.2     9  SER9       -0.2866
     14  CB        50.4750   45.5850   48.9510 C.3     9  SER9        0.2089
     15  OG        50.0550   46.1050   50.1980 O.3     9  SER9       -0.2183
     16  N         46.2260   48.4040   43.5660 N.3    13  ASP13      -0.1239
     17  CA        46.4650   49.6620   44.2790 C.3    13  ASP13       0.1674
     18  C         47.7610   50.3200   43.8140 C.2    13  ASP13       0.2266
     19  O         47.8580   51.5610   43.7180 O.2    13  ASP13      -0.2867
     20  CB        46.4990   49.4160   45.7890 C.3    13  ASP13       0.1410
     21  CG        45.3110   48.6100   46.2790 C.2    13  ASP13       0.3668
     22  OD1       44.1670   49.0130   45.9820 O.co2  13  ASP13      -0.2456
     23  OD2       45.5360   47.5550   46.9240 O.co2  13  ASP13      -0.2456
     24  N         46.8790   51.7140   40.4100 N.3    16  HIS16      -0.1241
     25  CA        46.0460   52.9260   40.6020 C.3    16  HIS16       0.1621
     26  C         46.8110   54.2040   40.9220 C.2    16  HIS16       0.2264
     27  O         46.3190   55.2870   40.7230 O.2    16  HIS16      -0.2867
     28  CB        44.9920   52.7000   41.6770 C.3    16  HIS16       0.0745
     29  CG        43.9470   51.7200   41.2700 C.ar   16  HIS16       0.0817
     30  ND1       43.2290   50.9700   42.1780 N.ar   16  HIS16      -0.2268
     31  CD2       43.4810   51.3790   40.0390 C.ar   16  HIS16       0.1154
     32  CE1       42.3700   50.2070   41.5160 C.ar   16  HIS16       0.1986
     33  NE2       42.5050   50.4370   40.2230 N.ar   16  HIS16      -0.2212
     34  N         50.8560   56.9150   50.0670 N.3    93  ALA93      -0.1231
     35  CA        49.5780   56.7230   49.4280 C.3    93  ALA93       0.1694
     36  C         48.8820   55.4600   49.9050 C.2    93  ALA93       0.2591
     37  O         47.7990   55.1580   49.4290 O.2    93  ALA93      -0.2718
     38  CB        49.7400   56.6630   47.9360 C.3    93  ALA93       0.0304
     39  N         49.4600   54.7410   50.8730 N.am   94  GLN94      -0.1979
     40  CA        48.8650   53.4930   51.3400 C.3    94  GLN94       0.1601
     41  C         47.9180   53.7250   52.5290 C.2    94  GLN94       0.2287
     42  O         46.7800   53.2540   52.5310 O.2    94  GLN94      -0.2864
     43  CB        49.9550   52.5040   51.6680 C.3    94  GLN94       0.0394
     44  CG        49.4270   51.1360   51.9500 C.3    94  GLN94       0.0908
     45  CD        50.3050   50.0170   51.4570 C.2    94  GLN94       0.2608
     46  OE1       49.7970   48.9670   51.0770 O.2    94  GLN94      -0.2717
     47  NE2       51.6090   50.2110   51.4950 N.am   94  GLN94      -0.0878
     48  N         48.2430   52.7680   55.8110 N.3    96  LEU96      -0.1245
     49  CA        48.1830   51.6790   56.7620 C.3    96  LEU96       0.1561
     50  C         49.2840   51.8990   57.7650 C.2    96  LEU96       0.2260
     51  O         50.2510   52.5810   57.4700 O.2    96  LEU96      -0.2867
     52  CB        48.4270   50.3160   56.0820 C.3    96  LEU96       0.0270
     53  CG        47.4680   49.8880   54.9670 C.3    96  LEU96       0.0019
     54  CD1       47.9290   48.5250   54.4260 C.3    96  LEU96       0.0001
     55  CD2       45.9810   49.8390   55.4320 C.3    96  LEU96       0.0001
     56  N         47.4190   60.8400   54.2180 N.3   114  MET114     -0.1245
     57  CA        46.0380   61.1660   54.5180 C.3   114  MET114      0.1570
     58  C         45.8180   61.4190   56.0020 C.2   114  MET114      0.2261
     59  O         46.5060   60.8420   56.8490 O.2   114  MET114     -0.2867
     60  CB        45.1280   60.0500   53.9930 C.3   114  MET114      0.0387
     61  CG        45.0360   60.0330   52.4870 C.3   114  MET114      0.0595
     62  SD        44.2310   58.5630   51.9120 S.3   114  MET114     -0.1393
     63  CE        45.6570   57.5450   51.4810 C.3   114  MET114      0.0692
     64  N         43.2070   54.8300   55.6410 N.3   120  ARG120     -0.1245
     65  CA        42.5370   53.5450   55.7260 C.3   120  ARG120      0.1563
     66  C         42.5860   53.0590   57.1460 C.2   120  ARG120      0.2260
     67  O         41.6300   52.5070   57.6360 O.2   120  ARG120     -0.2867
     68  CB        43.1630   52.5450   54.7650 C.3   120  ARG120      0.0307
     69  CG        42.5010   51.1580   54.7570 C.3   120  ARG120      0.0489
     70  CD        41.1240   51.1960   54.0820 C.3   120  ARG120      0.2205
     71  NE        40.5470   49.8610   53.9420 N.pl3 120  ARG120     -0.0865
     72  CZ        39.6180   49.2930   54.7330 C.cat 120  ARG120      0.5346
     73  NH1       39.0650   49.9180   55.7940 N.pl3 120  ARG120      0.1354
     74  NH2       39.2100   48.0490   54.4360 N.pl3 120  ARG120      0.1354
     75  N         39.8010   55.0840   43.7120 N.3   140  ALA140     -0.1245
     76  CA        41.1570   55.0810   44.2010 C.3   140  ALA140      0.1562
     77  C         42.1430   55.9080   43.3380 C.2   140  ALA140      0.2260
     78  O         43.0300   56.5610   43.8630 O.2   140  ALA140     -0.2867
     79  CB        41.6500   53.6320   44.3470 C.3   140  ALA140      0.0290
     80  N         41.6360   59.5770   44.2070 N.3   143  ARG143     -0.1245
     81  CA        42.0720   59.8830   45.5720 C.3   143  ARG143      0.1563
     82  C         43.6010   60.1250   45.6160 C.2   143  ARG143      0.2260
     83  O         44.0640   61.1050   46.1960 O.2   143  ARG143     -0.2867
     84  CB        41.6900   58.7700   46.5590 C.3   143  ARG143      0.0307
     85  CG        40.1910   58.5080   46.6680 C.3   143  ARG143      0.0489
     86  CD        39.8170   57.6400   47.8600 C.3   143  ARG143      0.2205
     87  NE        39.9110   58.3310   49.1610 N.pl3 143  ARG143     -0.0865
     88  CZ        40.5900   57.9150   50.2500 C.cat 143  ARG143      0.5346
     89  NH1       41.2660   56.7660   50.2800 N.pl3 143  ARG143      0.1354
     90  NH2       40.5670   58.6630   51.3560 N.pl3 143  ARG143      0.1354
     91  N         34.9240   49.2730   43.3740 N.3   287  ILE287     -0.1245
     92  CA        36.2360   48.6610   43.1120 C.3   287  ILE287      0.1561
     93  C         36.4260   48.2960   41.6540 C.2   287  ILE287      0.2260
     94  O         37.2500   47.4350   41.3380 O.2   287  ILE287     -0.2867
     95  CB        36.5410   47.4520   44.0660 C.3   287  ILE287      0.0252
     96  CG1       35.4880   46.3490   43.9540 C.3   287  ILE287      0.0019
     97  CG2       36.6780   47.9220   45.5150 C.3   287  ILE287      0.0019
     98  CD1       35.8690   45.1210   44.7780 C.3   287  ILE287      0.0001
@<TRIPOS>BOND
     1    31    33   ar
     2    31    29   ar
     3    33    32   ar
     4    24    25    1
     5    25    26    1
     6    25    28    1
     7    27    26    2
     8    29    28    1
     9    29    30   ar
    10    94    93    2
    11    32    30   ar
    12    93    92    1
    13    92    91    1
    14    92    95    1
    15    77    78    2
    16    77    76    1
    17    16    17    1
    18    75    76    1
    19    19    18    2
    20    18    17    1
    21    96    95    1
    22    96    98    1
    23    95    97    1
    24    76    79    1
    25    80    81    1
    26    17    20    1
    27    81    82    1
    28    81    84    1
    29    82    83    2
    30    20    21    1
    31    22    21   ar
    32    21    23   ar
    33     6     5    1
    34     6     7    1
    35    84    85    1
    36     4     3    2
    37    85    86    1
    38     8     7    1
    39     8     9    1
    40     5     2    1
    41     3     2    1
    42    12    11    1
    43    12    13    2
    44    11    10    1
    45    11    14    1
    46    86    87    1
    47    38    35    1
    48     2     1    1
    49    14    15    1
    50    87    88    2
    51    35    36    1
    52    35    34    1
    53    37    36    2
    54    36    39   am
    55    88    89    1
    56    88    90    1
    57    39    40    1
    58    46    45    2
    59    40    43    1
    60    40    41    1
    61    45    47   am
    62    45    44    1
    63    63    62    1
    64    43    44    1
    65    62    61    1
    66    61    60    1
    67    41    42    2
    68    71    70    1
    69    71    72    2
    70    60    57    1
    71    70    69    1
    72    56    57    1
    73    54    53    1
    74    74    72    1
    75    57    58    1
    76    72    73    1
    77    69    68    1
    78    68    65    1
    79    53    55    1
    80    53    52    1
    81    64    65    1
    82    65    66    1
    83    48    49    1
    84    58    59    2
    85    52    49    1
    86    49    50    1
    87    66    67    2
    88    51    50    2
