@<TRIPOS>MOLECULE
tmp/6dffH00.pdb
 81 76 0 0 0
SMALL
GASTEIGER

@<TRIPOS>ATOM
      1  N        181.6080  207.3160  231.0060 N.3    62  TYR62      -0.1227
      2  CA       180.3800  207.6260  230.2830 C.3    62  TYR62       0.1736
      3  C        180.3320  207.0530  228.8820 C.2    62  TYR62       0.2595
      4  O        179.2430  206.7910  228.3730 O.2    62  TYR62      -0.2718
      5  CB       180.1670  209.1460  230.1920 C.3    62  TYR62       0.0548
      6  CG       179.7050  209.7430  231.4910 C.ar   62  TYR62      -0.0200
      7  CD1      178.3830  209.5980  231.8980 C.ar   62  TYR62      -0.0009
      8  CD2      180.5780  210.4450  232.2970 C.ar   62  TYR62      -0.0009
      9  CE1      177.9510  210.1390  233.0870 C.ar   62  TYR62       0.0417
     10  CE2      180.1450  210.9920  233.4830 C.ar   62  TYR62       0.0417
     11  CZ       178.8350  210.8320  233.8720 C.ar   62  TYR62       0.1957
     12  OH       178.4150  211.3760  235.0580 O.3    62  TYR62      -0.2866
     13  N        181.4770  206.8730  228.2450 N.am   63  ALA63      -0.1980
     14  CA       181.5750  206.3190  226.9050 C.3    63  ALA63       0.1597
     15  C        182.9270  205.6410  226.8290 C.2    63  ALA63       0.2287
     16  O        183.4340  205.1550  227.8430 O.2    63  ALA63      -0.2864
     17  CB       181.4210  207.3930  225.8350 C.3    63  ALA63       0.0319
     18  N        185.2110  207.5960  226.3430 N.3    65  LEU65      -0.1245
     19  CA       185.7630  208.6200  227.2180 C.3    65  LEU65       0.1561
     20  C        185.6040  208.2400  228.6840 C.2    65  LEU65       0.2260
     21  O        184.5320  207.8100  229.1120 O.2    65  LEU65      -0.2867
     22  CB       185.0450  209.9370  226.9690 C.3    65  LEU65       0.0270
     23  CG       185.5830  211.1530  227.6930 C.3    65  LEU65       0.0019
     24  CD1      186.9480  211.5090  227.1460 C.3    65  LEU65       0.0001
     25  CD2      184.6150  212.2910  227.5470 C.3    65  LEU65       0.0001
     26  N        186.5390  209.8250  232.8020 N.3    67  PHE67      -0.1241
     27  CA       186.7630  211.0590  233.5290 C.3    67  PHE67       0.1605
     28  C        187.5820  210.7310  234.7600 C.2    67  PHE67       0.2264
     29  O        187.7770  209.5650  235.1030 O.2    67  PHE67      -0.2867
     30  CB       185.4530  211.7380  233.9190 C.3    67  PHE67       0.0534
     31  CG       184.7930  212.4610  232.7950 C.ar   67  PHE67      -0.0203
     32  CD1      185.0980  213.7820  232.5440 C.ar   67  PHE67      -0.0042
     33  CD2      183.8930  211.8190  231.9730 C.ar   67  PHE67      -0.0042
     34  CE1      184.4930  214.4560  231.5100 C.ar   67  PHE67      -0.0003
     35  CE2      183.3000  212.4850  230.9280 C.ar   67  PHE67      -0.0003
     36  CZ       183.6030  213.8030  230.6960 C.ar   67  PHE67      -0.0000
     37  N        179.5640  216.9230  232.0140 N.3    88  VAL88      -0.1245
     38  CA       179.1010  216.2330  230.8130 C.3    88  VAL88       0.1561
     39  C        177.8630  216.9150  230.2410 C.2    88  VAL88       0.2260
     40  O        177.7560  217.1010  229.0220 O.2    88  VAL88      -0.2867
     41  CB       178.8400  214.7470  231.1200 C.3    88  VAL88       0.0252
     42  CG1      178.2470  214.0400  229.9230 C.3    88  VAL88       0.0019
     43  CG2      180.1140  214.0690  231.4980 C.3    88  VAL88       0.0019
     44  N        178.9760  220.1520  228.5020 N.3    91  LEU91      -0.1245
     45  CA       179.5300  219.7880  227.2010 C.3    91  LEU91       0.1561
     46  C        178.4530  219.4000  226.2050 C.2    91  LEU91       0.2260
     47  O        178.5930  219.6890  225.0120 O.2    91  LEU91      -0.2867
     48  CB       180.5040  218.6210  227.3280 C.3    91  LEU91       0.0270
     49  CG       181.8490  218.7750  228.0240 C.3    91  LEU91       0.0019
     50  CD1      182.4970  217.4200  228.0900 C.3    91  LEU91       0.0001
     51  CD2      182.7270  219.7260  227.2630 C.3    91  LEU91       0.0001
     52  N        176.5920  215.6560  222.0570 N.3    98  VAL98      -0.1231
     53  CA       178.0350  215.6250  222.2470 C.3    98  VAL98       0.1692
     54  C        178.6030  214.2480  221.9020 C.2    98  VAL98       0.2592
     55  O        177.9740  213.2070  222.1260 O.2    98  VAL98      -0.2718
     56  CB       178.3510  216.0470  223.6950 C.3    98  VAL98       0.0266
     57  CG1      177.7060  215.1070  224.6930 C.3    98  VAL98       0.0020
     58  CG2      179.8440  216.1690  223.9450 C.3    98  VAL98       0.0020
     59  N        179.7700  214.2540  221.2680 N.am   99  CYS99      -0.1956
     60  CA       180.3980  213.0250  220.8150 C.3    99  CYS99       0.1843
     61  C        181.8110  212.9300  221.3630 C.2    99  CYS99       0.2625
     62  O        182.2900  213.8600  222.0140 O.2    99  CYS99      -0.2714
     63  CB       180.4090  212.9770  219.2880 C.3    99  CYS99       0.0997
     64  SG       181.1710  211.5110  218.5940 S.3    99  CYS99      -0.0797
     65  N        182.4770  211.8050  221.1240 N.am  100  GLU100     -0.1977
     66  CA       183.9020  211.7250  221.4090 C.3   100  GLU100      0.1602
     67  C        184.6920  212.6440  220.4910 C.2   100  GLU100      0.2287
     68  O        185.6320  213.3120  220.9330 O.2   100  GLU100     -0.2864
     69  CB       184.3830  210.2870  221.2520 C.3   100  GLU100      0.0415
     70  CG       185.8620  210.0730  221.4830 C.3   100  GLU100      0.1163
     71  CD       186.2510  210.2130  222.9280 C.2   100  GLU100      0.3649
     72  OE1      185.3840  209.9780  223.7840 O.co2 100  GLU100     -0.2457
     73  OE2      187.4210  210.5400  223.2100 O.co2 100  GLU100     -0.2457
     74  N        184.8800  216.3070  221.4400 N.3   103  ILE103     -0.1245
     75  CA       185.8650  216.7040  222.4360 C.3   103  ILE103      0.1561
     76  C        187.2870  216.6130  221.8810 C.2   103  ILE103      0.2260
     77  O        188.1410  217.4340  222.2320 O.2   103  ILE103     -0.2867
     78  CB       185.6690  215.8500  223.7020 C.3   103  ILE103      0.0252
     79  CG1      184.2930  216.1350  224.2820 C.3   103  ILE103      0.0019
     80  CG2      186.6930  216.1550  224.7770 C.3   103  ILE103      0.0019
     81  CD1      183.9000  215.2050  225.3690 C.3   103  ILE103      0.0001
@<TRIPOS>BOND
     1    64    63    1
     2    63    60    1
     3    67    68    2
     4    67    66    1
     5    60    59    1
     6    60    61    1
     7    65    61   am
     8    65    66    1
     9    69    66    1
    10    69    70    1
    11    59    54   am
    12    61    62    2
    13    74    75    1
    14    70    71    1
    15    76    77    2
    16    76    75    1
    17    54    55    2
    18    54    53    1
    19    52    53    1
    20    53    56    1
    21    75    78    1
    22    71    73   ar
    23    71    72   ar
    24    56    58    1
    25    56    57    1
    26    78    79    1
    27    78    80    1
    28    79    81    1
    29    47    46    2
    30    17    14    1
    31    46    45    1
    32    18    19    1
    33    15    14    1
    34    15    16    2
    35    14    13    1
    36    22    19    1
    37    22    23    1
    38    24    23    1
    39    45    48    1
    40    45    44    1
    41    19    20    1
    42    51    49    1
    43    48    49    1
    44    25    23    1
    45    49    50    1
    46    13     3   am
    47     4     3    2
    48    20    21    2
    49     3     2    1
    50    40    39    2
    51    42    41    1
    52     5     2    1
    53     5     6    1
    54    39    38    1
    55     2     1    1
    56    36    35   ar
    57    36    34   ar
    58    38    41    1
    59    38    37    1
    60    35    33   ar
    61    41    43    1
    62     6     7   ar
    63     6     8   ar
    64    34    32   ar
    65     7     9   ar
    66    33    31   ar
    67     8    10   ar
    68    32    31   ar
    69    31    30    1
    70    26    27    1
    71     9    11   ar
    72    10    11   ar
    73    27    30    1
    74    27    28    1
    75    11    12    1
    76    28    29    2
