@<TRIPOS>MOLECULE
tmp/6dfnD00.pdb
 181 171 0 0 0
SMALL
GASTEIGER

@<TRIPOS>ATOM
      1  N        -74.8280   22.0900  -76.6410 N.3    29  MET29      -0.1245
      2  CA       -75.1410   21.3530  -77.8720 C.3    29  MET29       0.1570
      3  C        -76.1680   22.0770  -78.7460 C.2    29  MET29       0.2261
      4  O        -76.0680   22.0200  -79.9700 O.2    29  MET29      -0.2867
      5  CB       -75.6290   19.9240  -77.5710 C.3    29  MET29       0.0387
      6  CG       -74.5300   18.9140  -77.2760 C.3    29  MET29       0.0595
      7  SD       -73.2460   18.7650  -78.5340 S.3    29  MET29      -0.1393
      8  CE       -74.1870   18.3900  -80.0030 C.3    29  MET29       0.0692
      9  N        -74.2510   25.0050  -80.4750 N.3    32  LEU32      -0.1231
     10  CA       -73.3560   24.4380  -81.4870 C.3    32  LEU32       0.1693
     11  C        -74.1270   23.8810  -82.6840 C.2    32  LEU32       0.2592
     12  O        -73.6920   24.0440  -83.8260 O.2    32  LEU32      -0.2718
     13  CB       -72.4560   23.3530  -80.8880 C.3    32  LEU32       0.0284
     14  CG       -71.3710   23.8230  -79.9110 C.3    32  LEU32       0.0019
     15  CD1      -70.5880   22.6140  -79.4210 C.3    32  LEU32       0.0001
     16  CD2      -70.4440   24.8650  -80.5100 C.3    32  LEU32       0.0001
     17  N        -75.2670   23.2420  -82.4150 N.am   33  THR33      -0.1953
     18  CA       -76.1380   22.7030  -83.4670 C.3    33  THR33       0.1897
     19  C        -76.7810   23.8020  -84.3080 C.2    33  THR33       0.2313
     20  O        -76.8820   23.6590  -85.5310 O.2    33  THR33      -0.2863
     21  CB       -77.2340   21.7880  -82.8660 C.3    33  THR33       0.1794
     22  OG1      -76.6070   20.6980  -82.1890 O.3    33  THR33      -0.2208
     23  CG2      -78.1760   21.2340  -83.9270 C.3    33  THR33       0.0378
     24  N        -75.4870   26.7890  -84.8080 N.3    35  LEU35      -0.1231
     25  CA       -74.3660   27.3030  -85.5900 C.3    35  LEU35       0.1693
     26  C        -74.0110   26.4030  -86.7810 C.2    35  LEU35       0.2592
     27  O        -73.8570   26.8820  -87.9050 O.2    35  LEU35      -0.2718
     28  CB       -73.1350   27.4760  -84.6870 C.3    35  LEU35       0.0284
     29  CG       -71.8770   28.1080  -85.2990 C.3    35  LEU35       0.0019
     30  CD1      -72.1560   29.5180  -85.7920 C.3    35  LEU35       0.0001
     31  CD2      -70.7770   28.1240  -84.2640 C.3    35  LEU35       0.0001
     32  N        -73.9090   25.1050  -86.5200 N.am   36  ALA36      -0.1966
     33  CA       -73.5850   24.1210  -87.5560 C.3    36  ALA36       0.1728
     34  C        -74.6020   24.0790  -88.7010 C.2    36  ALA36       0.2616
     35  O        -74.2100   23.9690  -89.8730 O.2    36  ALA36      -0.2715
     36  CB       -73.4390   22.7360  -86.9430 C.3    36  ALA36       0.0334
     37  N        -75.8910   24.1370  -88.3520 N.am   37  ASP37      -0.1971
     38  CA       -76.9930   24.1790  -89.3350 C.3    37  ASP37       0.1709
     39  C        -76.9490   25.4250  -90.2190 C.2    37  ASP37       0.2293
     40  O        -77.1880   25.3390  -91.4290 O.2    37  ASP37      -0.2864
     41  CB       -78.3640   24.1370  -88.6400 C.3    37  ASP37       0.1436
     42  CG       -78.6740   22.7870  -87.9940 C.2    37  ASP37       0.3671
     43  OD1      -77.9150   21.8070  -88.1810 O.co2  37  ASP37      -0.2456
     44  OD2      -79.7070   22.7140  -87.2950 O.co2  37  ASP37      -0.2456
     45  N        -74.1990   27.2670  -90.8420 N.3    39  GLU39      -0.1245
     46  CA       -73.0250   27.0890  -91.7030 C.3    39  GLU39       0.1567
     47  C        -73.2610   26.1400  -92.8750 C.2    39  GLU39       0.2260
     48  O        -72.6750   26.3230  -93.9450 O.2    39  GLU39      -0.2867
     49  CB       -71.8320   26.6010  -90.8970 C.3    39  GLU39       0.0388
     50  CG       -71.0710   27.7460  -90.2410 C.3    39  GLU39       0.1160
     51  CD       -69.6500   27.3740  -89.8830 C.2    39  GLU39       0.3649
     52  OE1      -69.3480   26.1660  -89.8050 O.co2  39  GLU39      -0.2457
     53  OE2      -68.8340   28.2940  -89.6850 O.co2  39  GLU39      -0.2457
     54  N        -69.7130   16.6920  -95.4230 N.3    69  TRP69      -0.1227
     55  CA       -70.1720   17.8750  -94.6810 C.3    69  TRP69       0.1737
     56  C        -69.4920   18.1050  -93.3120 C.2    69  TRP69       0.2595
     57  O        -69.1400   19.2360  -92.9810 O.2    69  TRP69      -0.2718
     58  CB       -71.7130   17.9000  -94.5400 C.3    69  TRP69       0.0564
     59  CG       -72.2700   16.8960  -93.5870 C.ar   69  TRP69       0.0003
     60  CD1      -72.6820   15.6370  -93.8830 C.ar   69  TRP69       0.0946
     61  CD2      -72.4700   17.0660  -92.1770 C.ar   69  TRP69       0.0152
     62  NE1      -73.1170   14.9990  -92.7430 N.ar   69  TRP69      -0.2442
     63  CE2      -72.9870   15.8570  -91.6780 C.ar   69  TRP69       0.0810
     64  CE3      -72.2340   18.1160  -91.2870 C.ar   69  TRP69       0.0012
     65  CZ2      -73.2770   15.6670  -90.3220 C.ar   69  TRP69       0.0191
     66  CZ3      -72.5500   17.9370  -89.9430 C.ar   69  TRP69       0.0001
     67  CH2      -73.0590   16.7150  -89.4730 C.ar   69  TRP69       0.0015
     68  N        -69.3060   17.0420  -92.5350 N.am   70  LEU70      -0.1980
     69  CA       -68.6960   17.1620  -91.2110 C.3    70  LEU70       0.1596
     70  C        -67.1750   17.3750  -91.2930 C.2    70  LEU70       0.2287
     71  O        -66.6200   18.1440  -90.5070 O.2    70  LEU70      -0.2864
     72  CB       -69.0500   15.9580  -90.3280 C.3    70  LEU70       0.0297
     73  CG       -68.6190   16.0450  -88.8530 C.3    70  LEU70       0.0022
     74  CD1      -69.1850   17.2850  -88.1780 C.3    70  LEU70       0.0001
     75  CD2      -69.0320   14.8120  -88.0900 C.3    70  LEU70       0.0001
     76  N        -67.0050   21.0860  -92.1890 N.3    73  LEU73      -0.1231
     77  CA       -67.2410   21.8600  -90.9430 C.3    73  LEU73       0.1693
     78  C        -66.0140   21.8660  -90.0410 C.2    73  LEU73       0.2591
     79  O        -65.6650   22.9050  -89.4760 O.2    73  LEU73      -0.2718
     80  CB       -68.4330   21.3250  -90.1380 C.3    73  LEU73       0.0284
     81  CG       -69.8690   21.7030  -90.5020 C.3    73  LEU73       0.0019
     82  CD1      -70.8430   21.1480  -89.4670 C.3    73  LEU73       0.0001
     83  CD2      -70.0460   23.2080  -90.5940 C.3    73  LEU73       0.0001
     84  N        -65.3710   20.7080  -89.9170 N.am   74  MET74      -0.1979
     85  CA       -64.2110   20.5350  -89.0500 C.3    74  MET74       0.1605
     86  C        -62.9360   21.2330  -89.5200 C.2    74  MET74       0.2287
     87  O        -62.2430   21.8220  -88.6920 O.2    74  MET74      -0.2864
     88  CB       -63.9290   19.0590  -88.8310 C.3    74  MET74       0.0413
     89  CG       -64.8620   18.4130  -87.8380 C.3    74  MET74       0.0598
     90  SD       -64.5980   16.6570  -87.7010 S.3    74  MET74      -0.1393
     91  CE       -65.1740   16.3630  -86.0360 C.3    74  MET74       0.0692
     92  N        -63.4530   24.9930  -88.8440 N.3    77  LEU77      -0.1245
     93  CA       -63.2480   25.2440  -87.4080 C.3    77  LEU77       0.1561
     94  C        -61.7650   25.2680  -87.0360 C.2    77  LEU77       0.2260
     95  O        -61.2890   26.1980  -86.3970 O.2    77  LEU77      -0.2867
     96  CB       -63.9530   24.1700  -86.5880 C.3    77  LEU77       0.0270
     97  CG       -63.7630   24.1880  -85.0480 C.3    77  LEU77       0.0019
     98  CD1      -64.2810   25.4860  -84.4650 C.3    77  LEU77       0.0001
     99  CD2      -64.4700   23.0040  -84.4150 C.3    77  LEU77       0.0001
    100  N        -59.8970   28.4500  -88.4880 N.3    80  ARG80      -0.1245
    101  CA       -60.1220   29.7030  -87.7480 C.3    80  ARG80       0.1563
    102  C        -59.6760   29.6530  -86.2760 C.2    80  ARG80       0.2260
    103  O        -59.6160   30.6930  -85.6270 O.2    80  ARG80      -0.2867
    104  CB       -61.5590   30.2420  -87.8910 C.3    80  ARG80       0.0307
    105  CG       -62.6960   29.2570  -87.6740 C.3    80  ARG80       0.0489
    106  CD       -64.0410   29.9680  -87.5930 C.3    80  ARG80       0.2205
    107  NE       -65.0830   29.0830  -87.0720 N.pl3  80  ARG80      -0.0865
    108  CZ       -65.7780   28.1880  -87.7780 C.cat  80  ARG80       0.5346
    109  NH1      -65.5860   28.0230  -89.0860 N.pl3  80  ARG80       0.1354
    110  NH2      -66.6930   27.4550  -87.1560 N.pl3  80  ARG80       0.1354
    111  N        -65.3040   28.4240  -82.4120 N.3    90  PHE90      -0.1241
    112  CA       -66.5440   28.0000  -83.0690 C.3    90  PHE90       0.1605
    113  C        -67.1840   29.1930  -83.7700 C.2    90  PHE90       0.2264
    114  O        -67.6180   29.0870  -84.9170 O.2    90  PHE90      -0.2867
    115  CB       -67.5100   27.3690  -82.0670 C.3    90  PHE90       0.0534
    116  CG       -67.1080   25.9920  -81.6480 C.ar   90  PHE90      -0.0203
    117  CD1      -67.4880   24.8910  -82.4020 C.ar   90  PHE90      -0.0042
    118  CD2      -66.3520   25.7930  -80.5010 C.ar   90  PHE90      -0.0042
    119  CE1      -67.1070   23.6120  -82.0340 C.ar   90  PHE90      -0.0003
    120  CE2      -65.9730   24.5080  -80.1280 C.ar   90  PHE90      -0.0003
    121  CZ       -66.3510   23.4210  -80.8900 C.ar   90  PHE90      -0.0000
    122  N        -67.4650   14.5130  -75.8770 N.3   107  MET107     -0.1245
    123  CA       -66.9520   15.5700  -76.7440 C.3   107  MET107      0.1570
    124  C        -65.4620   15.8400  -76.5410 C.2   107  MET107      0.2261
    125  O        -64.7650   16.1280  -77.5160 O.2   107  MET107     -0.2867
    126  CB       -67.7460   16.8650  -76.5650 C.3   107  MET107      0.0387
    127  CG       -67.4510   17.8920  -77.6480 C.3   107  MET107      0.0595
    128  SD       -68.3480   19.4260  -77.4110 S.3   107  MET107     -0.1393
    129  CE       -69.8880   19.0880  -78.2270 C.3   107  MET107      0.0692
    130  N        -62.9710   14.3740  -78.9540 N.3   110  ILE110     -0.1245
    131  CA       -63.0480   14.9930  -80.2740 C.3   110  ILE110      0.1561
    132  C        -62.4400   16.3970  -80.2390 C.2   110  ILE110      0.2260
    133  O        -61.7170   16.7720  -81.1510 O.2   110  ILE110     -0.2867
    134  CB       -64.5080   14.9910  -80.7820 C.3   110  ILE110      0.0252
    135  CG1      -64.9350   13.5380  -81.0390 C.3   110  ILE110      0.0019
    136  CG2      -64.6580   15.8090  -82.0520 C.3   110  ILE110      0.0019
    137  CD1      -66.4080   13.2670  -80.8950 C.3   110  ILE110      0.0001
    138  N        -59.3270   17.9020  -82.5840 N.3   114  LEU114     -0.1245
    139  CA       -59.4520   19.1630  -83.3180 C.3   114  LEU114      0.1561
    140  C        -58.3340   20.1440  -82.9650 C.2   114  LEU114      0.2260
    141  O        -57.7760   20.7870  -83.8490 O.2   114  LEU114     -0.2867
    142  CB       -60.8230   19.8090  -83.0770 C.3   114  LEU114      0.0270
    143  CG       -62.0280   19.0320  -83.6230 C.3   114  LEU114      0.0019
    144  CD1      -63.3000   19.4320  -82.9020 C.3   114  LEU114      0.0001
    145  CD2      -62.1860   19.2260  -85.1310 C.3   114  LEU114      0.0001
    146  N        -66.6660   11.9170  -84.9330 N.3   201  GLY201     -0.1225
    147  CA       -67.7010   12.9430  -84.7870 C.3   201  GLY201      0.1811
    148  C        -69.1040   12.4360  -85.0280 C.2   201  GLY201      0.2280
    149  O        -69.9930   12.7020  -84.2310 O.2   201  GLY201     -0.2866
    150  N        -70.2150   10.0650  -82.3150 N.3   204  HIS204     -0.1226
    151  CA       -70.5530   10.8650  -81.1390 C.3   204  HIS204      0.1752
    152  C        -71.9000   11.6030  -81.2830 C.2   204  HIS204      0.2595
    153  O        -72.6740   11.6920  -80.3260 O.2   204  HIS204     -0.2718
    154  CB       -69.4460   11.8560  -80.7850 C.3   204  HIS204      0.0759
    155  CG       -69.6470   12.4290  -79.4220 C.ar  204  HIS204      0.0818
    156  ND1      -69.7440   11.6050  -78.3230 N.ar  204  HIS204     -0.2268
    157  CD2      -69.8890   13.6800  -78.9660 C.ar  204  HIS204      0.1154
    158  CE1      -69.9980   12.3250  -77.2460 C.ar  204  HIS204      0.1986
    159  NE2      -70.0780   13.5910  -77.6040 N.ar  204  HIS204     -0.2212
    160  N        -72.1570   12.1440  -82.4690 N.am  205  LEU205     -0.1980
    161  CA       -73.4350   12.8120  -82.7690 C.3   205  LEU205      0.1596
    162  C        -74.6420   11.8680  -82.7380 C.2   205  LEU205      0.2287
    163  O        -75.7020   12.2520  -82.2380 O.2   205  LEU205     -0.2864
    164  CB       -73.3830   13.5410  -84.1250 C.3   205  LEU205      0.0297
    165  CG       -72.5550   14.8320  -84.2030 C.3   205  LEU205      0.0022
    166  CD1      -72.4850   15.3130  -85.6450 C.3   205  LEU205      0.0001
    167  CD2      -73.1480   15.9210  -83.3140 C.3   205  LEU205      0.0001
    168  N        -78.7950   15.0300  -87.7990 N.3   209  VAL209     -0.1231
    169  CA       -77.7740   14.9620  -88.8500 C.3   209  VAL209      0.1678
    170  C        -78.4470   15.1600  -90.2180 C.2   209  VAL209      0.2434
    171  O        -79.5140   14.5880  -90.4670 O.2   209  VAL209     -0.2733
    172  CB       -77.0090   13.6040  -88.8210 C.3   209  VAL209      0.0265
    173  CG1      -76.1520   13.3910  -90.0690 C.3   209  VAL209      0.0020
    174  CG2      -76.1580   13.4580  -87.5570 C.3   209  VAL209      0.0020
    175  N        -77.8330   15.9620  -91.1190 N.am  210  PRO210     -0.2729
    176  CA       -78.3930   16.0800  -92.4880 C.3   210  PRO210      0.1401
    177  C        -78.3370   14.7590  -93.2900 C.2   210  PRO210      0.2269
    178  O        -77.2480   14.2300  -93.5350 O.2   210  PRO210     -0.2865
    179  CB       -77.5360   17.1690  -93.1380 C.3   210  PRO210      0.0296
    180  CG       -76.3050   17.2480  -92.3150 C.3   210  PRO210      0.0237
    181  CD       -76.6990   16.8850  -90.9110 C.3   210  PRO210      0.0939
@<TRIPOS>BOND
     1    54    55    1
     2    55    58    1
     3    55    56    1
     4    58    59    1
     5    48    47    2
     6    60    59   ar
     7    60    62   ar
     8    59    61   ar
     9   178   177    2
    10    56    57    2
    11    56    68   am
    12   177   176    1
    13   179   176    1
    14   179   180    1
    15    47    46    1
    16    62    63   ar
    17    68    69    1
    18   176   175    1
    19   180   181    1
    20    76    77    1
    21    61    63   ar
    22    61    64   ar
    23    46    49    1
    24    46    45    1
    25    63    65   ar
    26    40    39    2
    27    70    69    1
    28    70    71    2
    29    64    66   ar
    30    69    72    1
    31   175   181    1
    32   175   170   am
    33    77    80    1
    34    77    78    1
    35    49    50    1
    36    83    81    1
    37    81    80    1
    38    81    82    1
    39   171   170    2
    40    72    73    1
    41    65    67   ar
    42    50    51    1
    43    39    38    1
    44   170   169    1
    45   173   172    1
    46    78    84   am
    47    78    79    2
    48    66    67   ar
    49    84    85    1
    50    51    52   ar
    51    51    53   ar
    52    35    34    2
    53    86    85    1
    54    86    87    2
    55    38    41    1
    56    38    37    1
    57   109   108    1
    58    85    88    1
    59    73    74    1
    60    73    75    1
    61   169   172    1
    62   169   168    1
    63    92    93    1
    64    88    89    1
    65   172   174    1
    66    34    37   am
    67    34    33    1
    68    41    42    1
    69   100   101    1
    70    43    42   ar
    71    42    44   ar
    72    27    26    2
    73   104   101    1
    74   104   105    1
    75    89    90    1
    76   108   110    1
    77   108   107    2
    78   101   102    1
    79    90    91    1
    80   105   106    1
    81   106   107    1
    82    33    36    1
    83    33    32    1
    84    93    94    1
    85    93    96    1
    86    94    95    2
    87    26    32   am
    88    26    25    1
    89    96    97    1
    90   102   103    2
    91    30    29    1
    92   166   165    1
    93    25    24    1
    94    25    28    1
    95    20    19    2
    96    29    28    1
    97    29    31    1
    98   145   143    1
    99    97    98    1
   100    97    99    1
   101   148   147    1
   102   148   149    2
   103   146   147    1
   104   114   113    2
   105    19    18    1
   106   165   164    1
   107   165   167    1
   108   164   161    1
   109    23    21    1
   110   141   140    2
   111    12    11    2
   112   113   112    1
   113   143   142    1
   114   143   144    1
   115    18    21    1
   116    18    17    1
   117   139   142    1
   118   139   140    1
   119   139   138    1
   120   112   111    1
   121   112   115    1
   122    21    22    1
   123   161   162    1
   124   161   160    1
   125   162   163    2
   126    11    17   am
   127    11    10    1
   128   160   152   am
   129   117   119   ar
   130   117   116   ar
   131   150   151    1
   132   115   116    1
   133   136   134    1
   134   119   121   ar
   135   116   118   ar
   136    10    13    1
   137    10     9    1
   138   152   151    1
   139   152   153    2
   140   133   132    2
   141   151   154    1
   142   135   137    1
   143   135   134    1
   144   121   120   ar
   145    13    14    1
   146   154   155    1
   147   134   131    1
   148    16    14    1
   149   118   120   ar
   150   131   132    1
   151   131   130    1
   152     8     7    1
   153     4     3    2
   154    14    15    1
   155   155   157   ar
   156   155   156   ar
   157   157   159   ar
   158     3     2    1
   159     7     6    1
   160   156   158   ar
   161   129   128    1
   162     2     5    1
   163     2     1    1
   164   127   128    1
   165   127   126    1
   166   159   158   ar
   167     5     6    1
   168   125   124    2
   169   123   126    1
   170   123   124    1
   171   123   122    1
