@<TRIPOS>MOLECULE
tmp/6dfnD01.pdb
 208 198 0 0 0
SMALL
GASTEIGER

@<TRIPOS>ATOM
      1  N        -74.8280   22.0900  -76.6410 N.3    29  MET29      -0.1245
      2  CA       -75.1410   21.3530  -77.8720 C.3    29  MET29       0.1570
      3  C        -76.1680   22.0770  -78.7460 C.2    29  MET29       0.2261
      4  O        -76.0680   22.0200  -79.9700 O.2    29  MET29      -0.2867
      5  CB       -75.6290   19.9240  -77.5710 C.3    29  MET29       0.0387
      6  CG       -74.5300   18.9140  -77.2760 C.3    29  MET29       0.0595
      7  SD       -73.2460   18.7650  -78.5340 S.3    29  MET29      -0.1393
      8  CE       -74.1870   18.3900  -80.0030 C.3    29  MET29       0.0692
      9  N        -74.2510   25.0050  -80.4750 N.3    32  LEU32      -0.1231
     10  CA       -73.3560   24.4380  -81.4870 C.3    32  LEU32       0.1693
     11  C        -74.1270   23.8810  -82.6840 C.2    32  LEU32       0.2592
     12  O        -73.6920   24.0440  -83.8260 O.2    32  LEU32      -0.2718
     13  CB       -72.4560   23.3530  -80.8880 C.3    32  LEU32       0.0284
     14  CG       -71.3710   23.8230  -79.9110 C.3    32  LEU32       0.0019
     15  CD1      -70.5880   22.6140  -79.4210 C.3    32  LEU32       0.0001
     16  CD2      -70.4440   24.8650  -80.5100 C.3    32  LEU32       0.0001
     17  N        -75.2670   23.2420  -82.4150 N.am   33  THR33      -0.1953
     18  CA       -76.1380   22.7030  -83.4670 C.3    33  THR33       0.1897
     19  C        -76.7810   23.8020  -84.3080 C.2    33  THR33       0.2313
     20  O        -76.8820   23.6590  -85.5310 O.2    33  THR33      -0.2863
     21  CB       -77.2340   21.7880  -82.8660 C.3    33  THR33       0.1794
     22  OG1      -76.6070   20.6980  -82.1890 O.3    33  THR33      -0.2208
     23  CG2      -78.1760   21.2340  -83.9270 C.3    33  THR33       0.0378
     24  N        -75.4870   26.7890  -84.8080 N.3    35  LEU35      -0.1231
     25  CA       -74.3660   27.3030  -85.5900 C.3    35  LEU35       0.1693
     26  C        -74.0110   26.4030  -86.7810 C.2    35  LEU35       0.2592
     27  O        -73.8570   26.8820  -87.9050 O.2    35  LEU35      -0.2718
     28  CB       -73.1350   27.4760  -84.6870 C.3    35  LEU35       0.0284
     29  CG       -71.8770   28.1080  -85.2990 C.3    35  LEU35       0.0019
     30  CD1      -72.1560   29.5180  -85.7920 C.3    35  LEU35       0.0001
     31  CD2      -70.7770   28.1240  -84.2640 C.3    35  LEU35       0.0001
     32  N        -73.9090   25.1050  -86.5200 N.am   36  ALA36      -0.1966
     33  CA       -73.5850   24.1210  -87.5560 C.3    36  ALA36       0.1728
     34  C        -74.6020   24.0790  -88.7010 C.2    36  ALA36       0.2616
     35  O        -74.2100   23.9690  -89.8730 O.2    36  ALA36      -0.2715
     36  CB       -73.4390   22.7360  -86.9430 C.3    36  ALA36       0.0334
     37  N        -75.8910   24.1370  -88.3520 N.am   37  ASP37      -0.1971
     38  CA       -76.9930   24.1790  -89.3350 C.3    37  ASP37       0.1709
     39  C        -76.9490   25.4250  -90.2190 C.2    37  ASP37       0.2293
     40  O        -77.1880   25.3390  -91.4290 O.2    37  ASP37      -0.2864
     41  CB       -78.3640   24.1370  -88.6400 C.3    37  ASP37       0.1436
     42  CG       -78.6740   22.7870  -87.9940 C.2    37  ASP37       0.3671
     43  OD1      -77.9150   21.8070  -88.1810 O.co2  37  ASP37      -0.2456
     44  OD2      -79.7070   22.7140  -87.2950 O.co2  37  ASP37      -0.2456
     45  N        -74.1990   27.2670  -90.8420 N.3    39  GLU39      -0.1231
     46  CA       -73.0250   27.0890  -91.7030 C.3    39  GLU39       0.1699
     47  C        -73.2610   26.1400  -92.8750 C.2    39  GLU39       0.2592
     48  O        -72.6750   26.3230  -93.9450 O.2    39  GLU39      -0.2718
     49  CB       -71.8320   26.6010  -90.8970 C.3    39  GLU39       0.0402
     50  CG       -71.0710   27.7460  -90.2410 C.3    39  GLU39       0.1161
     51  CD       -69.6500   27.3740  -89.8830 C.2    39  GLU39       0.3649
     52  OE1      -69.3480   26.1660  -89.8050 O.co2  39  GLU39      -0.2457
     53  OE2      -68.8340   28.2940  -89.6850 O.co2  39  GLU39      -0.2457
     54  N        -74.1050   25.1280  -92.6630 N.am   40  LEU40      -0.1980
     55  CA       -74.4340   24.1380  -93.7080 C.3    40  LEU40       0.1596
     56  C        -75.1490   24.7550  -94.9150 C.2    40  LEU40       0.2287
     57  O        -74.9460   24.3100  -96.0470 O.2    40  LEU40      -0.2864
     58  CB       -75.2820   22.9950  -93.1280 C.3    40  LEU40       0.0297
     59  CG       -75.4470   21.7300  -93.9940 C.3    40  LEU40       0.0022
     60  CD1      -74.1290   20.9860  -94.1000 C.3    40  LEU40       0.0001
     61  CD2      -76.5230   20.7950  -93.4620 C.3    40  LEU40       0.0001
     62  N        -69.7130   16.6920  -95.4230 N.3    69  TRP69      -0.1227
     63  CA       -70.1720   17.8750  -94.6810 C.3    69  TRP69       0.1737
     64  C        -69.4920   18.1050  -93.3120 C.2    69  TRP69       0.2595
     65  O        -69.1400   19.2360  -92.9810 O.2    69  TRP69      -0.2718
     66  CB       -71.7130   17.9000  -94.5400 C.3    69  TRP69       0.0564
     67  CG       -72.2700   16.8960  -93.5870 C.ar   69  TRP69       0.0003
     68  CD1      -72.6820   15.6370  -93.8830 C.ar   69  TRP69       0.0946
     69  CD2      -72.4700   17.0660  -92.1770 C.ar   69  TRP69       0.0152
     70  NE1      -73.1170   14.9990  -92.7430 N.ar   69  TRP69      -0.2442
     71  CE2      -72.9870   15.8570  -91.6780 C.ar   69  TRP69       0.0810
     72  CE3      -72.2340   18.1160  -91.2870 C.ar   69  TRP69       0.0012
     73  CZ2      -73.2770   15.6670  -90.3220 C.ar   69  TRP69       0.0191
     74  CZ3      -72.5500   17.9370  -89.9430 C.ar   69  TRP69       0.0001
     75  CH2      -73.0590   16.7150  -89.4730 C.ar   69  TRP69       0.0015
     76  N        -69.3060   17.0420  -92.5350 N.am   70  LEU70      -0.1980
     77  CA       -68.6960   17.1620  -91.2110 C.3    70  LEU70       0.1596
     78  C        -67.1750   17.3750  -91.2930 C.2    70  LEU70       0.2287
     79  O        -66.6200   18.1440  -90.5070 O.2    70  LEU70      -0.2864
     80  CB       -69.0500   15.9580  -90.3280 C.3    70  LEU70       0.0297
     81  CG       -68.6190   16.0450  -88.8530 C.3    70  LEU70       0.0022
     82  CD1      -69.1850   17.2850  -88.1780 C.3    70  LEU70       0.0001
     83  CD2      -69.0320   14.8120  -88.0900 C.3    70  LEU70       0.0001
     84  N        -67.0050   21.0860  -92.1890 N.3    73  LEU73      -0.1231
     85  CA       -67.2410   21.8600  -90.9430 C.3    73  LEU73       0.1693
     86  C        -66.0140   21.8660  -90.0410 C.2    73  LEU73       0.2591
     87  O        -65.6650   22.9050  -89.4760 O.2    73  LEU73      -0.2718
     88  CB       -68.4330   21.3250  -90.1380 C.3    73  LEU73       0.0284
     89  CG       -69.8690   21.7030  -90.5020 C.3    73  LEU73       0.0019
     90  CD1      -70.8430   21.1480  -89.4670 C.3    73  LEU73       0.0001
     91  CD2      -70.0460   23.2080  -90.5940 C.3    73  LEU73       0.0001
     92  N        -65.3710   20.7080  -89.9170 N.am   74  MET74      -0.1979
     93  CA       -64.2110   20.5350  -89.0500 C.3    74  MET74       0.1605
     94  C        -62.9360   21.2330  -89.5200 C.2    74  MET74       0.2287
     95  O        -62.2430   21.8220  -88.6920 O.2    74  MET74      -0.2864
     96  CB       -63.9290   19.0590  -88.8310 C.3    74  MET74       0.0413
     97  CG       -64.8620   18.4130  -87.8380 C.3    74  MET74       0.0598
     98  SD       -64.5980   16.6570  -87.7010 S.3    74  MET74      -0.1393
     99  CE       -65.1740   16.3630  -86.0360 C.3    74  MET74       0.0692
    100  N        -63.4530   24.9930  -88.8440 N.3    77  LEU77      -0.1245
    101  CA       -63.2480   25.2440  -87.4080 C.3    77  LEU77       0.1561
    102  C        -61.7650   25.2680  -87.0360 C.2    77  LEU77       0.2260
    103  O        -61.2890   26.1980  -86.3970 O.2    77  LEU77      -0.2867
    104  CB       -63.9530   24.1700  -86.5880 C.3    77  LEU77       0.0270
    105  CG       -63.7630   24.1880  -85.0480 C.3    77  LEU77       0.0019
    106  CD1      -64.2810   25.4860  -84.4650 C.3    77  LEU77       0.0001
    107  CD2      -64.4700   23.0040  -84.4150 C.3    77  LEU77       0.0001
    108  N        -59.8970   28.4500  -88.4880 N.3    80  ARG80      -0.1245
    109  CA       -60.1220   29.7030  -87.7480 C.3    80  ARG80       0.1563
    110  C        -59.6760   29.6530  -86.2760 C.2    80  ARG80       0.2260
    111  O        -59.6160   30.6930  -85.6270 O.2    80  ARG80      -0.2867
    112  CB       -61.5590   30.2420  -87.8910 C.3    80  ARG80       0.0307
    113  CG       -62.6960   29.2570  -87.6740 C.3    80  ARG80       0.0489
    114  CD       -64.0410   29.9680  -87.5930 C.3    80  ARG80       0.2205
    115  NE       -65.0830   29.0830  -87.0720 N.pl3  80  ARG80      -0.0865
    116  CZ       -65.7780   28.1880  -87.7780 C.cat  80  ARG80       0.5346
    117  NH1      -65.5860   28.0230  -89.0860 N.pl3  80  ARG80       0.1354
    118  NH2      -66.6930   27.4550  -87.1560 N.pl3  80  ARG80       0.1354
    119  N        -65.3040   28.4240  -82.4120 N.3    90  PHE90      -0.1241
    120  CA       -66.5440   28.0000  -83.0690 C.3    90  PHE90       0.1605
    121  C        -67.1840   29.1930  -83.7700 C.2    90  PHE90       0.2264
    122  O        -67.6180   29.0870  -84.9170 O.2    90  PHE90      -0.2867
    123  CB       -67.5100   27.3690  -82.0670 C.3    90  PHE90       0.0534
    124  CG       -67.1080   25.9920  -81.6480 C.ar   90  PHE90      -0.0203
    125  CD1      -67.4880   24.8910  -82.4020 C.ar   90  PHE90      -0.0042
    126  CD2      -66.3520   25.7930  -80.5010 C.ar   90  PHE90      -0.0042
    127  CE1      -67.1070   23.6120  -82.0340 C.ar   90  PHE90      -0.0003
    128  CE2      -65.9730   24.5080  -80.1280 C.ar   90  PHE90      -0.0003
    129  CZ       -66.3510   23.4210  -80.8900 C.ar   90  PHE90      -0.0000
    130  N        -67.4650   14.5130  -75.8770 N.3   107  MET107     -0.1245
    131  CA       -66.9520   15.5700  -76.7440 C.3   107  MET107      0.1570
    132  C        -65.4620   15.8400  -76.5410 C.2   107  MET107      0.2261
    133  O        -64.7650   16.1280  -77.5160 O.2   107  MET107     -0.2867
    134  CB       -67.7460   16.8650  -76.5650 C.3   107  MET107      0.0387
    135  CG       -67.4510   17.8920  -77.6480 C.3   107  MET107      0.0595
    136  SD       -68.3480   19.4260  -77.4110 S.3   107  MET107     -0.1393
    137  CE       -69.8880   19.0880  -78.2270 C.3   107  MET107      0.0692
    138  N        -62.9710   14.3740  -78.9540 N.3   110  ILE110     -0.1231
    139  CA       -63.0480   14.9930  -80.2740 C.3   110  ILE110      0.1692
    140  C        -62.4400   16.3970  -80.2390 C.2   110  ILE110      0.2592
    141  O        -61.7170   16.7720  -81.1510 O.2   110  ILE110     -0.2718
    142  CB       -64.5080   14.9910  -80.7820 C.3   110  ILE110      0.0266
    143  CG1      -64.9350   13.5380  -81.0390 C.3   110  ILE110      0.0019
    144  CG2      -64.6580   15.8090  -82.0520 C.3   110  ILE110      0.0020
    145  CD1      -66.4080   13.2670  -80.8950 C.3   110  ILE110      0.0001
    146  N        -62.7520   17.1500  -79.1840 N.am  111  PHE111     -0.1976
    147  CA       -62.1010   18.4350  -78.8790 C.3   111  PHE111      0.1639
    148  C        -60.5760   18.3470  -79.0200 C.2   111  PHE111      0.2290
    149  O        -59.9720   19.1510  -79.7300 O.2   111  PHE111     -0.2864
    150  CB       -62.4430   18.8830  -77.4460 C.3   111  PHE111      0.0560
    151  CG       -63.0060   20.2730  -77.3520 C.ar  111  PHE111     -0.0200
    152  CD1      -64.3780   20.4810  -77.4630 C.ar  111  PHE111     -0.0042
    153  CD2      -62.1790   21.3650  -77.1190 C.ar  111  PHE111     -0.0042
    154  CE1      -64.9210   21.7500  -77.3580 C.ar  111  PHE111     -0.0003
    155  CE2      -62.7140   22.6420  -77.0150 C.ar  111  PHE111     -0.0003
    156  CZ       -64.0880   22.8360  -77.1360 C.ar  111  PHE111     -0.0000
    157  N        -59.3270   17.9020  -82.5840 N.3   114  LEU114     -0.1245
    158  CA       -59.4520   19.1630  -83.3180 C.3   114  LEU114      0.1561
    159  C        -58.3340   20.1440  -82.9650 C.2   114  LEU114      0.2260
    160  O        -57.7760   20.7870  -83.8490 O.2   114  LEU114     -0.2867
    161  CB       -60.8230   19.8090  -83.0770 C.3   114  LEU114      0.0270
    162  CG       -62.0280   19.0320  -83.6230 C.3   114  LEU114      0.0019
    163  CD1      -63.3000   19.4320  -82.9020 C.3   114  LEU114      0.0001
    164  CD2      -62.1860   19.2260  -85.1310 C.3   114  LEU114      0.0001
    165  N        -66.6660   11.9170  -84.9330 N.3   201  GLY201     -0.1225
    166  CA       -67.7010   12.9430  -84.7870 C.3   201  GLY201      0.1811
    167  C        -69.1040   12.4360  -85.0280 C.2   201  GLY201      0.2280
    168  O        -69.9930   12.7020  -84.2310 O.2   201  GLY201     -0.2866
    169  N        -70.2150   10.0650  -82.3150 N.3   204  HIS204     -0.1226
    170  CA       -70.5530   10.8650  -81.1390 C.3   204  HIS204      0.1752
    171  C        -71.9000   11.6030  -81.2830 C.2   204  HIS204      0.2595
    172  O        -72.6740   11.6920  -80.3260 O.2   204  HIS204     -0.2718
    173  CB       -69.4460   11.8560  -80.7850 C.3   204  HIS204      0.0759
    174  CG       -69.6470   12.4290  -79.4220 C.ar  204  HIS204      0.0818
    175  ND1      -69.7440   11.6050  -78.3230 N.ar  204  HIS204     -0.2268
    176  CD2      -69.8890   13.6800  -78.9660 C.ar  204  HIS204      0.1154
    177  CE1      -69.9980   12.3250  -77.2460 C.ar  204  HIS204      0.1986
    178  NE2      -70.0780   13.5910  -77.6040 N.ar  204  HIS204     -0.2212
    179  N        -72.1570   12.1440  -82.4690 N.am  205  LEU205     -0.1980
    180  CA       -73.4350   12.8120  -82.7690 C.3   205  LEU205      0.1596
    181  C        -74.6420   11.8680  -82.7380 C.2   205  LEU205      0.2287
    182  O        -75.7020   12.2520  -82.2380 O.2   205  LEU205     -0.2864
    183  CB       -73.3830   13.5410  -84.1250 C.3   205  LEU205      0.0297
    184  CG       -72.5550   14.8320  -84.2030 C.3   205  LEU205      0.0022
    185  CD1      -72.4850   15.3130  -85.6450 C.3   205  LEU205      0.0001
    186  CD2      -73.1480   15.9210  -83.3140 C.3   205  LEU205      0.0001
    187  N        -78.7950   15.0300  -87.7990 N.3   209  VAL209     -0.1231
    188  CA       -77.7740   14.9620  -88.8500 C.3   209  VAL209      0.1678
    189  C        -78.4470   15.1600  -90.2180 C.2   209  VAL209      0.2434
    190  O        -79.5140   14.5880  -90.4670 O.2   209  VAL209     -0.2733
    191  CB       -77.0090   13.6040  -88.8210 C.3   209  VAL209      0.0265
    192  CG1      -76.1520   13.3910  -90.0690 C.3   209  VAL209      0.0020
    193  CG2      -76.1580   13.4580  -87.5570 C.3   209  VAL209      0.0020
    194  N        -77.8330   15.9620  -91.1190 N.am  210  PRO210     -0.2729
    195  CA       -78.3930   16.0800  -92.4880 C.3   210  PRO210      0.1401
    196  C        -78.3370   14.7590  -93.2900 C.2   210  PRO210      0.2269
    197  O        -77.2480   14.2300  -93.5350 O.2   210  PRO210     -0.2865
    198  CB       -77.5360   17.1690  -93.1380 C.3   210  PRO210      0.0296
    199  CG       -76.3050   17.2480  -92.3150 C.3   210  PRO210      0.0237
    200  CD       -76.6990   16.8850  -90.9110 C.3   210  PRO210      0.0939
    201  N        -82.6710   15.8390  -97.1610 N.3   214  LEU214     -0.1245
    202  CA       -82.4270   17.2100  -96.7030 C.3   214  LEU214      0.1561
    203  C        -81.4160   17.9470  -97.5880 C.2   214  LEU214      0.2260
    204  O        -81.6640   19.0720  -98.0160 O.2   214  LEU214     -0.2867
    205  CB       -81.9300   17.2250  -95.2380 C.3   214  LEU214      0.0270
    206  CG       -82.9290   17.4460  -94.0930 C.3   214  LEU214      0.0019
    207  CD1      -82.2720   17.1310  -92.7550 C.3   214  LEU214      0.0001
    208  CD2      -83.4720   18.8690  -94.1070 C.3   214  LEU214      0.0001
@<TRIPOS>BOND
     1   204   203    2
     2   203   202    1
     3   201   202    1
     4   202   205    1
     5    57    56    2
     6    62    63    1
     7   205   206    1
     8    56    55    1
     9    63    66    1
    10    63    64    1
    11    66    67    1
    12   208   206    1
    13    60    59    1
    14   206   207    1
    15    59    61    1
    16    59    58    1
    17    48    47    2
    18    68    67   ar
    19    68    70   ar
    20    55    58    1
    21    55    54    1
    22    67    69   ar
    23   197   196    2
    24    64    65    2
    25    64    76   am
    26   196   195    1
    27   198   195    1
    28   198   199    1
    29    47    54   am
    30    47    46    1
    31    70    71   ar
    32    76    77    1
    33   195   194    1
    34   199   200    1
    35    84    85    1
    36    69    71   ar
    37    69    72   ar
    38    46    49    1
    39    46    45    1
    40    71    73   ar
    41    40    39    2
    42    78    77    1
    43    78    79    2
    44    72    74   ar
    45    77    80    1
    46   194   200    1
    47   194   189   am
    48    85    88    1
    49    85    86    1
    50    49    50    1
    51    91    89    1
    52    89    88    1
    53    89    90    1
    54   190   189    2
    55    80    81    1
    56    73    75   ar
    57    50    51    1
    58    39    38    1
    59   189   188    1
    60   192   191    1
    61    86    92   am
    62    86    87    2
    63    74    75   ar
    64    92    93    1
    65    51    52   ar
    66    51    53   ar
    67    35    34    2
    68    94    93    1
    69    94    95    2
    70    38    41    1
    71    38    37    1
    72   117   116    1
    73    93    96    1
    74    81    82    1
    75    81    83    1
    76   188   191    1
    77   188   187    1
    78   100   101    1
    79    96    97    1
    80   191   193    1
    81    34    37   am
    82    34    33    1
    83    41    42    1
    84   108   109    1
    85    43    42   ar
    86    42    44   ar
    87    27    26    2
    88   112   109    1
    89   112   113    1
    90    97    98    1
    91   116   118    1
    92   116   115    2
    93   109   110    1
    94    98    99    1
    95   113   114    1
    96   114   115    1
    97    33    36    1
    98    33    32    1
    99   101   102    1
   100   101   104    1
   101   102   103    2
   102    26    32   am
   103    26    25    1
   104   104   105    1
   105   110   111    2
   106    30    29    1
   107   185   184    1
   108    25    24    1
   109    25    28    1
   110    20    19    2
   111    29    28    1
   112    29    31    1
   113   164   162    1
   114   105   106    1
   115   105   107    1
   116   167   166    1
   117   167   168    2
   118   165   166    1
   119   122   121    2
   120    19    18    1
   121   184   183    1
   122   184   186    1
   123   183   180    1
   124    23    21    1
   125   160   159    2
   126    12    11    2
   127   121   120    1
   128   162   161    1
   129   162   163    1
   130    18    21    1
   131    18    17    1
   132   158   161    1
   133   158   159    1
   134   158   157    1
   135   120   119    1
   136   120   123    1
   137    21    22    1
   138   180   181    1
   139   180   179    1
   140   181   182    2
   141    11    17   am
   142    11    10    1
   143   179   171   am
   144   125   127   ar
   145   125   124   ar
   146   169   170    1
   147   123   124    1
   148   144   142    1
   149   127   129   ar
   150   124   126   ar
   151    10    13    1
   152    10     9    1
   153   171   170    1
   154   171   172    2
   155   141   140    2
   156   170   173    1
   157   143   145    1
   158   143   142    1
   159   129   128   ar
   160    13    14    1
   161   173   174    1
   162   142   139    1
   163    16    14    1
   164   126   128   ar
   165   139   140    1
   166   139   138    1
   167   140   146   am
   168     8     7    1
   169     4     3    2
   170    14    15    1
   171   149   148    2
   172   174   176   ar
   173   174   175   ar
   174   146   147    1
   175   148   147    1
   176   176   178   ar
   177   147   150    1
   178     3     2    1
   179     7     6    1
   180   175   177   ar
   181   137   136    1
   182     2     5    1
   183     2     1    1
   184   135   136    1
   185   135   134    1
   186   178   177   ar
   187     5     6    1
   188   133   132    2
   189   152   154   ar
   190   152   151   ar
   191   150   151    1
   192   154   156   ar
   193   151   153   ar
   194   156   155   ar
   195   153   155   ar
   196   131   134    1
   197   131   132    1
   198   131   130    1
