@<TRIPOS>MOLECULE
tmp/6dftF00.pdb
 75 71 0 0 0
SMALL
GASTEIGER

@<TRIPOS>ATOM
      1  N        -54.6310   49.3060  353.4390 N.3   253  ALA253     -0.1231
      2  CA       -55.2270   50.5710  353.0230 C.3   253  ALA253      0.1694
      3  C        -54.3100   51.7230  353.4140 C.2   253  ALA253      0.2593
      4  O        -54.1230   51.9980  354.6040 O.2   253  ALA253     -0.2718
      5  CB       -56.6080   50.7470  353.6500 C.3   253  ALA253      0.0304
      6  N        -53.7670   52.4030  352.4190 N.am  254  GLY254     -0.1942
      7  CA       -52.9650   53.5990  352.6440 C.3   254  GLY254      0.2014
      8  C        -53.0850   54.5200  351.4650 C.2   254  GLY254      0.2638
      9  O        -54.1830   54.6990  350.9200 O.2   254  GLY254     -0.2714
     10  N        -51.9670   55.1180  351.0620 N.am  255  LEU255     -0.1977
     11  CA       -51.9490   55.8610  349.8060 C.3   255  LEU255      0.1596
     12  C        -52.3680   55.0060  348.6120 C.2   255  LEU255      0.2287
     13  O        -53.0860   55.5290  347.7420 O.2   255  LEU255     -0.2864
     14  CB       -50.5590   56.4780  349.5910 C.3   255  LEU255      0.0297
     15  CG       -50.2860   57.0630  348.2050 C.3   255  LEU255      0.0022
     16  CD1      -51.1410   58.2880  347.9630 C.3   255  LEU255      0.0001
     17  CD2      -48.8180   57.3950  348.0300 C.3   255  LEU255      0.0001
     18  N        -56.6650   54.9700  348.2880 N.3   258  HIS258     -0.1241
     19  CA       -57.3100   56.1820  347.7960 C.3   258  HIS258      0.1621
     20  C        -56.8330   56.5240  346.3910 C.2   258  HIS258      0.2264
     21  O        -57.6390   56.8450  345.5130 O.2   258  HIS258     -0.2867
     22  CB       -57.0500   57.3490  348.7500 C.3   258  HIS258      0.0745
     23  CG       -57.7510   58.6140  348.3590 C.ar  258  HIS258      0.0817
     24  ND1      -57.2500   59.4820  347.4120 N.ar  258  HIS258     -0.2268
     25  CD2      -58.9170   59.1560  348.7840 C.ar  258  HIS258      0.1154
     26  CE1      -58.0750   60.5050  347.2730 C.ar  258  HIS258      0.1986
     27  NE2      -59.0950   60.3310  348.0950 N.ar  258  HIS258     -0.2212
     28  N        -59.8150   56.2120  343.6760 N.3   262  ARG262     -0.1245
     29  CA       -60.2720   57.5340  343.2590 C.3   262  ARG262      0.1563
     30  C        -60.2130   57.6890  341.7460 C.2   262  ARG262      0.2260
     31  O        -61.0900   58.3220  341.1480 O.2   262  ARG262     -0.2867
     32  CB       -59.4310   58.6230  343.9280 C.3   262  ARG262      0.0307
     33  CG       -59.9560   60.0300  343.7350 C.3   262  ARG262      0.0489
     34  CD       -61.1010   60.3160  344.6870 C.3   262  ARG262      0.2205
     35  NE       -61.8260   61.5240  344.3100 N.pl3 262  ARG262     -0.0865
     36  CZ       -62.8540   61.5380  343.4700 C.cat 262  ARG262      0.5346
     37  NH1      -63.2770   60.4080  342.9200 N.pl3 262  ARG262      0.1354
     38  NH2      -63.4590   62.6800  343.1770 N.pl3 262  ARG262      0.1354
     39  N        -57.3230   49.4400  360.0030 N.3   275  GLY275     -0.1225
     40  CA       -57.6530   50.6900  360.6600 C.3   275  GLY275      0.1811
     41  C        -59.1080   50.7440  361.0830 C.2   275  GLY275      0.2280
     42  O        -59.9770   50.1020  360.4920 O.2   275  GLY275     -0.2866
     43  N        -60.6350   56.6820  363.6060 N.3   279  ASP279     -0.1225
     44  CA       -59.5310   57.5440  363.2030 C.3   279  ASP279      0.1805
     45  C        -59.9860   58.6790  362.2990 C.2   279  ASP279      0.2598
     46  O        -59.2860   59.6930  362.2000 O.2   279  ASP279     -0.2718
     47  CB       -58.4490   56.7260  362.4950 C.3   279  ASP279      0.1424
     48  CG       -57.8330   55.6720  363.3940 C.2   279  ASP279      0.3668
     49  OD1      -57.7680   55.9000  364.6210 O.co2 279  ASP279     -0.2456
     50  OD2      -57.4060   54.6200  362.8740 O.co2 279  ASP279     -0.2456
     51  N        -61.1320   58.5350  361.6400 N.am  280  GLY280     -0.1942
     52  CA       -61.5910   59.5620  360.7180 C.3   280  GLY280      0.2014
     53  C        -60.6720   59.7550  359.5330 C.2   280  GLY280      0.2639
     54  O        -60.4950   60.8850  359.0610 O.2   280  GLY280     -0.2714
     55  N        -60.0750   58.6740  359.0480 N.am  281  CYS281     -0.1953
     56  CA       -59.1170   58.7050  357.9520 C.3   281  CYS281      0.1843
     57  C        -59.6570   57.9030  356.7720 C.2   281  CYS281      0.2625
     58  O        -60.7370   57.3070  356.8320 O.2   281  CYS281     -0.2714
     59  CB       -57.7590   58.1570  358.4010 C.3   281  CYS281      0.0997
     60  SG       -57.7810   56.4070  358.8610 S.3   281  CYS281     -0.0797
     61  N        -58.8830   57.8950  355.6860 N.am  282  GLU282     -0.1963
     62  CA       -59.2410   57.0820  354.5300 C.3   282  GLU282      0.1733
     63  C        -58.8100   55.6330  354.7140 C.2   282  GLU282      0.2617
     64  O        -59.5170   54.7180  354.2790 O.2   282  GLU282     -0.2715
     65  CB       -58.6180   57.6650  353.2590 C.3   282  GLU282      0.0429
     66  CG       -59.3010   58.9300  352.7560 C.3   282  GLU282      0.1163
     67  CD       -60.7040   58.6730  352.2360 C.2   282  GLU282      0.3649
     68  OE1      -61.0080   57.5120  351.8960 O.co2 282  GLU282     -0.2457
     69  OE2      -61.5060   59.6290  352.1720 O.co2 282  GLU282     -0.2457
     70  N        -57.6630   55.4070  355.3630 N.am  283  SER283     -0.1950
     71  CA       -57.2020   54.0440  355.6120 C.3   283  SER283      0.1924
     72  C        -58.2120   53.2390  356.4170 C.2   283  SER283      0.2314
     73  O        -58.2410   52.0070  356.3200 O.2   283  SER283     -0.2863
     74  CB       -55.8540   54.0680  356.3350 C.3   283  SER283      0.2116
     75  OG       -54.8260   54.5330  355.4790 O.3   283  SER283     -0.2180
@<TRIPOS>BOND
     1    31    30    2
     2    30    29    1
     3    37    36    1
     4    38    36    1
     5    29    28    1
     6    29    32    1
     7    36    35    2
     8    33    32    1
     9    33    34    1
    10    35    34    1
    11    21    20    2
    12    20    19    1
    13    26    24   ar
    14    26    27   ar
    15    24    23   ar
    16    13    12    2
    17    19    18    1
    18    19    22    1
    19    16    15    1
    20    17    15    1
    21    27    25   ar
    22    15    14    1
    23    23    22    1
    24    23    25   ar
    25    12    11    1
    26    14    11    1
    27    11    10    1
    28     9     8    2
    29    10     8   am
    30     8     7    1
    31    68    67   ar
    32    69    67   ar
    33    67    66    1
    34     6     7    1
    35     6     3   am
    36    66    65    1
    37     2     3    1
    38     2     1    1
    39     2     5    1
    40    65    62    1
    41     3     4    2
    42    64    63    2
    43    62    63    1
    44    62    61    1
    45    63    70   am
    46    70    71    1
    47    75    74    1
    48    71    74    1
    49    71    72    1
    50    61    57   am
    51    73    72    2
    52    57    58    2
    53    57    56    1
    54    56    59    1
    55    56    55    1
    56    59    60    1
    57    55    53   am
    58    54    53    2
    59    53    52    1
    60    39    40    1
    61    42    41    2
    62    40    41    1
    63    52    51    1
    64    51    45   am
    65    46    45    2
    66    45    44    1
    67    47    44    1
    68    47    48    1
    69    50    48   ar
    70    44    43    1
    71    48    49   ar
