@<TRIPOS>MOLECULE
tmp/6dftA01.pdb
 75 73 0 0 0
SMALL
GASTEIGER

@<TRIPOS>ATOM
      1  N        -41.7080    4.0070  288.8190 N.3   301  GLY301     -0.1210
      2  CA       -41.4020    2.5950  288.7150 C.3   301  GLY301      0.1956
      3  C        -42.6430    1.7710  288.4550 C.2   301  GLY301      0.2612
      4  O        -43.6970    2.3190  288.1200 O.2   301  GLY301     -0.2717
      5  N        -42.5370    0.4550  288.6040 N.am  302  GLY302     -0.1942
      6  CA       -43.6890   -0.4040  288.4300 C.3   302  GLY302      0.2014
      7  C        -43.6910   -1.1760  287.1300 C.2   302  GLY302      0.2638
      8  O        -42.6370   -1.5980  286.6440 O.2   302  GLY302     -0.2714
      9  N        -44.8850   -1.3710  286.5660 N.am  303  VAL303     -0.1977
     10  CA       -45.0130   -2.0690  285.2900 C.3   303  VAL303      0.1596
     11  C        -44.2030   -1.3620  284.2140 C.2   303  VAL303      0.2287
     12  O        -43.6030   -2.0020  283.3420 O.2   303  VAL303     -0.2864
     13  CB       -46.4980   -2.1750  284.8930 C.3   303  VAL303      0.0276
     14  CG1      -46.6580   -2.9690  283.6060 C.3   303  VAL303      0.0022
     15  CG2      -47.3140   -2.7890  286.0200 C.3   303  VAL303      0.0022
     16  N        -40.2120   -1.8960  284.3760 N.3   306  HIS306     -0.1241
     17  CA       -39.7840   -3.2360  283.9950 C.3   306  HIS306      0.1621
     18  C        -40.0690   -3.5380  282.5310 C.2   306  HIS306      0.2264
     19  O        -39.3760   -4.3660  281.9310 O.2   306  HIS306     -0.2867
     20  CB       -40.4600   -4.2840  284.8780 C.3   306  HIS306      0.0745
     21  CG       -40.0460   -5.6890  284.5670 C.ar  306  HIS306      0.0817
     22  ND1      -40.8730   -6.5850  283.9250 N.ar  306  HIS306     -0.2268
     23  CD2      -38.8870   -6.3470  284.8020 C.ar  306  HIS306      0.1154
     24  CE1      -40.2430   -7.7390  283.7860 C.ar  306  HIS306      0.1986
     25  NE2      -39.0360   -7.6200  284.3090 N.ar  306  HIS306     -0.2212
     26  N        -38.1300    5.2250  294.9650 N.3   327  ALA327     -0.1245
     27  CA       -38.2450    3.8970  295.5420 C.3   327  ALA327      0.1562
     28  C        -36.9410    3.5010  296.2210 C.2   327  ALA327      0.2260
     29  O        -35.8600    3.9830  295.8720 O.2   327  ALA327     -0.2867
     30  CB       -38.6110    2.8720  294.4710 C.3   327  ALA327      0.0290
     31  N        -36.7460   -3.5260  299.7940 N.3   331  ASP331     -0.1225
     32  CA       -37.8530   -4.4340  299.5240 C.3   331  ASP331      0.1805
     33  C        -37.5850   -5.3570  298.3420 C.2   331  ASP331      0.2598
     34  O        -38.3670   -6.2860  298.1150 O.2   331  ASP331     -0.2718
     35  CB       -39.1440   -3.6420  299.2920 C.3   331  ASP331      0.1424
     36  CG       -38.9940   -2.5680  298.2330 C.2   331  ASP331      0.3668
     37  OD1      -37.9140   -2.4820  297.6110 O.co2 331  ASP331     -0.2456
     38  OD2      -39.9600   -1.8050  298.0230 O.co2 331  ASP331     -0.2456
     39  N        -36.5050   -5.1280  297.5970 N.am  332  GLY332     -0.1942
     40  CA       -36.1270   -5.9960  296.4990 C.3   332  GLY332      0.2014
     41  C        -37.1560   -6.0650  295.3900 C.2   332  GLY332      0.2640
     42  O        -37.4690   -7.1510  294.8940 O.2   332  GLY332     -0.2714
     43  N        -37.6860   -4.9140  294.9910 N.am  333  SER333     -0.1935
     44  CA       -38.7070   -4.8340  293.9590 C.3   333  SER333      0.2055
     45  C        -38.1130   -4.2970  292.6640 C.2   333  SER333      0.2643
     46  O        -37.0660   -3.6420  292.6560 O.2   333  SER333     -0.2714
     47  CB       -39.8710   -3.9440  294.4080 C.3   333  SER333      0.2130
     48  OG       -39.4300   -2.6260  294.6830 O.3   333  SER333     -0.2179
     49  N        -38.8040   -4.5790  291.5580 N.am  334  ASP334     -0.1957
     50  CA       -38.3890   -4.0600  290.2590 C.3   334  ASP334      0.1840
     51  C        -38.6520   -2.5660  290.1140 C.2   334  ASP334      0.2621
     52  O        -38.4040   -2.0120  289.0390 O.2   334  ASP334     -0.2715
     53  CB       -39.0850   -4.8360  289.1360 C.3   334  ASP334      0.1450
     54  CG       -38.2310   -4.9500  287.8800 C.2   334  ASP334      0.3671
     55  OD1      -37.9930   -3.9220  287.2130 O.co2 334  ASP334     -0.2456
     56  OD2      -37.7850   -6.0730  287.5660 O.co2 334  ASP334     -0.2456
     57  N        -39.1570   -1.9070  291.1570 N.am  335  ALA335     -0.1977
     58  CA       -39.2480   -0.4540  291.2100 C.3   335  ALA335      0.1597
     59  C        -38.0630    0.1610  291.9440 C.2   335  ALA335      0.2287
     60  O        -37.4350    1.0970  291.4400 O.2   335  ALA335     -0.2864
     61  CB       -40.5580   -0.0270  291.8780 C.3   335  ALA335      0.0319
     62  N        -29.3790   -8.9440  284.8780 N.3   345  TRP345     -0.1241
     63  CA       -30.2400   -9.6680  283.9490 C.3   345  TRP345      0.1605
     64  C        -29.7520   -9.5460  282.5150 C.2   345  TRP345      0.2264
     65  O        -29.9040  -10.4860  281.7270 O.2   345  TRP345     -0.2867
     66  CB       -31.6740   -9.1510  284.0380 C.3   345  TRP345      0.0550
     67  CG       -32.3530   -9.4320  285.3330 C.ar  345  TRP345      0.0003
     68  CD1      -32.2020   -8.7470  286.5020 C.ar  345  TRP345      0.0946
     69  CD2      -33.3160  -10.4580  285.5910 C.ar  345  TRP345      0.0152
     70  NE1      -33.0030   -9.2900  287.4770 N.ar  345  TRP345     -0.2442
     71  CE2      -33.6980  -10.3430  286.9420 C.ar  345  TRP345      0.0810
     72  CE3      -33.8890  -11.4690  284.8120 C.ar  345  TRP345      0.0012
     73  CZ2      -34.6260  -11.1980  287.5310 C.ar  345  TRP345      0.0191
     74  CZ3      -34.8110  -12.3170  285.4000 C.ar  345  TRP345      0.0001
     75  CH2      -35.1690  -12.1770  286.7460 C.ar  345  TRP345      0.0015
@<TRIPOS>BOND
     1    65    64    2
     2    19    18    2
     3    64    63    1
     4    18    17    1
     5    12    11    2
     6    14    13    1
     7    24    22   ar
     8    24    25   ar
     9    22    21   ar
    10    63    66    1
    11    63    62    1
    12    17    16    1
    13    17    20    1
    14    66    67    1
    15    11    10    1
    16    25    23   ar
    17    21    23   ar
    18    21    20    1
    19    72    74   ar
    20    72    69   ar
    21    13    10    1
    22    13    15    1
    23    10     9    1
    24    67    69   ar
    25    67    68   ar
    26    74    75   ar
    27    69    71   ar
    28    68    70   ar
    29     9     7   am
    30     8     7    2
    31    75    73   ar
    32    71    70   ar
    33    71    73   ar
    34     7     6    1
    35    55    54   ar
    36    56    54   ar
    37    54    53    1
    38     4     3    2
    39     6     5    1
    40     3     5   am
    41     3     2    1
    42     2     1    1
    43    52    51    2
    44    53    50    1
    45    51    50    1
    46    51    57   am
    47    50    49    1
    48    57    58    1
    49    58    61    1
    50    58    59    1
    51    60    59    2
    52    49    45   am
    53    46    45    2
    54    45    44    1
    55    44    47    1
    56    44    43    1
    57    47    48    1
    58    30    27    1
    59    42    41    2
    60    26    27    1
    61    43    41   am
    62    41    40    1
    63    27    28    1
    64    29    28    2
    65    40    39    1
    66    39    33   am
    67    37    36   ar
    68    38    36   ar
    69    34    33    2
    70    36    35    1
    71    33    32    1
    72    35    32    1
    73    32    31    1
