@<TRIPOS>MOLECULE
tmp/6dftA00.pdb
 151 143 0 0 0
SMALL
GASTEIGER

@<TRIPOS>ATOM
      1  N        -45.2440    6.7460  284.7470 N.3    65  THR65      -0.1203
      2  CA       -46.3040    6.1850  285.5670 C.3    65  THR65       0.1994
      3  C        -47.5750    7.0200  285.4170 C.2    65  THR65       0.2618
      4  O        -47.5450    8.1740  284.9810 O.2    65  THR65      -0.2717
      5  CB       -45.8790    6.1000  287.0360 C.3    65  THR65       0.1784
      6  OG1      -46.9270    5.5000  287.8060 O.3    65  THR65      -0.2211
      7  CG2      -45.5800    7.4760  287.5910 C.3    65  THR65       0.0376
      8  N        -48.7030    6.4150  285.7970 N.am   66  ALA66      -0.1965
      9  CA       -50.0080    6.9490  285.4130 C.3    66  ALA66       0.1728
     10  C        -50.2700    8.3190  286.0290 C.2    66  ALA66       0.2616
     11  O        -50.6250    9.2710  285.3230 O.2    66  ALA66      -0.2715
     12  CB       -51.1090    5.9640  285.8060 C.3    66  ALA66       0.0334
     13  N        -50.0990    8.4400  287.3480 N.am   67  ASN67      -0.1958
     14  CA       -50.5110    9.6520  288.0500 C.3    67  ASN67       0.1819
     15  C        -49.7310   10.8890  287.6180 C.2    67  ASN67       0.2621
     16  O        -50.1670   12.0090  287.9050 O.2    67  ASN67      -0.2715
     17  CB       -50.3720    9.4550  289.5610 C.3    67  ASN67       0.1195
     18  CG       -51.4060    8.4970  290.1220 C.2    67  ASN67       0.2630
     19  OD1      -51.0640    7.4690  290.7080 O.2    67  ASN67      -0.2716
     20  ND2      -52.6790    8.8320  289.9470 N.am   67  ASN67      -0.0877
     21  N        -48.5960   10.7190  286.9350 N.am   68  LEU68      -0.1977
     22  CA       -47.8070   11.8720  286.5140 C.3    68  LEU68       0.1596
     23  C        -48.4750   12.6690  285.4030 C.2    68  LEU68       0.2287
     24  O        -48.1080   13.8270  285.1830 O.2    68  LEU68      -0.2864
     25  CB       -46.4160   11.4300  286.0640 C.3    68  LEU68       0.0297
     26  CG       -45.4570   11.0170  287.1800 C.3    68  LEU68       0.0022
     27  CD1      -44.1150   10.6310  286.5940 C.3    68  LEU68       0.0001
     28  CD2      -45.3010   12.1310  288.2030 C.3    68  LEU68       0.0001
     29  N        -48.3870    3.1450  282.3400 N.3   117  SER117     -0.1202
     30  CA       -49.2010    2.2340  283.1270 C.3   117  SER117      0.2020
     31  C        -50.6820    2.4470  282.8240 C.2   117  SER117      0.2619
     32  O        -51.0700    3.3440  282.0730 O.2   117  SER117     -0.2717
     33  CB       -48.9270    2.4260  284.6190 C.3   117  SER117      0.2103
     34  OG       -47.5560    2.2290  284.9170 O.3   117  SER117     -0.2182
     35  N        -51.5160    1.6020  283.4240 N.am  118  GLY118     -0.1942
     36  CA       -52.9500    1.7320  283.2350 C.3   118  GLY118      0.2014
     37  C        -53.4970    2.9430  283.9700 C.2   118  GLY118      0.2639
     38  O        -53.0790    3.2660  285.0820 O.2   118  GLY118     -0.2714
     39  N        -54.4530    3.6160  283.3350 N.am  119  GLY119     -0.1954
     40  CA       -55.0010    4.8440  283.8680 C.3   119  GLY119      0.1869
     41  C        -54.2000    6.0870  283.5530 C.2   119  GLY119      0.2309
     42  O        -54.5620    7.1740  284.0230 O.2   119  GLY119     -0.2863
     43  N        -55.8640   10.1140  282.4020 N.3   123  HIS123     -0.1241
     44  CA       -55.6220   11.3860  283.0760 C.3   123  HIS123      0.1621
     45  C        -55.3830   12.5060  282.0740 C.2   123  HIS123      0.2264
     46  O        -55.7980   13.6490  282.2980 O.2   123  HIS123     -0.2867
     47  CB       -54.4300   11.2620  284.0260 C.3   123  HIS123      0.0745
     48  CG       -54.7660   10.6310  285.3410 C.ar  123  HIS123      0.0817
     49  ND1      -56.0630   10.4360  285.7630 N.ar  123  HIS123     -0.2268
     50  CD2      -53.9730   10.1550  286.3300 C.ar  123  HIS123      0.1154
     51  CE1      -56.0540    9.8660  286.9550 C.ar  123  HIS123      0.1986
     52  NE2      -54.7980    9.6840  287.3210 N.ar  123  HIS123     -0.2212
     53  N        -59.0030   15.8430  291.5940 N.3   146  TYR146     -0.1241
     54  CA       -59.7990   16.0000  290.3860 C.3   146  TYR146      0.1605
     55  C        -61.1980   15.4670  290.6570 C.2   146  TYR146      0.2264
     56  O        -61.4590   14.8430  291.6890 O.2   146  TYR146     -0.2867
     57  CB       -59.1620   15.2950  289.1780 C.3   146  TYR146      0.0534
     58  CG       -59.1770   13.7810  289.2310 C.ar  146  TYR146     -0.0201
     59  CD1      -60.2490   13.0580  288.7190 C.ar  146  TYR146     -0.0009
     60  CD2      -58.1100   13.0740  289.7700 C.ar  146  TYR146     -0.0009
     61  CE1      -60.2650   11.6780  288.7580 C.ar  146  TYR146      0.0417
     62  CE2      -58.1170   11.6900  289.8120 C.ar  146  TYR146      0.0417
     63  CZ       -59.1970   10.9980  289.3040 C.ar  146  TYR146      0.1957
     64  OH       -59.2090    9.6230  289.3430 O.3   146  TYR146     -0.2866
     65  N        -50.6540   -2.6730  281.1460 N.3   252  SER252     -0.1217
     66  CA       -51.5640   -2.5490  282.2750 C.3   252  SER252      0.1889
     67  C        -52.8160   -1.7390  281.9390 C.2   252  SER252      0.2288
     68  O        -53.5230   -1.3050  282.8570 O.2   252  SER252     -0.2866
     69  CB       -50.8340   -1.9230  283.4670 C.3   252  SER252      0.2089
     70  OG       -51.7090   -1.7250  284.5640 O.3   252  SER252     -0.2183
     71  N        -56.2340   -2.0410  283.6390 N.3   255  ASP255     -0.1225
     72  CA       -56.4330   -1.5330  284.9930 C.3   255  ASP255      0.1805
     73  C        -56.5710   -0.0140  285.0020 C.2   255  ASP255      0.2598
     74  O        -56.0640    0.6690  285.8930 O.2   255  ASP255     -0.2718
     75  CB       -55.2860   -1.9620  285.9040 C.3   255  ASP255      0.1424
     76  CG       -55.6190   -1.8190  287.3810 C.2   255  ASP255      0.3668
     77  OD1      -56.4120   -2.6360  287.8820 O.co2 255  ASP255     -0.2456
     78  OD2      -55.0690   -0.9110  288.0450 O.co2 255  ASP255     -0.2456
     79  N        -57.2380    0.5390  283.9910 N.am  256  GLY256     -0.1942
     80  CA       -57.4370    1.9650  283.8810 C.3   256  GLY256      0.2014
     81  C        -58.8920    2.3820  284.0300 C.2   256  GLY256      0.2638
     82  O        -59.7980    1.5670  284.1720 O.2   256  GLY256     -0.2714
     83  N        -59.0970    3.7020  284.0150 N.am  257  ASP257     -0.1971
     84  CA       -60.4570    4.2330  284.0350 C.3   257  ASP257      0.1709
     85  C        -61.2310    3.8950  282.7680 C.2   257  ASP257      0.2293
     86  O        -62.4650    3.9870  282.7650 O.2   257  ASP257     -0.2864
     87  CB       -60.4320    5.7480  284.2400 C.3   257  ASP257      0.1436
     88  CG       -59.9780    6.1360  285.6310 C.2   257  ASP257      0.3671
     89  OD1      -60.2780    5.3830  286.5830 O.co2 257  ASP257     -0.2456
     90  OD2      -59.3310    7.1920  285.7780 O.co2 257  ASP257     -0.2456
     91  N        -40.6360    7.2150  287.6020 N.3   300  GLY300     -0.1210
     92  CA       -41.2610    6.3780  288.6060 C.3   300  GLY300      0.1956
     93  C        -40.8070    4.9370  288.5200 C.2   300  GLY300      0.2612
     94  O        -39.6510    4.6610  288.1870 O.2   300  GLY300     -0.2717
     95  N        -41.7080    4.0070  288.8190 N.am  301  GLY301     -0.1942
     96  CA       -41.4020    2.5950  288.7150 C.3   301  GLY301      0.2014
     97  C        -42.6430    1.7710  288.4550 C.2   301  GLY301      0.2639
     98  O        -43.6970    2.3190  288.1200 O.2   301  GLY301     -0.2714
     99  N        -42.5370    0.4550  288.6040 N.am  302  GLY302     -0.1939
    100  CA       -43.6890   -0.4040  288.4300 C.3   302  GLY302      0.2014
    101  C        -43.6910   -1.1760  287.1300 C.2   302  GLY302      0.2638
    102  O        -42.6370   -1.5980  286.6440 O.2   302  GLY302     -0.2714
    103  N        -44.8850   -1.3710  286.5660 N.am  303  VAL303     -0.1977
    104  CA       -45.0130   -2.0690  285.2900 C.3   303  VAL303      0.1596
    105  C        -44.2030   -1.3620  284.2140 C.2   303  VAL303      0.2287
    106  O        -43.6030   -2.0020  283.3420 O.2   303  VAL303     -0.2864
    107  CB       -46.4980   -2.1750  284.8930 C.3   303  VAL303      0.0276
    108  CG1      -46.6580   -2.9690  283.6060 C.3   303  VAL303      0.0022
    109  CG2      -47.3140   -2.7890  286.0200 C.3   303  VAL303      0.0022
    110  N        -37.1670    7.7590  290.2430 N.3   325  ASN325     -0.1225
    111  CA       -38.1790    7.3690  291.2100 C.3   325  ASN325      0.1785
    112  C        -37.6900    7.7200  292.6090 C.2   325  ASN325      0.2597
    113  O        -36.5430    8.1270  292.8080 O.2   325  ASN325     -0.2718
    114  CB       -38.5120    5.8700  291.1040 C.3   325  ASN325      0.1169
    115  CG       -37.3050    4.9710  291.3460 C.2   325  ASN325      0.2627
    116  OD1      -36.4970    5.2120  292.2430 O.2   325  ASN325     -0.2716
    117  ND2      -37.1870    3.9200  290.5460 N.am  325  ASN325     -0.0877
    118  N        -38.5780    7.5610  293.5880 N.am  326  ASN326     -0.1960
    119  CA       -38.2140    7.6570  294.9960 C.3   326  ASN326      0.1819
    120  C        -38.3740    6.3100  295.6910 C.2   326  ASN326      0.2621
    121  O        -38.7290    6.2470  296.8700 O.2   326  ASN326     -0.2715
    122  CB       -39.0400    8.7300  295.7060 C.3   326  ASN326      0.1195
    123  CG       -38.3580    9.2600  296.9610 C.2   326  ASN326      0.2630
    124  OD1      -37.4120    8.6590  297.4730 O.2   326  ASN326     -0.2716
    125  ND2      -38.8420   10.3900  297.4620 N.am  326  ASN326     -0.0877
    126  N        -38.1300    5.2250  294.9650 N.am  327  ALA327     -0.1977
    127  CA       -38.2450    3.8970  295.5420 C.3   327  ALA327      0.1597
    128  C        -36.9410    3.5010  296.2210 C.2   327  ALA327      0.2287
    129  O        -35.8600    3.9830  295.8720 O.2   327  ALA327     -0.2864
    130  CB       -38.6110    2.8720  294.4710 C.3   327  ALA327      0.0319
    131  N        -39.1570   -1.9070  291.1570 N.3   335  ALA335     -0.1245
    132  CA       -39.2480   -0.4540  291.2100 C.3   335  ALA335      0.1562
    133  C        -38.0630    0.1610  291.9440 C.2   335  ALA335      0.2260
    134  O        -37.4350    1.0970  291.4400 O.2   335  ALA335     -0.2867
    135  CB       -40.5580   -0.0270  291.8780 C.3   335  ALA335      0.0290
    136  N        -38.3110   12.5860  293.9340 N.3   360  GLU360     -0.1231
    137  CA       -39.6100   12.5880  293.2820 C.3   360  GLU360      0.1699
    138  C        -39.5280   13.2550  291.9090 C.2   360  GLU360      0.2592
    139  O        -38.6550   14.0830  291.6370 O.2   360  GLU360     -0.2718
    140  CB       -40.6410   13.2890  294.1670 C.3   360  GLU360      0.0402
    141  CG       -42.0700   12.8300  293.9430 C.3   360  GLU360      0.1161
    142  CD       -42.8400   13.7590  293.0310 C.2   360  GLU360      0.3649
    143  OE1      -42.6820   14.9890  293.1700 O.co2 360  GLU360     -0.2457
    144  OE2      -43.6000   13.2600  292.1750 O.co2 360  GLU360     -0.2457
    145  N        -40.4710   12.8820  291.0390 N.am  361  VAL361     -0.1980
    146  CA       -40.3780   13.2370  289.6250 C.3   361  VAL361      0.1595
    147  C        -40.6240   14.7260  289.4100 C.2   361  VAL361      0.2287
    148  O        -39.8900   15.3850  288.6640 O.2   361  VAL361     -0.2864
    149  CB       -41.3570   12.3830  288.8000 C.3   361  VAL361      0.0276
    150  CG1      -41.4610   12.9170  287.3810 C.3   361  VAL361      0.0022
    151  CG2      -40.9190   10.9280  288.7950 C.3   361  VAL361      0.0022
@<TRIPOS>BOND
     1    65    66    1
     2    67    66    1
     3    67    68    2
     4    32    31    2
     5    45    46    2
     6    45    44    1
     7    66    69    1
     8    29    30    1
     9    43    44    1
    10    86    85    2
    11    85    84    1
    12    31    30    1
    13    31    35   am
    14    44    47    1
    15    30    33    1
    16    36    35    1
    17    36    37    1
    18    39    40    1
    19    39    37   am
    20   106   105    2
    21    69    70    1
    22    41    40    1
    23    41    42    2
    24   108   107    1
    25    71    72    1
    26    80    79    1
    27    80    81    1
    28    37    38    2
    29    79    73   am
    30    83    81   am
    31    83    84    1
    32    47    48    1
    33    81    82    2
    34    84    87    1
    35   105   104    1
    36    87    88    1
    37    33    34    1
    38     1     2    1
    39   107   104    1
    40   107   109    1
    41     4     3    2
    42    72    73    1
    43    72    75    1
    44    73    74    2
    45    24    23    2
    46   104   103    1
    47    11    10    2
    48    48    49   ar
    49    48    50   ar
    50    23    22    1
    51     9     8    1
    52     9    12    1
    53     9    10    1
    54     3     2    1
    55     3     8   am
    56     2     5    1
    57    88    90   ar
    58    88    89   ar
    59    49    51   ar
    60    75    76    1
    61    10    13   am
    62    25    22    1
    63    25    26    1
    64    50    52   ar
    65    22    21    1
    66   103   101   am
    67    27    26    1
    68   102   101    2
    69    21    15   am
    70    51    52   ar
    71     5     7    1
    72     5     6    1
    73   101   100    1
    74    26    28    1
    75    13    14    1
    76   150   149    1
    77    76    77   ar
    78    76    78   ar
    79    91    92    1
    80    15    16    2
    81    15    14    1
    82    14    17    1
    83    98    97    2
    84    94    93    2
    85   100    99    1
    86    97    99   am
    87    97    96    1
    88    93    92    1
    89    93    95   am
    90   148   147    2
    91    96    95    1
    92    59    61   ar
    93    59    58   ar
    94    61    63   ar
    95   151   149    1
    96   149   146    1
    97    57    58    1
    98    57    54    1
    99    58    60   ar
   100    63    64    1
   101    63    62   ar
   102   147   146    1
   103    17    18    1
   104   146   145    1
   105    60    62   ar
   106    20    18   am
   107    18    19    2
   108   110   111    1
   109    54    55    1
   110    54    53    1
   111   117   115   am
   112    55    56    2
   113   145   138   am
   114   114   111    1
   115   114   115    1
   116   131   132    1
   117   111   112    1
   118   132   135    1
   119   132   133    1
   120   115   116    2
   121   134   133    2
   122   139   138    2
   123   138   137    1
   124   144   142   ar
   125   112   113    2
   126   112   118   am
   127   142   143   ar
   128   142   141    1
   129   137   136    1
   130   137   140    1
   131   118   119    1
   132   141   140    1
   133   130   127    1
   134   126   127    1
   135   126   120   am
   136   119   120    1
   137   119   122    1
   138   127   128    1
   139   120   121    2
   140   122   123    1
   141   129   128    2
   142   123   125   am
   143   123   124    2
