@<TRIPOS>MOLECULE
tmp/6dfuA00.pdb
 121 116 0 0 0
SMALL
GASTEIGER

@<TRIPOS>ATOM
      1  N         -4.6650  -13.8610    9.7050 N.3     5  PHE5       -0.1227
      2  CA        -5.4660  -13.0430   10.6190 C.3     5  PHE5        0.1736
      3  C         -6.2710  -11.9740    9.8690 C.2     5  PHE5        0.2596
      4  O         -5.7300  -11.2180    9.0420 O.2     5  PHE5       -0.2718
      5  CB        -4.5690  -12.3690   11.6600 C.3     5  PHE5        0.0547
      6  CG        -5.3170  -11.6110   12.7190 C.ar    5  PHE5       -0.0202
      7  CD1       -5.6230  -12.2170   13.9370 C.ar    5  PHE5       -0.0042
      8  CD2       -5.7540  -10.2940   12.4880 C.ar    5  PHE5       -0.0042
      9  CE1       -6.3250  -11.5160   14.9210 C.ar    5  PHE5       -0.0003
     10  CE2       -6.4420   -9.5930   13.4550 C.ar    5  PHE5       -0.0003
     11  CZ        -6.7470  -10.2070   14.6830 C.ar    5  PHE5       -0.0000
     12  N         -7.5650  -11.9180   10.1670 N.am    6  SER6       -0.1938
     13  CA        -8.4520  -10.9170    9.6120 C.3     6  SER6        0.2055
     14  C         -9.3030  -10.1970   10.6720 C.2     6  SER6        0.2643
     15  O        -10.0070  -10.8150   11.4720 O.2     6  SER6       -0.2714
     16  CB        -9.3320  -11.6080    8.6150 C.3     6  SER6        0.2130
     17  OG       -10.2830  -10.7210    8.0820 O.3     6  SER6       -0.2179
     18  N         -9.2300   -8.8790   10.6750 N.am    7  GLY7       -0.1954
     19  CA       -10.0750   -8.0600   11.5260 C.3     7  GLY7        0.1869
     20  C        -11.3960   -7.8000   10.8390 C.2     7  GLY7        0.2309
     21  O        -11.4040   -7.4780    9.6840 O.2     7  GLY7       -0.2863
     22  N        -15.0140   -5.6860   11.0680 N.3     9  GLN9       -0.1245
     23  CA       -15.7260   -4.6020   11.7740 C.3     9  GLN9        0.1566
     24  C        -17.1710   -5.0550   12.0700 C.2     9  GLN9        0.2260
     25  O        -17.7870   -5.8160   11.3000 O.2     9  GLN9       -0.2867
     26  CB       -15.7010   -3.2170   11.0600 C.3     9  GLN9        0.0367
     27  CG       -14.3350   -2.5040   10.9720 C.3     9  GLN9        0.0905
     28  CD       -13.9580   -1.5700   12.1400 C.2     9  GLN9        0.2608
     29  OE1      -14.5400   -1.6160   13.2590 O.2     9  GLN9       -0.2717
     30  NE2      -12.9340   -0.7250   11.8940 N.am    9  GLN9       -0.0878
     31  N        -13.7950   -6.5210   15.5630 N.3    40  VAL40      -0.1245
     32  CA       -12.9720   -5.4450   16.1400 C.3    40  VAL40       0.1561
     33  C        -13.8100   -4.3400   16.7410 C.2    40  VAL40       0.2260
     34  O        -13.8520   -3.2020   16.2580 O.2    40  VAL40      -0.2867
     35  CB       -11.8450   -4.9400   15.1980 C.3    40  VAL40       0.0252
     36  CG1      -10.8060   -6.0280   15.0100 C.3    40  VAL40       0.0019
     37  CG2      -12.3320   -4.5060   13.8380 C.3    40  VAL40       0.0019
     38  N        -11.8260   -1.0930   17.8520 N.3    43  HIS43      -0.1241
     39  CA       -11.6650   -0.1520   16.7560 C.3    43  HIS43       0.1621
     40  C        -12.9670    0.5440   16.4340 C.2    43  HIS43       0.2264
     41  O        -12.9370    1.7030   16.0860 O.2    43  HIS43      -0.2867
     42  CB       -11.1450   -0.8400   15.5210 C.3    43  HIS43       0.0745
     43  CG        -9.6700   -1.0560   15.5650 C.ar   43  HIS43       0.0817
     44  ND1       -9.1000   -2.2910   15.7650 N.ar   43  HIS43      -0.2268
     45  CD2       -8.6500   -0.1730   15.4630 C.ar   43  HIS43       0.1154
     46  CE1       -7.7860   -2.1580   15.7750 C.ar   43  HIS43       0.1986
     47  NE2       -7.4870   -0.8890   15.5810 N.ar   43  HIS43      -0.2212
     48  N         -5.3520    4.1710   16.3420 N.3   126  TYR126     -0.1241
     49  CA        -5.9190    3.0710   15.5360 C.3   126  TYR126      0.1605
     50  C         -4.8560    2.0650   14.9380 C.2   126  TYR126      0.2264
     51  O         -4.9260    0.8360   15.1560 O.2   126  TYR126     -0.2867
     52  CB        -6.7710    3.7040   14.3720 C.3   126  TYR126      0.0534
     53  CG        -7.6350    2.7660   13.6470 C.ar  126  TYR126     -0.0201
     54  CD1       -9.0430    2.8260   13.7800 C.ar  126  TYR126     -0.0009
     55  CD2       -7.0980    1.8400   12.8050 C.ar  126  TYR126     -0.0009
     56  CE1       -9.8720    1.9410   13.0940 C.ar  126  TYR126      0.0417
     57  CE2       -7.9040    0.9510   12.1120 C.ar  126  TYR126      0.0417
     58  CZ        -9.2950    1.0020   12.2610 C.ar  126  TYR126      0.1957
     59  OH       -10.0650    0.1020   11.5480 O.3   126  TYR126     -0.2866
     60  N         -4.1910   -1.9570   15.7100 N.3   130  MET130     -0.1245
     61  CA        -4.2200   -2.8640   14.5520 C.3   130  MET130      0.1570
     62  C         -2.9500   -3.6870   14.4700 C.2   130  MET130      0.2261
     63  O         -3.0300   -4.9170   14.2990 O.2   130  MET130     -0.2867
     64  CB        -4.4670   -2.0970   13.2440 C.3   130  MET130      0.0387
     65  CG        -4.5450   -2.9980   12.0010 C.3   130  MET130      0.0595
     66  SD        -5.3770   -2.1810   10.6300 S.3   130  MET130     -0.1393
     67  CE        -5.2770   -3.4540    9.3800 C.3   130  MET130      0.0692
     68  N         -3.2010   -6.3280   17.1730 N.3   133  ASP133     -0.1225
     69  CA        -4.1560   -7.3710   16.7760 C.3   133  ASP133      0.1805
     70  C         -3.4330   -8.4870   15.9310 C.2   133  ASP133      0.2597
     71  O         -3.6030   -9.6790   16.1730 O.2   133  ASP133     -0.2718
     72  CB        -5.2830   -6.8220   15.9010 C.3   133  ASP133      0.1424
     73  CG        -6.1900   -5.8060   16.5520 C.2   133  ASP133      0.3668
     74  OD1       -6.3810   -5.7630   17.8030 O.co2 133  ASP133     -0.2456
     75  OD2       -6.8330   -5.0730   15.7180 O.co2 133  ASP133     -0.2456
     76  N         -2.6320   -8.0740   14.9440 N.am  134  ILE134     -0.1980
     77  CA        -1.9420   -8.9980   14.0210 C.3   134  ILE134      0.1595
     78  C         -0.7550   -9.7180   14.6610 C.2   134  ILE134      0.2287
     79  O         -0.5730  -10.9280   14.4720 O.2   134  ILE134     -0.2864
     80  CB        -1.3890   -8.2310   12.7910 C.3   134  ILE134      0.0276
     81  CG1       -2.5220   -7.6490   11.9590 C.3   134  ILE134      0.0022
     82  CG2       -0.4940   -9.1300   11.9140 C.3   134  ILE134      0.0022
     83  CD1       -2.1410   -6.4650   11.0740 C.3   134  ILE134      0.0001
     84  N         -2.0960  -11.3430    6.1260 N.3   142  VAL142     -0.1231
     85  CA        -3.2230  -10.4920    6.4900 C.3   142  VAL142      0.1678
     86  C         -3.8420   -9.9260    5.2170 C.2   142  VAL142      0.2434
     87  O         -3.1780   -9.2010    4.5090 O.2   142  VAL142     -0.2733
     88  CB        -2.7600   -9.2970    7.3790 C.3   142  VAL142      0.0265
     89  CG1       -3.9490   -8.4790    7.8270 C.3   142  VAL142      0.0020
     90  CG2       -1.9520   -9.8020    8.5890 C.3   142  VAL142      0.0020
     91  N         -5.1050  -10.2460    4.9340 N.am  143  PRO143     -0.2718
     92  CA        -5.8010   -9.5280    3.8580 C.3   143  PRO143      0.1535
     93  C         -6.2210   -8.1450    4.3010 C.2   143  PRO143      0.2598
     94  O         -6.7790   -8.0020    5.3940 O.2   143  PRO143     -0.2715
     95  CB        -7.0390  -10.3880    3.6060 C.3   143  PRO143      0.0310
     96  CG        -7.2960  -11.0770    4.8860 C.3   143  PRO143      0.0237
     97  CD        -5.9950  -11.1940    5.6290 C.3   143  PRO143      0.0939
     98  N         -5.9450   -7.1430    3.4870 N.am  144  VAL144     -0.1978
     99  CA        -6.3660   -5.7660    3.7510 C.3   144  VAL144      0.1596
    100  C         -6.8940   -5.1380    2.4590 C.2   144  VAL144      0.2287
    101  O         -6.3730   -5.4090    1.3770 O.2   144  VAL144     -0.2864
    102  CB        -5.2040   -4.8920    4.2910 C.3   144  VAL144      0.0276
    103  CG1       -4.9050   -5.2350    5.7440 C.3   144  VAL144      0.0022
    104  CG2       -3.9490   -5.0360    3.4510 C.3   144  VAL144      0.0022
    105  N         -7.2970    0.6830    1.0220 N.3   147  ASP147     -0.1225
    106  CA        -7.2530    1.7380    2.0390 C.3   147  ASP147      0.1805
    107  C         -6.4860    1.3970    3.3500 C.2   147  ASP147      0.2597
    108  O         -6.0910    2.3200    4.0760 O.2   147  ASP147     -0.2718
    109  CB        -8.6660    2.1330    2.4200 C.3   147  ASP147      0.1424
    110  CG        -9.3930    1.0210    3.1620 C.2   147  ASP147      0.3668
    111  OD1       -9.8960    1.2790    4.2890 O.co2 147  ASP147     -0.2456
    112  OD2       -9.4370   -0.1240    2.6340 O.co2 147  ASP147     -0.2456
    113  N         -6.3260    0.1000    3.6500 N.am  148  GLN148     -0.1979
    114  CA        -5.6830   -0.4010    4.9060 C.3   148  GLN148      0.1601
    115  C         -4.1990   -0.8380    4.7490 C.2   148  GLN148      0.2287
    116  O         -3.5870   -1.3740    5.6850 O.2   148  GLN148     -0.2864
    117  CB        -6.5330   -1.5680    5.4770 C.3   148  GLN148      0.0394
    118  CG        -7.8910   -1.1320    6.0400 C.3   148  GLN148      0.0908
    119  CD        -7.7470   -0.1030    7.1510 C.2   148  GLN148      0.2608
    120  OE1       -6.8990   -0.2570    8.0420 O.2   148  GLN148     -0.2717
    121  NE2       -8.5610    0.9430    7.1020 N.am  148  GLN148     -0.0878
@<TRIPOS>BOND
     1   105   106    1
     2   101   100    2
     3   106   109    1
     4   106   107    1
     5   109   110    1
     6   100    99    1
     7   112   110   ar
     8   110   111   ar
     9   107   113   am
    10   107   108    2
    11   104   102    1
    12    98    99    1
    13    98    93   am
    14    95    92    1
    15    95    96    1
    16   113   114    1
    17    99   102    1
    18    92    93    1
    19    92    91    1
    20   102   103    1
    21    93    94    2
    22    87    86    2
    23   115   114    1
    24   115   116    2
    25    96    97    1
    26   114   117    1
    27    91    86   am
    28    91    97    1
    29    86    85    1
    30   117   118    1
    31   118   119    1
    32    84    85    1
    33    85    88    1
    34   121   119   am
    35   119   120    2
    36    88    89    1
    37    88    90    1
    38    17    16    1
    39    16    13    1
    40     4     3    2
    41    67    66    1
    42    13    12    1
    43    13    14    1
    44    21    20    2
    45     1     2    1
    46     3    12   am
    47     3     2    1
    48     2     5    1
    49    66    65    1
    50    14    18   am
    51    14    15    2
    52    18    19    1
    53    20    19    1
    54    27    26    1
    55    27    28    1
    56    26    23    1
    57    22    23    1
    58    83    81    1
    59    25    24    2
    60    59    58    1
    61     5     6    1
    62    23    24    1
    63    30    28   am
    64    82    80    1
    65    81    80    1
    66    65    64    1
    67    57    58   ar
    68    57    55   ar
    69    28    29    2
    70    58    56   ar
    71     8     6   ar
    72     8    10   ar
    73     6     7   ar
    74    80    77    1
    75    55    53   ar
    76    56    54   ar
    77    64    61    1
    78    10    11   ar
    79    53    54   ar
    80    53    52    1
    81    37    35    1
    82     7     9   ar
    83    77    78    1
    84    77    76    1
    85    63    62    2
    86    52    49    1
    87    62    61    1
    88    79    78    2
    89    61    60    1
    90    11     9   ar
    91    50    51    2
    92    50    49    1
    93    76    70   am
    94    36    35    1
    95    35    32    1
    96    45    43   ar
    97    45    47   ar
    98    42    43    1
    99    42    39    1
   100    49    48    1
   101    31    32    1
   102    43    44   ar
   103    47    46   ar
   104    75    73   ar
   105    44    46   ar
   106    72    73    1
   107    72    69    1
   108    70    71    2
   109    70    69    1
   110    41    40    2
   111    32    33    1
   112    34    33    2
   113    40    39    1
   114    73    74   ar
   115    39    38    1
   116    69    68    1
