@<TRIPOS>MOLECULE
tmp/6dg5B03.pdb
 79 74 0 0 0
SMALL
GASTEIGER

@<TRIPOS>ATOM
      1  N         18.0390  -38.2750  -78.5320 N.3    11  PHE11      -0.1241
      2  CA        17.8410  -38.2030  -77.0920 C.3    11  PHE11       0.1605
      3  C         18.9440  -37.3790  -76.4480 C.2    11  PHE11       0.2264
      4  O         20.1110  -37.4650  -76.8400 O.2    11  PHE11      -0.2867
      5  CB        17.7970  -39.6000  -76.4630 C.3    11  PHE11       0.0534
      6  CG        16.5620  -40.3760  -76.8100 C.ar   11  PHE11      -0.0203
      7  CD1       15.3270  -39.9840  -76.3230 C.ar   11  PHE11      -0.0042
      8  CD2       16.6330  -41.4960  -77.6200 C.ar   11  PHE11      -0.0042
      9  CE1       14.1830  -40.6930  -76.6380 C.ar   11  PHE11      -0.0003
     10  CE2       15.4920  -42.2120  -77.9380 C.ar   11  PHE11      -0.0003
     11  CZ        14.2660  -41.8090  -77.4450 C.ar   11  PHE11      -0.0000
     12  N         20.8140  -36.2910  -72.8340 N.3    13  ASN13      -0.1240
     13  CA        21.0690  -36.7850  -71.4870 C.3    13  ASN13       0.1653
     14  C         20.9270  -35.7050  -70.4180 C.2    13  ASN13       0.2266
     15  O         21.3200  -35.9400  -69.2700 O.2    13  ASN13      -0.2867
     16  CB        22.4660  -37.4110  -71.4110 C.3    13  ASN13       0.1155
     17  CG        23.5720  -36.3760  -71.3190 C.2    13  ASN13       0.2627
     18  OD1       23.4500  -35.2650  -71.8380 O.2    13  ASN13      -0.2716
     19  ND2       24.6650  -36.7390  -70.6560 N.am   13  ASN13      -0.0877
     20  N         25.2080  -34.3750  -73.9650 N.3    17  ASN17      -0.1240
     21  CA        25.2470  -35.5160  -74.8700 C.3    17  ASN17       0.1653
     22  C         23.8990  -35.6520  -75.5590 C.2    17  ASN17       0.2266
     23  O         22.8590  -35.7270  -74.8950 O.2    17  ASN17      -0.2867
     24  CB        25.6040  -36.8010  -74.1080 C.3    17  ASN17       0.1155
     25  CG        25.8590  -38.0000  -75.0240 C.2    17  ASN17       0.2627
     26  OD1       25.4020  -38.0530  -76.1700 O.2    17  ASN17      -0.2716
     27  ND2       26.5960  -38.9760  -74.5000 N.am   17  ASN17      -0.0877
     28  N         22.2500  -38.1490  -78.5360 N.3    19  SER19      -0.1217
     29  CA        22.4650  -39.3750  -79.2950 C.3    19  SER19       0.1889
     30  C         21.2970  -39.5880  -80.2450 C.2    19  SER19       0.2288
     31  O         20.1370  -39.5680  -79.8220 O.2    19  SER19      -0.2866
     32  CB        22.6200  -40.5800  -78.3640 C.3    19  SER19       0.2089
     33  OG        22.9990  -41.7360  -79.0900 O.3    19  SER19      -0.2183
     34  N         26.7880  -39.8740  -81.8000 N.3    58  ASN58      -0.1240
     35  CA        26.9460  -39.2680  -80.4810 C.3    58  ASN58       0.1653
     36  C         27.4860  -37.8530  -80.6350 C.2    58  ASN58       0.2266
     37  O         28.6550  -37.6630  -80.9870 O.2    58  ASN58      -0.2867
     38  CB        27.8620  -40.1100  -79.5940 C.3    58  ASN58       0.1155
     39  CG        27.2020  -41.3920  -79.1400 C.2    58  ASN58       0.2627
     40  OD1       25.9770  -41.4690  -79.0350 O.2    58  ASN58      -0.2716
     41  ND2       28.0090  -42.4090  -78.8680 N.am   58  ASN58      -0.0877
     42  N         16.5000  -38.5550  -72.0810 N.3   103  ARG103     -0.1231
     43  CA        16.7640  -39.9510  -71.7310 C.3   103  ARG103      0.1694
     44  C         18.0440  -39.9620  -70.9010 C.2   103  ARG103      0.2592
     45  O         19.1490  -39.9680  -71.4520 O.2   103  ARG103     -0.2718
     46  CB        16.8880  -40.8320  -72.9690 C.3   103  ARG103      0.0321
     47  CG        16.4640  -42.2740  -72.7290 C.3   103  ARG103      0.0489
     48  CD        17.5810  -43.2570  -73.0350 C.3   103  ARG103      0.2205
     49  NE        17.4120  -43.9080  -74.3330 N.pl3 103  ARG103     -0.0865
     50  CZ        18.1870  -43.6860  -75.3890 C.cat 103  ARG103      0.5346
     51  NH1       17.9590  -44.3270  -76.5290 N.pl3 103  ARG103      0.1354
     52  NH2       19.1970  -42.8320  -75.3060 N.pl3 103  ARG103      0.1354
     53  N         17.8870  -39.9680  -69.5790 N.am  104  LEU104     -0.1966
     54  CA        19.0100  -39.7980  -68.6700 C.3   104  LEU104      0.1728
     55  C         19.9450  -41.0070  -68.7140 C.2   104  LEU104      0.2616
     56  O         19.6320  -42.0600  -69.2750 O.2   104  LEU104     -0.2715
     57  CB        18.5080  -39.5700  -67.2450 C.3   104  LEU104      0.0311
     58  CG        17.8940  -38.1990  -66.9600 C.3   104  LEU104      0.0022
     59  CD1       16.8890  -38.2720  -65.8200 C.3   104  LEU104      0.0001
     60  CD2       18.9970  -37.2130  -66.6340 C.3   104  LEU104      0.0001
     61  N         21.1140  -40.8340  -68.1070 N.am  105  VAL105     -0.1963
     62  CA        22.1030  -41.9020  -68.0100 C.3   105  VAL105      0.1727
     63  C         21.6580  -42.9020  -66.9530 C.2   105  VAL105      0.2616
     64  O         21.1530  -42.5220  -65.8900 O.2   105  VAL105     -0.2715
     65  CB        23.4920  -41.3170  -67.6940 C.3   105  VAL105      0.0290
     66  CG1       24.4610  -42.4140  -67.2790 C.3   105  VAL105      0.0023
     67  CG2       24.0290  -40.5620  -68.8990 C.3   105  VAL105      0.0023
     68  N         21.8410  -44.1880  -67.2500 N.am  106  ALA106     -0.1977
     69  CA        21.3770  -45.2470  -66.3680 C.3   106  ALA106      0.1597
     70  C         22.0070  -45.1140  -64.9820 C.2   106  ALA106      0.2287
     71  O         23.1360  -44.6310  -64.8510 O.2   106  ALA106     -0.2864
     72  CB        21.7130  -46.6120  -66.9640 C.3   106  ALA106      0.0319
     73  N         17.8910  -46.3070  -69.5460 N.3   194  PRO194     -0.2116
     74  CA        18.1360  -47.7510  -69.6010 C.3   194  PRO194      0.1372
     75  C         18.3250  -48.3310  -68.2080 C.2   194  PRO194      0.2244
     76  O         18.6720  -47.6340  -67.2540 O.2   194  PRO194     -0.2868
     77  CB        19.4190  -47.8660  -70.4300 C.3   194  PRO194      0.0268
     78  CG        19.4450  -46.6220  -71.2390 C.3   194  PRO194      0.0207
     79  CD        18.8610  -45.5580  -70.3590 C.3   194  PRO194      0.0892
@<TRIPOS>BOND
     1    34    35    1
     2    37    36    2
     3    36    35    1
     4    35    38    1
     5    30    31    2
     6    30    29    1
     7    38    39    1
     8    29    28    1
     9    29    32    1
    10    39    40    2
    11    39    41   am
    12    33    32    1
    13     1     2    1
    14    10     8   ar
    15    10    11   ar
    16     8     6   ar
    17    11     9   ar
    18     2     5    1
    19     2     3    1
    20     4     3    2
    21     6     5    1
    22     6     7   ar
    23     9     7   ar
    24    51    50    1
    25    26    25    2
    26    22    23    2
    27    22    21    1
    28    50    52    1
    29    50    49    2
    30    25    27   am
    31    25    24    1
    32    21    24    1
    33    21    20    1
    34    49    48    1
    35    48    47    1
    36    46    47    1
    37    46    43    1
    38    12    13    1
    39    42    43    1
    40    18    17    2
    41    43    44    1
    42    13    16    1
    43    13    14    1
    44    45    44    2
    45    16    17    1
    46    17    19   am
    47    78    77    1
    48    78    79    1
    49    44    53   am
    50    77    74    1
    51    14    15    2
    52    79    73    1
    53    74    73    1
    54    74    75    1
    55    53    54    1
    56    56    55    2
    57    67    65    1
    58    55    54    1
    59    55    61   am
    60    54    57    1
    61    75    76    2
    62    61    62    1
    63    62    65    1
    64    62    63    1
    65    65    66    1
    66    68    63   am
    67    68    69    1
    68    57    58    1
    69    72    69    1
    70    58    60    1
    71    58    59    1
    72    63    64    2
    73    69    70    1
    74    70    71    2
