@<TRIPOS>MOLECULE
tmp/6dgeA00.pdb
 150 139 0 0 0
SMALL
GASTEIGER

@<TRIPOS>ATOM
      1  N        -13.4070   37.0240   -3.2850 N.3    23  LEU23      -0.1231
      2  CA       -13.2380   36.8210   -4.7160 C.3    23  LEU23       0.1693
      3  C        -13.3360   35.3360   -5.0500 C.2    23  LEU23       0.2591
      4  O        -12.8740   34.4940   -4.2820 O.2    23  LEU23      -0.2718
      5  CB       -11.8870   37.3760   -5.1640 C.3    23  LEU23       0.0284
      6  CG       -11.6690   38.8680   -4.8970 C.3    23  LEU23       0.0019
      7  CD1      -10.2100   39.2260   -5.0910 C.3    23  LEU23       0.0001
      8  CD2      -12.5520   39.7050   -5.8100 C.3    23  LEU23       0.0001
      9  N        -13.9450   35.0170   -6.1890 N.am   24  ARG24      -0.1980
     10  CA       -14.0860   33.6280   -6.6160 C.3    24  ARG24       0.1597
     11  C        -14.0640   33.5130   -8.1370 C.2    24  ARG24       0.2287
     12  O        -14.5940   34.3710   -8.8430 O.2    24  ARG24      -0.2864
     13  CB       -15.3560   33.0010   -6.0330 C.3    24  ARG24       0.0334
     14  CG       -16.6520   33.6280   -6.5100 C.3    24  ARG24       0.0492
     15  CD       -17.7620   33.4010   -5.4980 C.3    24  ARG24       0.2205
     16  NE       -17.5590   34.2030   -4.2940 N.pl3  24  ARG24      -0.0865
     17  CZ       -18.3500   34.1600   -3.2280 C.cat  24  ARG24       0.5346
     18  NH1      -19.3960   33.3470   -3.2140 N.pl3  24  ARG24       0.1354
     19  NH2      -18.0960   34.9280   -2.1770 N.pl3  24  ARG24       0.1354
     20  N        -10.9610   38.2470    1.9660 N.3    66  ASP66      -0.1239
     21  CA       -10.1120   37.1080    1.6320 C.3    66  ASP66       0.1674
     22  C         -8.9520   36.9370    2.6110 C.2    66  ASP66       0.2266
     23  O         -8.0240   36.1620    2.3570 O.2    66  ASP66      -0.2867
     24  CB        -9.5820   37.2590    0.2050 C.3    66  ASP66       0.1410
     25  CG       -10.6310   36.9470   -0.8400 C.2    66  ASP66       0.3668
     26  OD1      -11.0310   37.8650   -1.5940 O.co2  66  ASP66      -0.2456
     27  OD2      -11.0530   35.7740   -0.9030 O.co2  66  ASP66      -0.2456
     28  N         -6.7970   33.6870    3.5650 N.3    69  PHE69      -0.1241
     29  CA        -5.8550   33.0250    2.6730 C.3    69  PHE69       0.1605
     30  C         -4.4580   33.6330    2.7620 C.2    69  PHE69       0.2264
     31  O         -3.9610   34.2310    1.8050 O.2    69  PHE69      -0.2867
     32  CB        -6.4060   33.0470    1.2490 C.3    69  PHE69       0.0534
     33  CG        -7.7970   32.4800    1.1440 C.ar   69  PHE69      -0.0203
     34  CD1       -8.8490   33.2480    0.6660 C.ar   69  PHE69      -0.0042
     35  CD2       -8.0590   31.1830    1.5650 C.ar   69  PHE69      -0.0042
     36  CE1      -10.1310   32.7200    0.5840 C.ar   69  PHE69      -0.0003
     37  CE2       -9.3340   30.6540    1.4920 C.ar   69  PHE69      -0.0003
     38  CZ       -10.3730   31.4200    0.9990 C.ar   69  PHE69      -0.0000
     39  N         -1.5090   32.5550    2.7030 N.3    71  GLU71      -0.1231
     40  CA        -0.4410   32.0690    1.8300 C.3    71  GLU71       0.1699
     41  C         -0.1060   33.1030    0.7660 C.2    71  GLU71       0.2592
     42  O          1.0560   33.2800    0.4050 O.2    71  GLU71      -0.2718
     43  CB        -0.8290   30.7450    1.1620 C.3    71  GLU71       0.0402
     44  CG         0.1010   30.3370    0.0170 C.3    71  GLU71       0.1161
     45  CD        -0.0080   28.8660   -0.3390 C.2    71  GLU71       0.3649
     46  OE1        0.8740   28.0850    0.0810 O.co2  71  GLU71      -0.2457
     47  OE2       -0.9720   28.4920   -1.0390 O.co2  71  GLU71      -0.2457
     48  N         -1.1240   33.8120    0.2930 N.am   72  ASP72      -0.1974
     49  CA        -0.9520   34.7220   -0.8380 C.3    72  ASP72       0.1709
     50  C         -0.1680   36.0010   -0.5360 C.2    72  ASP72       0.2293
     51  O          0.3580   36.6340   -1.4520 O.2    72  ASP72      -0.2864
     52  CB        -2.3090   35.0640   -1.4480 C.3    72  ASP72       0.1436
     53  CG        -2.9770   33.8610   -2.0580 C.2    72  ASP72       0.3671
     54  OD1       -2.2890   33.1150   -2.7940 O.co2  72  ASP72      -0.2456
     55  OD2       -4.1740   33.6430   -1.7850 O.co2  72  ASP72      -0.2456
     56  N         -7.0570   42.8660   -1.9710 N.3    91  ARG91      -0.1245
     57  CA        -6.3780   42.0430   -0.9720 C.3    91  ARG91       0.1563
     58  C         -5.0870   42.6760   -0.4570 C.2    91  ARG91       0.2260
     59  O         -4.4410   42.1360    0.4340 O.2    91  ARG91      -0.2867
     60  CB        -6.0840   40.6500   -1.5390 C.3    91  ARG91       0.0307
     61  CG        -7.3220   39.8330   -1.8760 C.3    91  ARG91       0.0489
     62  CD        -6.9790   38.3500   -2.0080 C.3    91  ARG91       0.2205
     63  NE        -6.2630   37.8840   -0.8240 N.pl3  91  ARG91      -0.0865
     64  CZ        -5.7500   36.6670   -0.6780 C.cat  91  ARG91       0.5346
     65  NH1       -5.8710   35.7620   -1.6430 N.pl3  91  ARG91       0.1354
     66  NH2       -5.1080   36.3600    0.4410 N.pl3  91  ARG91       0.1354
     67  N          0.1460   31.9350   -3.6420 N.3   122  GLY122     -0.1225
     68  CA        -0.4650   30.7260   -4.1670 C.3   122  GLY122      0.1811
     69  C          0.0730   30.3040   -5.5240 C.2   122  GLY122      0.2280
     70  O         -0.1460   29.1710   -5.9580 O.2   122  GLY122     -0.2866
     71  N         -2.8730   36.9260  -11.5860 N.3   138  ARG138     -0.1245
     72  CA        -2.5100   37.4850  -10.2900 C.3   138  ARG138      0.1563
     73  C         -1.0210   37.7720  -10.1770 C.2   138  ARG138      0.2260
     74  O         -0.6100   38.6790   -9.4530 O.2   138  ARG138     -0.2867
     75  CB        -2.9230   36.5270   -9.1670 C.3   138  ARG138      0.0307
     76  CG        -4.4220   36.3400   -9.0220 C.3   138  ARG138      0.0489
     77  CD        -5.0800   37.5980   -8.4930 C.3   138  ARG138      0.2205
     78  NE        -6.4960   37.3940   -8.2000 N.pl3 138  ARG138     -0.0865
     79  CZ        -6.9600   36.8660   -7.0710 C.cat 138  ARG138      0.5346
     80  NH1       -6.1190   36.4770   -6.1210 N.pl3 138  ARG138      0.1354
     81  NH2       -8.2660   36.7230   -6.8930 N.pl3 138  ARG138      0.1354
     82  N         -4.2850   29.2630   -9.8880 N.3   166  HIS166     -0.1241
     83  CA        -2.9640   29.5440   -9.3550 C.3   166  HIS166      0.1621
     84  C         -2.1380   28.3090   -9.6320 C.2   166  HIS166      0.2264
     85  O         -2.6910   27.2480   -9.9090 O.2   166  HIS166     -0.2867
     86  CB        -3.0250   29.7940   -7.8520 C.3   166  HIS166      0.0745
     87  CG        -3.5680   31.1380   -7.4820 C.ar  166  HIS166      0.0817
     88  ND1       -4.8820   31.4960   -7.6910 N.ar  166  HIS166     -0.2268
     89  CD2       -2.9720   32.2140   -6.9160 C.ar  166  HIS166      0.1154
     90  CE1       -5.0740   32.7340   -7.2670 C.ar  166  HIS166      0.1986
     91  NE2       -3.9280   33.1910   -6.7930 N.ar  166  HIS166     -0.2212
     92  N         -0.6310   26.4490   -7.5480 N.3   168  LYS168     -0.1231
     93  CA        -0.9400   25.4000   -6.5720 C.3   168  LYS168      0.1693
     94  C         -2.4210   25.0160   -6.5260 C.2   168  LYS168      0.2592
     95  O         -2.8600   24.2970   -5.6220 O.2   168  LYS168     -0.2718
     96  CB        -0.3870   25.7410   -5.1800 C.3   168  LYS168      0.0285
     97  CG         1.1380   25.8560   -5.1820 C.3   168  LYS168      0.0035
     98  CD         1.7540   25.7740   -3.7980 C.3   168  LYS168      0.0206
     99  CE         1.6060   27.0800   -3.0360 C.3   168  LYS168      0.1093
    100  NZ         2.6430   27.1810   -1.9670 N.3   168  LYS168     -0.1314
    101  N         -3.1830   25.4820   -7.5140 N.am  169  SER169     -0.1952
    102  CA        -4.5490   24.9960   -7.7230 C.3   169  SER169      0.1924
    103  C         -4.5460   23.5420   -8.1910 C.2   169  SER169      0.2314
    104  O         -5.5820   22.8730   -8.1730 O.2   169  SER169     -0.2863
    105  CB        -5.2810   25.8420   -8.7740 C.3   169  SER169      0.2116
    106  OG        -5.4480   27.1900   -8.3620 O.3   169  SER169     -0.2180
    107  N         -3.4970   19.7110   -4.1350 N.3   214  ASN214     -0.1240
    108  CA        -3.0850   20.7040   -3.1570 C.3   214  ASN214      0.1653
    109  C         -3.1660   20.1000   -1.7640 C.2   214  ASN214      0.2266
    110  O         -4.2550   19.8460   -1.2430 O.2   214  ASN214     -0.2867
    111  CB        -3.9530   21.9600   -3.2420 C.3   214  ASN214      0.1155
    112  CG        -3.4990   23.0430   -2.2820 C.2   214  ASN214      0.2627
    113  OD1       -3.8400   23.0250   -1.0990 O.2   214  ASN214     -0.2716
    114  ND2       -2.7270   23.9990   -2.7910 N.am  214  ASN214     -0.0877
    115  N        -14.7590   29.4840   -2.7540 N.3   261  VAL261     -0.1231
    116  CA       -14.0350   30.7100   -3.0800 C.3   261  VAL261      0.1692
    117  C        -12.5540   30.4290   -3.3650 C.2   261  VAL261      0.2592
    118  O        -11.6850   31.2530   -3.0790 O.2   261  VAL261     -0.2718
    119  CB       -14.2070   31.7860   -1.9870 C.3   261  VAL261      0.0266
    120  CG1      -15.6760   32.1540   -1.8490 C.3   261  VAL261      0.0020
    121  CG2      -13.6600   31.3090   -0.6540 C.3   261  VAL261      0.0020
    122  N        -12.2940   29.2520   -3.9330 N.am  262  ASP262     -0.1974
    123  CA       -10.9560   28.8540   -4.3740 C.3   262  ASP262      0.1709
    124  C         -9.9590   28.7070   -3.2240 C.2   262  ASP262      0.2293
    125  O         -8.7530   28.8140   -3.4220 O.2   262  ASP262     -0.2864
    126  CB       -10.4260   29.8380   -5.4210 C.3   262  ASP262      0.1436
    127  CG       -11.3550   29.9720   -6.6080 C.2   262  ASP262      0.3671
    128  OD1      -11.7370   28.9300   -7.1730 O.co2 262  ASP262     -0.2456
    129  OD2      -11.7150   31.1140   -6.9660 O.co2 262  ASP262     -0.2456
    130  N         -8.0520   26.4260   -0.8780 N.3   264  LEU264     -0.1245
    131  CA        -7.6330   25.0400   -0.6990 C.3   264  LEU264      0.1561
    132  C         -6.8150   24.8870    0.5770 C.2   264  LEU264      0.2260
    133  O         -6.9410   25.6960    1.4950 O.2   264  LEU264     -0.2867
    134  CB        -6.8320   24.5610   -1.9120 C.3   264  LEU264      0.0270
    135  CG        -7.4670   24.9020   -3.2650 C.3   264  LEU264      0.0019
    136  CD1       -6.6420   24.3200   -4.4050 C.3   264  LEU264      0.0001
    137  CD2       -8.9150   24.4170   -3.3300 C.3   264  LEU264      0.0001
    138  N         -3.1060   24.5630    1.1880 N.3   266  THR266     -0.1203
    139  CA        -1.9250   25.3940    1.4040 C.3   266  THR266      0.1994
    140  C         -2.2850   26.8650    1.5780 C.2   266  THR266      0.2618
    141  O         -1.5420   27.6280    2.2050 O.2   266  THR266     -0.2717
    142  CB        -0.9180   25.2860    0.2440 C.3   266  THR266      0.1784
    143  OG1       -1.4810   25.8630   -0.9390 O.3   266  THR266     -0.2211
    144  CG2       -0.5550   23.8360   -0.0260 C.3   266  THR266      0.0376
    145  N         -3.4250   27.2560    1.0190 N.am  267  CYS267     -0.1969
    146  CA        -3.7970   28.6650    0.9510 C.3   267  CYS267      0.1712
    147  C         -4.0480   29.2790    2.3270 C.2   267  CYS267      0.2296
    148  O         -3.9130   30.4900    2.4970 O.2   267  CYS267     -0.2864
    149  CB        -5.0350   28.8560    0.0660 C.3   267  CYS267      0.0983
    150  SG        -5.2350   27.6790   -1.3050 S.3   267  CYS267     -0.0798
@<TRIPOS>BOND
     1    71    72    1
     2    72    73    1
     3    72    75    1
     4    73    74    2
     5    85    84    2
     6    82    83    1
     7    84    83    1
     8    83    86    1
     9    75    76    1
    10    76    77    1
    11    12    11    2
    12   105   106    1
    13   105   102    1
    14    77    78    1
    15    78    79    2
    16   103   104    2
    17   103   102    1
    18    11    10    1
    19    86    87    1
    20   102   101    1
    21    88    87   ar
    22    88    90   ar
    23    92    93    1
    24   101    94   am
    25    87    89   ar
    26    90    91   ar
    27   128   127   ar
    28    79    81    1
    29    79    80    1
    30   129   127   ar
    31    89    91   ar
    32    10     9    1
    33    10    13    1
    34   127   126    1
    35    93    94    1
    36    93    96    1
    37    94    95    2
    38    14    13    1
    39    14    15    1
    40     9     3   am
    41    70    69    2
    42     8     6    1
    43    69    68    1
    44    15    16    1
    45   126   123    1
    46    97    96    1
    47    97    98    1
    48     5     6    1
    49     5     2    1
    50     7     6    1
    51     3     2    1
    52     3     4    2
    53     2     1    1
    54   136   135    1
    55   123   122    1
    56   123   124    1
    57    16    17    2
    58    68    67    1
    59   107   108    1
    60   122   117   am
    61    98    99    1
    62   125   124    2
    63   117   116    1
    64   117   118    2
    65   137   135    1
    66   135   134    1
    67   111   108    1
    68   111   112    1
    69    17    18    1
    70    17    19    1
    71   108   109    1
    72   116   115    1
    73   116   119    1
    74    99   100    1
    75    54    53   ar
    76   114   112   am
    77   112   113    2
    78    53    55   ar
    79    53    52    1
    80    62    61    1
    81    62    63    1
    82   119   120    1
    83   119   121    1
    84    56    57    1
    85   134   131    1
    86    61    60    1
    87   109   110    2
    88    65    64    1
    89    26    25   ar
    90    60    57    1
    91    51    50    2
    92    52    49    1
    93   150   149    1
    94    47    45   ar
    95    57    58    1
    96   143   142    1
    97    27    25   ar
    98   130   131    1
    99    25    24    1
   100    49    50    1
   101    49    48    1
   102    63    64    2
   103   131   132    1
   104    64    66    1
   105    58    59    2
   106    45    44    1
   107    45    46   ar
   108   144   142    1
   109    44    43    1
   110   149   146    1
   111    24    21    1
   112   142   139    1
   113    48    41   am
   114    42    41    2
   115   132   133    2
   116    36    34   ar
   117    36    38   ar
   118    34    33   ar
   119    41    40    1
   120   146   145    1
   121   146   147    1
   122    38    37   ar
   123   145   140   am
   124    33    32    1
   125    33    35   ar
   126    43    40    1
   127   138   139    1
   128    32    29    1
   129   139   140    1
   130    37    35   ar
   131   140   141    2
   132    21    20    1
   133    21    22    1
   134    31    30    2
   135    40    39    1
   136   147   148    2
   137    23    22    2
   138    29    30    1
   139    29    28    1
