@<TRIPOS>MOLECULE
tmp/6dggA00.pdb
 197 185 0 0 0
SMALL
GASTEIGER

@<TRIPOS>ATOM
      1  N          6.4990    9.3720   17.8270 N.3     8  VAL8       -0.1245
      2  CA         6.0650    8.6650   16.6290 C.3     8  VAL8        0.1561
      3  C          7.2850    7.9650   16.0450 C.2     8  VAL8        0.2260
      4  O          8.2820    8.6090   15.6950 O.2     8  VAL8       -0.2867
      5  CB         5.3950    9.6130   15.6200 C.3     8  VAL8        0.0252
      6  CG1        4.0890   10.1330   16.1940 C.3     8  VAL8        0.0019
      7  CG2        6.2980   10.7710   15.2310 C.3     8  VAL8        0.0019
      8  N          8.7120    5.4010   13.2700 N.3    10  VAL10      -0.1245
      9  CA         8.4500    4.8470   11.9490 C.3    10  VAL10       0.1561
     10  C          9.7720    4.3410   11.3920 C.2    10  VAL10       0.2260
     11  O         10.7850    5.0490   11.4380 O.2    10  VAL10      -0.2867
     12  CB         7.8180    5.9100   11.0290 C.3    10  VAL10       0.0252
     13  CG1        7.5440    5.3470    9.6380 C.3    10  VAL10       0.0019
     14  CG2        6.5200    6.4530   11.6500 C.3    10  VAL10       0.0019
     15  N         11.7060    2.8600    8.0200 N.3    12  LEU12      -0.1245
     16  CA        11.5990    2.9880    6.5730 C.3    12  LEU12       0.1561
     17  C         12.7150    2.2030    5.9050 C.2    12  LEU12       0.2260
     18  O         13.7940    2.0190    6.4750 O.2    12  LEU12      -0.2867
     19  CB        11.8010    4.4430    6.1510 C.3    12  LEU12       0.0270
     20  CG        10.9050    5.5140    6.7580 C.3    12  LEU12       0.0019
     21  CD1       11.3380    6.8910    6.2770 C.3    12  LEU12       0.0001
     22  CD2        9.4590    5.2540    6.4040 C.3    12  LEU12       0.0001
     23  N          5.3730    1.0730   12.3810 N.3    21  PHE21      -0.1241
     24  CA         4.5740    2.2890   12.5340 C.3    21  PHE21       0.1605
     25  C          3.8740    2.1300   13.8750 C.2    21  PHE21       0.2264
     26  O          3.0160    1.2530   14.0190 O.2    21  PHE21      -0.2867
     27  CB         3.5760    2.3160   11.3790 C.3    21  PHE21       0.0534
     28  CG         2.7480    3.5700   11.2320 C.ar   21  PHE21      -0.0203
     29  CD1        3.2490    4.6770   10.5520 C.ar   21  PHE21      -0.0042
     30  CD2        1.4200    3.5910   11.6370 C.ar   21  PHE21      -0.0042
     31  CE1        2.4660    5.8060   10.3450 C.ar   21  PHE21      -0.0003
     32  CE2        0.6230    4.7240   11.4270 C.ar   21  PHE21      -0.0003
     33  CZ         1.1520    5.8290   10.7750 C.ar   21  PHE21      -0.0000
     34  N          1.8060    6.8890   16.1900 N.3    25  SER25      -0.1217
     35  CA         1.6370    7.1840   14.7710 C.3    25  SER25       0.1889
     36  C          0.2160    6.8740   14.3180 C.2    25  SER25       0.2288
     37  O         -0.3850    7.6440   13.5600 O.2    25  SER25      -0.2866
     38  CB         2.6430    6.3910   13.9390 C.3    25  SER25       0.2089
     39  OG         3.9760    6.7340   14.2850 O.3    25  SER25      -0.2183
     40  N         -2.1520    9.6740   15.5950 N.3    28  TYR28      -0.1227
     41  CA        -2.0670   10.9310   14.8540 C.3    28  TYR28       0.1736
     42  C         -2.7320   10.8440   13.4870 C.2    28  TYR28       0.2596
     43  O         -3.2350   11.8540   12.9840 O.2    28  TYR28      -0.2718
     44  CB        -0.6050   11.3420   14.6600 C.3    28  TYR28       0.0548
     45  CG        -0.0690   12.2460   15.7460 C.ar   28  TYR28      -0.0200
     46  CD1       -0.3160   13.6160   15.7210 C.ar   28  TYR28      -0.0009
     47  CD2        0.6910   11.7410   16.7860 C.ar   28  TYR28      -0.0009
     48  CE1        0.1660   14.4500   16.7150 C.ar   28  TYR28       0.0417
     49  CE2        1.1730   12.5640   17.7850 C.ar   28  TYR28       0.0417
     50  CZ         0.9190   13.9220   17.7380 C.ar   28  TYR28       0.1957
     51  OH         1.3950   14.7570   18.7260 O.3    28  TYR28      -0.2866
     52  N         -2.7280    9.6690   12.8590 N.am   29  THR29      -0.1953
     53  CA        -3.0940    9.5590   11.4500 C.3    29  THR29       0.1897
     54  C         -4.4230    8.8710   11.2040 C.2    29  THR29       0.2313
     55  O         -4.9930    9.0360   10.1190 O.2    29  THR29      -0.2863
     56  CB        -2.0240    8.7760   10.6740 C.3    29  THR29       0.1794
     57  OG1       -1.9820    7.4230   11.1530 O.3    29  THR29      -0.2208
     58  CG2       -0.6570    9.4340   10.8070 C.3    29  THR29       0.0378
     59  N          5.9450    6.5890    2.7210 N.3    41  VAL41      -0.1231
     60  CA         5.7200    7.5720    3.7710 C.3    41  VAL41       0.1692
     61  C          5.6180    8.9840    3.2010 C.2    41  VAL41       0.2592
     62  O          4.8700    9.8220    3.7280 O.2    41  VAL41      -0.2718
     63  CB         6.8360    7.4340    4.8260 C.3    41  VAL41       0.0266
     64  CG1        8.1490    8.0400    4.3470 C.3    41  VAL41       0.0020
     65  CG2        6.4040    8.0360    6.1280 C.3    41  VAL41       0.0020
     66  N          6.3650    9.2830    2.1350 N.am   42  PHE42      -0.1976
     67  CA         6.3900   10.6370    1.5960 C.3    42  PHE42       0.1639
     68  C          5.0550   10.9990    0.9620 C.2    42  PHE42       0.2290
     69  O          4.4880   12.0640    1.2360 O.2    42  PHE42      -0.2864
     70  CB         7.5050   10.7780    0.5580 C.3    42  PHE42       0.0560
     71  CG         8.8310   10.2350    1.0040 C.ar   42  PHE42      -0.0200
     72  CD1        9.4610   10.7320    2.1310 C.ar   42  PHE42      -0.0042
     73  CD2        9.4520    9.2280    0.2800 C.ar   42  PHE42      -0.0042
     74  CE1       10.6910   10.2290    2.5300 C.ar   42  PHE42      -0.0003
     75  CE2       10.6790    8.7310    0.6700 C.ar   42  PHE42      -0.0003
     76  CZ        11.2960    9.2250    1.7990 C.ar   42  PHE42      -0.0000
     77  N          2.0950   10.9930    3.7960 N.3    45  PHE45      -0.1227
     78  CA         2.0610   11.8580    4.9770 C.3    45  PHE45       0.1736
     79  C          2.6820   13.2350    4.7790 C.2    45  PHE45       0.2595
     80  O          2.8170   13.9820    5.7620 O.2    45  PHE45      -0.2718
     81  CB         2.7210   11.1750    6.1830 C.3    45  PHE45       0.0547
     82  CG         2.0310    9.9240    6.6180 C.ar   45  PHE45      -0.0202
     83  CD1        0.7210    9.9630    7.0630 C.ar   45  PHE45      -0.0042
     84  CD2        2.6860    8.6980    6.5700 C.ar   45  PHE45      -0.0042
     85  CE1        0.0820    8.8070    7.4730 C.ar   45  PHE45      -0.0003
     86  CE2        2.0560    7.5450    6.9720 C.ar   45  PHE45      -0.0003
     87  CZ         0.7460    7.5940    7.4210 C.ar   45  PHE45      -0.0000
     88  N          3.0570   13.6110    3.5590 N.am   46  MET46      -0.1979
     89  CA         3.7160   14.8890    3.3600 C.3    46  MET46       0.1605
     90  C          3.1380   15.6240    2.1600 C.2    46  MET46       0.2287
     91  O          2.6770   15.0200    1.1850 O.2    46  MET46      -0.2864
     92  CB         5.2290   14.7220    3.1740 C.3    46  MET46       0.0413
     93  CG         5.9150   13.9710    4.2990 C.3    46  MET46       0.0598
     94  SD         7.6830   13.8300    4.0130 S.3    46  MET46      -0.1393
     95  CE         8.1140   12.6850    5.3180 C.3    46  MET46       0.0692
     96  N         12.2010   15.5130    1.6810 N.3    54  SER54      -0.1217
     97  CA        12.3980   14.3440    2.5300 C.3    54  SER54       0.1889
     98  C         12.9250   13.1590    1.7340 C.2    54  SER54       0.2288
     99  O         13.8320   12.4480    2.1860 O.2    54  SER54      -0.2866
    100  CB        11.0630   13.9870    3.1720 C.3    54  SER54       0.2089
    101  OG        11.2210   13.0030    4.1830 O.3    54  SER54      -0.2183
    102  N         16.5120   13.5910    1.1810 N.3    57  ASN57      -0.1225
    103  CA        17.2540   13.3350    2.4130 C.3    57  ASN57       0.1785
    104  C         17.4650   11.8410    2.6160 C.2    57  ASN57       0.2597
    105  O         18.5750   11.3880    2.9230 O.2    57  ASN57      -0.2718
    106  CB        16.4810   13.8950    3.6120 C.3    57  ASN57       0.1169
    107  CG        16.6330   15.3780    3.7730 C.2    57  ASN57       0.2627
    108  OD1       17.2000   16.0630    2.9200 O.2    57  ASN57      -0.2716
    109  ND2       16.1120   15.8990    4.8860 N.am   57  ASN57      -0.0877
    110  N         16.4010   11.0570    2.4660 N.am   58  VAL58      -0.1980
    111  CA        16.5050    9.6290    2.7460 C.3    58  VAL58       0.1595
    112  C         17.4110    8.9510    1.7260 C.2    58  VAL58       0.2287
    113  O         18.2860    8.1560    2.0840 O.2    58  VAL58      -0.2864
    114  CB        15.1090    8.9880    2.8200 C.3    58  VAL58       0.0276
    115  CG1       15.2110    7.4730    2.9410 C.3    58  VAL58       0.0022
    116  CG2       14.3350    9.5750    4.0010 C.3    58  VAL58       0.0022
    117  N         21.1820   12.0590   12.0760 N.3    68  TYR68      -0.1241
    118  CA        20.8730   13.4760   11.9540 C.3    68  TYR68       0.1605
    119  C         19.4830   13.7570   12.5010 C.2    68  TYR68       0.2264
    120  O         18.6970   12.8460   12.7750 O.2    68  TYR68      -0.2867
    121  CB        20.9780   13.9310   10.4910 C.3    68  TYR68       0.0534
    122  CG        19.8880   13.3880    9.5810 C.ar   68  TYR68      -0.0201
    123  CD1       19.9700   12.0980    9.0550 C.ar   68  TYR68      -0.0009
    124  CD2       18.7810   14.1630    9.2450 C.ar   68  TYR68      -0.0009
    125  CE1       18.9800   11.5980    8.2150 C.ar   68  TYR68       0.0417
    126  CE2       17.7830   13.6730    8.4050 C.ar   68  TYR68       0.0417
    127  CZ        17.8840   12.3920    7.9040 C.ar   68  TYR68       0.1957
    128  OH        16.9070   11.8900    7.0750 O.3    68  TYR68      -0.2866
    129  N         16.0120   16.4130   11.7900 N.3    70  VAL70      -0.1245
    130  CA        15.3440   17.2210   10.7820 C.3    70  VAL70       0.1561
    131  C         13.9570   17.5620   11.2960 C.2    70  VAL70       0.2260
    132  O         13.3660   16.8070   12.0730 O.2    70  VAL70      -0.2867
    133  CB        15.2800   16.4570    9.4370 C.3    70  VAL70       0.0252
    134  CG1       14.3540   15.2610    9.5390 C.3    70  VAL70       0.0019
    135  CG2       14.8510   17.3840    8.2990 C.3    70  VAL70       0.0019
    136  N         10.0590   18.2880    9.9930 N.3    72  ARG72      -0.1245
    137  CA         9.2150   17.9470    8.8580 C.3    72  ARG72       0.1563
    138  C          7.7730   18.2460    9.2260 C.2    72  ARG72       0.2260
    139  O          7.3010   17.8240   10.2860 O.2    72  ARG72      -0.2867
    140  CB         9.3620   16.4470    8.5460 C.3    72  ARG72       0.0307
    141  CG         8.9780   15.9860    7.1670 C.3    72  ARG72       0.0489
    142  CD        10.2000   15.8990    6.2870 C.3    72  ARG72       0.2205
    143  NE        10.5250   17.2220    5.8040 N.pl3  72  ARG72      -0.0865
    144  CZ        11.7030   17.6040    5.3270 C.cat  72  ARG72       0.5346
    145  NH1       11.8470   18.8450    4.9000 N.pl3  72  ARG72       0.1354
    146  NH2       12.7290   16.7790    5.2820 N.pl3  72  ARG72       0.1354
    147  N          4.0410   17.3260    8.7940 N.3    74  ILE74      -0.1245
    148  CA         3.4400   16.0160    8.5590 C.3    74  ILE74       0.1561
    149  C          1.9260   16.1590    8.5630 C.2    74  ILE74       0.2260
    150  O          1.3610   16.8250    9.4400 O.2    74  ILE74      -0.2867
    151  CB         3.8610   15.0020    9.6490 C.3    74  ILE74       0.0252
    152  CG1        5.3770   14.7600    9.6370 C.3    74  ILE74       0.0019
    153  CG2        3.0980   13.6940    9.5170 C.3    74  ILE74       0.0019
    154  CD1        5.9190   14.1940    8.3580 C.3    74  ILE74       0.0001
    155  N         -1.5590   15.0640    9.4650 N.3    76  THR76      -0.1218
    156  CA        -2.2150   14.2640   10.4910 C.3    76  THR76       0.1862
    157  C         -3.7240   14.4460   10.3870 C.2    76  THR76       0.2287
    158  O         -4.2270   15.2500    9.5980 O.2    76  THR76      -0.2866
    159  CB        -1.7580   14.6730   11.8990 C.3    76  THR76       0.1770
    160  OG1       -2.4340   15.8750   12.2910 O.3    76  THR76      -0.2211
    161  CG2       -0.2460   14.8920   11.9560 C.3    76  THR76       0.0375
    162  N          7.1070   17.9730   13.2140 N.3    83  PHE83      -0.1241
    163  CA         7.8050   16.9690   14.0010 C.3    83  PHE83       0.1605
    164  C          9.3040   17.1440   13.8640 C.2    83  PHE83       0.2264
    165  O          9.8080   17.4470   12.7800 O.2    83  PHE83      -0.2867
    166  CB         7.4620   15.5590   13.5180 C.3    83  PHE83       0.0534
    167  CG         6.1040   15.1080   13.9220 C.ar   83  PHE83      -0.0203
    168  CD1        4.9960   15.4600   13.1770 C.ar   83  PHE83      -0.0042
    169  CD2        5.9270   14.3350   15.0580 C.ar   83  PHE83      -0.0042
    170  CE1        3.7350   15.0460   13.5570 C.ar   83  PHE83      -0.0003
    171  CE2        4.6610   13.9230   15.4420 C.ar   83  PHE83      -0.0003
    172  CZ         3.5690   14.2860   14.6940 C.ar   83  PHE83      -0.0000
    173  N         12.3940   14.8320   13.7810 N.3    85  PHE85      -0.1241
    174  CA        12.7550   13.4360   13.5840 C.3    85  PHE85       0.1605
    175  C         14.2440   13.2560   13.8370 C.2    85  PHE85       0.2264
    176  O         15.0710   14.0000   13.2930 O.2    85  PHE85      -0.2867
    177  CB        12.3700   12.9630   12.1850 C.3    85  PHE85       0.0534
    178  CG        10.9180   12.6630   12.0420 C.ar   85  PHE85      -0.0203
    179  CD1       10.3820   11.5120   12.5970 C.ar   85  PHE85      -0.0042
    180  CD2       10.0730   13.5290   11.3690 C.ar   85  PHE85      -0.0042
    181  CE1        9.0340   11.2350   12.4720 C.ar   85  PHE85      -0.0003
    182  CE2        8.7220   13.2490   11.2610 C.ar   85  PHE85      -0.0003
    183  CZ         8.2120   12.1050   11.8090 C.ar   85  PHE85      -0.0000
    184  N         17.0020   10.6260   13.1700 N.3    87  ASN87      -0.1240
    185  CA        17.0820    9.5840   12.1540 C.3    87  ASN87       0.1653
    186  C         18.4410    8.8950   12.1790 C.2    87  ASN87       0.2266
    187  O         19.4840    9.5540   12.2170 O.2    87  ASN87      -0.2867
    188  CB        16.8260   10.2000   10.7780 C.3    87  ASN87       0.1155
    189  CG        15.3630   10.5340   10.5570 C.2    87  ASN87       0.2627
    190  OD1       14.5110   10.2850   11.4130 O.2    87  ASN87      -0.2716
    191  ND2       15.0650   11.0990    9.4030 N.am   87  ASN87      -0.0877
    192  N         13.1540    6.3230   12.2810 N.3    97  CYS97      -0.1235
    193  CA        12.7730    7.7240   12.4330 C.3    97  CYS97       0.1677
    194  C         12.0550    7.8920   13.7650 C.2    97  CYS97       0.2270
    195  O         10.9700    7.3430   13.9650 O.2    97  CYS97      -0.2867
    196  CB        11.8840    8.1780   11.2790 C.3    97  CYS97       0.0956
    197  SG        12.6480    7.8900    9.6680 S.3    97  CYS97      -0.0801
@<TRIPOS>BOND
     1    73    75   ar
     2    73    71   ar
     3    70    71    1
     4    70    67    1
     5    75    76   ar
     6    68    69    2
     7    68    67    1
     8    71    72   ar
     9   102   103    1
    10    91    90    2
    11    67    66    1
    12    96    97    1
    13   112   113    2
    14   112   111    1
    15    98    99    2
    16    98    97    1
    17    76    74   ar
    18    72    74   ar
    19    66    61   am
    20    90    89    1
    21   103   104    1
    22   103   106    1
    23   110   104   am
    24   110   111    1
    25    97   100    1
    26   104   105    2
    27    59    60    1
    28   111   114    1
    29   114   115    1
    30   114   116    1
    31   108   107    2
    32   100   101    1
    33    92    89    1
    34    92    93    1
    35    61    62    2
    36    61    60    1
    37    89    88    1
    38    88    79   am
    39   106   107    1
    40    60    63    1
    41   107   109   am
    42    77    78    1
    43    94    93    1
    44    94    95    1
    45    64    63    1
    46    79    78    1
    47    79    80    2
    48    63    65    1
    49   145   144    1
    50    78    81    1
    51   146   144    1
    52   144   143    2
    53   143   142    1
    54    17    18    2
    55    17    16    1
    56    19    16    1
    57    19    20    1
    58    81    82    1
    59    21    20    1
    60   142   141    1
    61    22    20    1
    62    84    82   ar
    63    84    86   ar
    64    16    15    1
    65    82    83   ar
    66    86    87   ar
    67    83    85   ar
    68   128   127    1
    69   141   140    1
    70    87    85   ar
    71   127   125   ar
    72   127   126   ar
    73   125   123   ar
    74   135   133    1
    75   154   152    1
    76   126   124   ar
    77   140   137    1
    78   148   149    1
    79   148   147    1
    80   148   151    1
    81   149   150    2
    82   137   138    1
    83   137   136    1
    84   123   122   ar
    85   138   139    2
    86   124   122   ar
    87   191   189   am
    88   133   134    1
    89   133   130    1
    90   155   156    1
    91   153   151    1
    92   122   121    1
    93   158   157    2
    94   152   151    1
    95    13    12    1
    96   197   196    1
    97    55    54    2
    98    31    29   ar
    99    31    33   ar
   100   157   156    1
   101   121   118    1
   102   156   159    1
   103    29    28   ar
   104   189   188    1
   105   189   190    2
   106    56    58    1
   107    56    57    1
   108    56    53    1
   109    33    32   ar
   110   188   185    1
   111   130   131    1
   112   130   129    1
   113    12    14    1
   114    12     9    1
   115    54    53    1
   116    28    27    1
   117    28    30   ar
   118   182   180   ar
   119   182   183   ar
   120   196   193    1
   121   131   132    2
   122   180   178   ar
   123    27    24    1
   124    10    11    2
   125    10     9    1
   126    32    30   ar
   127    53    52    1
   128   183   181   ar
   129   159   161    1
   130   159   160    1
   131     9     8    1
   132   118   117    1
   133   118   119    1
   134   178   177    1
   135   178   179   ar
   136   185   186    1
   137   185   184    1
   138   186   187    2
   139   177   174    1
   140   192   193    1
   141    23    24    1
   142   193   194    1
   143   181   179   ar
   144   119   120    2
   145    24    25    1
   146   165   164    2
   147    52    42   am
   148    43    42    2
   149   168   170   ar
   150   168   167   ar
   151   162   163    1
   152   176   175    2
   153    42    41    1
   154   166   167    1
   155   166   163    1
   156   170   172   ar
   157    37    36    2
   158   174   173    1
   159   174   175    1
   160   194   195    2
   161   164   163    1
   162    25    26    2
   163   167   169   ar
   164    38    39    1
   165    38    35    1
   166    36    35    1
   167    44    41    1
   168    44    45    1
   169   172   171   ar
   170    35    34    1
   171    41    40    1
   172   169   171   ar
   173     7     5    1
   174     5     6    1
   175     5     2    1
   176     4     3    2
   177    46    45   ar
   178    46    48   ar
   179    45    47   ar
   180     3     2    1
   181     2     1    1
   182    48    50   ar
   183    47    49   ar
   184    50    49   ar
   185    50    51    1
