@<TRIPOS>MOLECULE
tmp/6dgmB00.pdb
 109 103 0 0 0
SMALL
GASTEIGER

@<TRIPOS>ATOM
      1  N        -12.4060   -9.1580    8.6620 N.3    47  GLU47      -0.1245
      2  CA       -13.2830  -10.1240    9.3120 C.3    47  GLU47       0.1567
      3  C        -14.5830   -9.4910    9.7870 C.2    47  GLU47       0.2260
      4  O        -14.5930   -8.5140   10.5270 O.2    47  GLU47      -0.2867
      5  CB       -12.5390  -10.7270   10.5040 C.3    47  GLU47       0.0388
      6  CG       -13.3490  -11.7030   11.3530 C.3    47  GLU47       0.1160
      7  CD       -13.9600  -12.8310   10.5600 C.2    47  GLU47       0.3649
      8  OE1      -15.2090  -12.8990   10.4810 O.co2  47  GLU47      -0.2457
      9  OE2      -13.2120  -13.6320    9.9620 O.co2  47  GLU47      -0.2457
     10  N        -22.0930  -15.2090    9.5900 N.3    86  GLY86      -0.1210
     11  CA       -21.4620  -15.4930   10.8670 C.3    86  GLY86       0.1956
     12  C        -20.2610  -16.4090   10.8080 C.2    86  GLY86       0.2612
     13  O        -19.7710  -16.8450   11.8580 O.2    86  GLY86      -0.2717
     14  N        -19.7920  -16.7340    9.6190 N.am   87  GLY87      -0.1942
     15  CA       -18.6580  -17.6140    9.4450 C.3    87  GLY87       0.2014
     16  C        -18.4680  -17.8880    7.9710 C.2    87  GLY87       0.2639
     17  O        -19.2280  -17.4170    7.1320 O.2    87  GLY87      -0.2714
     18  N        -17.4140  -18.6430    7.6740 N.am   88  GLY88      -0.1939
     19  CA       -17.0790  -19.0030    6.3080 C.3    88  GLY88       0.2014
     20  C        -15.9180  -18.2420    5.7030 C.2    88  GLY88       0.2639
     21  O        -15.7190  -18.2950    4.4770 O.2    88  GLY88      -0.2714
     22  N        -15.1520  -17.5360    6.5310 N.am   89  THR89      -0.1950
     23  CA       -14.0060  -16.7460    6.1140 C.3    89  THR89       0.1897
     24  C        -13.1800  -17.3850    5.0060 C.2    89  THR89       0.2313
     25  O        -12.9330  -16.7800    3.9640 O.2    89  THR89      -0.2863
     26  CB       -13.1380  -16.5600    7.3730 C.3    89  THR89       0.1794
     27  OG1      -13.9890  -16.2180    8.4780 O.3    89  THR89      -0.2208
     28  CG2      -12.0650  -15.5240    7.1100 C.3    89  THR89       0.0378
     29  N         -2.2780  -13.5290    9.1970 N.3   139  HIS139     -0.1241
     30  CA        -3.5250  -13.7960    9.9160 C.3   139  HIS139      0.1621
     31  C         -3.2700  -13.9330   11.4060 C.2   139  HIS139      0.2264
     32  O         -2.5330  -14.8350   11.8050 O.2   139  HIS139     -0.2867
     33  CB        -4.1470  -15.1090    9.4410 C.3   139  HIS139      0.0745
     34  CG        -5.3990  -15.4930   10.1640 C.ar  139  HIS139      0.0817
     35  ND1       -6.4670  -14.6350   10.3100 N.ar  139  HIS139     -0.2268
     36  CD2       -5.7520  -16.6460   10.7800 C.ar  139  HIS139      0.1154
     37  CE1       -7.4370  -15.2540   10.9660 C.ar  139  HIS139      0.1986
     38  NE2       -7.0260  -16.4720   11.2670 N.ar  139  HIS139     -0.2212
     39  N         -4.1120  -15.5210   14.0680 N.3   141  ALA141     -0.1245
     40  CA        -4.5200  -16.7000   14.8240 C.3   141  ALA141      0.1562
     41  C         -3.5730  -17.8190   14.4130 C.2   141  ALA141      0.2260
     42  O         -2.4610  -17.5500   13.9470 O.2   141  ALA141     -0.2867
     43  CB        -6.0130  -17.0290   14.6030 C.3   141  ALA141      0.0290
     44  N         -5.4340  -23.0340   11.1800 N.3   145  ASN145     -0.1225
     45  CA        -6.8820  -22.9260   11.0560 C.3   145  ASN145      0.1785
     46  C         -7.2570  -22.9560    9.5730 C.2   145  ASN145      0.2597
     47  O         -6.6010  -22.3300    8.7280 O.2   145  ASN145     -0.2718
     48  CB        -7.3830  -21.6330   11.7030 C.3   145  ASN145      0.1169
     49  CG        -7.2520  -21.6500   13.2360 C.2   145  ASN145      0.2627
     50  OD1       -6.9370  -22.6760   13.8430 O.2   145  ASN145     -0.2716
     51  ND2       -7.5030  -20.5050   13.8630 N.am  145  ASN145     -0.0877
     52  N         -8.3020  -23.7280    9.2590 N.am  146  PHE146     -0.1976
     53  CA        -8.8170  -23.8630    7.8900 C.3   146  PHE146      0.1639
     54  C         -7.7410  -24.2200    6.8710 C.2   146  PHE146      0.2290
     55  O         -7.8440  -23.8700    5.6960 O.2   146  PHE146     -0.2864
     56  CB        -9.6410  -22.6330    7.4900 C.3   146  PHE146      0.0560
     57  CG       -10.8410  -22.4520    8.3550 C.ar  146  PHE146     -0.0200
     58  CD1      -11.9640  -23.2340    8.1550 C.ar  146  PHE146     -0.0042
     59  CD2      -10.8360  -21.5730    9.4130 C.ar  146  PHE146     -0.0042
     60  CE1      -13.0630  -23.1230    8.9750 C.ar  146  PHE146     -0.0003
     61  CE2      -11.9430  -21.4590   10.2430 C.ar  146  PHE146     -0.0003
     62  CZ       -13.0540  -22.2240   10.0190 C.ar  146  PHE146     -0.0000
     63  N         -4.8310  -23.2090    6.3070 N.3   148  ARG148     -0.1245
     64  CA        -4.1820  -22.1060    5.6060 C.3   148  ARG148      0.1563
     65  C         -2.6840  -22.3420    5.4380 C.2   148  ARG148      0.2260
     66  O         -2.1100  -21.9490    4.4140 O.2   148  ARG148     -0.2867
     67  CB        -4.4210  -20.7650    6.3000 C.3   148  ARG148      0.0307
     68  CG        -5.8410  -20.2410    6.1690 C.3   148  ARG148      0.0489
     69  CD        -5.9150  -18.7730    6.5540 C.3   148  ARG148      0.2205
     70  NE        -7.2830  -18.2690    6.4710 N.pl3 148  ARG148     -0.0865
     71  CZ        -8.1510  -18.2030    7.4780 C.cat 148  ARG148      0.5346
     72  NH1       -7.8240  -18.6050    8.7000 N.pl3 148  ARG148      0.1354
     73  NH2       -9.3670  -17.7280    7.2590 N.pl3 148  ARG148      0.1354
     74  N         -5.8480  -11.6510    6.3980 N.3   204  ILE204     -0.1245
     75  CA        -7.1180  -12.0530    6.9970 C.3   204  ILE204      0.1561
     76  C         -7.0950  -11.5150    8.4210 C.2   204  ILE204      0.2260
     77  O         -6.3340  -12.0130    9.2580 O.2   204  ILE204     -0.2867
     78  CB        -7.2780  -13.5780    7.0220 C.3   204  ILE204      0.0252
     79  CG1       -7.1590  -14.1730    5.6220 C.3   204  ILE204      0.0019
     80  CG2       -8.6140  -13.9520    7.6600 C.3   204  ILE204      0.0019
     81  CD1       -5.7610  -14.6870    5.2850 C.3   204  ILE204      0.0001
     82  N         -8.5180  -10.3260   12.3080 N.3   206  MET206     -0.1245
     83  CA        -9.1910  -11.0210   13.4070 C.3   206  MET206      0.1570
     84  C         -9.9230  -10.0940   14.3670 C.2   206  MET206      0.2261
     85  O        -10.7710  -10.5760   15.1300 O.2   206  MET206     -0.2867
     86  CB        -8.1780  -11.8540   14.1960 C.3   206  MET206      0.0387
     87  CG        -8.7840  -12.9830   14.9750 C.3   206  MET206      0.0595
     88  SD        -9.6070  -14.2050   13.9300 S.3   206  MET206     -0.1393
     89  CE       -10.1100  -15.2790   15.2940 C.3   206  MET206      0.0692
     90  N        -13.7660  -10.4230   14.8380 N.3   209  HIS209     -0.1241
     91  CA       -14.3200  -11.7600   14.9930 C.3   209  HIS209      0.1621
     92  C        -15.0760  -11.8790   16.3120 C.2   209  HIS209      0.2264
     93  O        -14.6670  -11.3030   17.3300 O.2   209  HIS209     -0.2867
     94  CB       -13.1740  -12.7690   14.9930 C.3   209  HIS209      0.0745
     95  CG       -13.6000  -14.1730   14.7140 C.ar  209  HIS209      0.0817
     96  ND1      -14.2010  -14.9780   15.6540 N.ar  209  HIS209     -0.2268
     97  CD2      -13.5170  -14.9150   13.5830 C.ar  209  HIS209      0.1154
     98  CE1      -14.4670  -16.1580   15.1240 C.ar  209  HIS209      0.1986
     99  NE2      -14.0710  -16.1420   13.8640 N.ar  209  HIS209     -0.2212
    100  N        -18.3340  -11.7540    5.5700 N.3   271  HIS271     -0.1241
    101  CA       -19.7150  -12.1040    5.8970 C.3   271  HIS271      0.1621
    102  C        -20.1500  -11.1470    6.9930 C.2   271  HIS271      0.2264
    103  O        -19.3130  -10.4830    7.6340 O.2   271  HIS271     -0.2867
    104  CB       -19.8510  -13.5650    6.3760 C.3   271  HIS271      0.0745
    105  CG       -18.8920  -13.9110    7.4700 C.ar  271  HIS271      0.0817
    106  ND1      -19.0610  -13.4940    8.7780 N.ar  271  HIS271     -0.2268
    107  CD2      -17.7130  -14.5780    7.4400 C.ar  271  HIS271      0.1154
    108  CE1      -18.0270  -13.8880    9.4970 C.ar  271  HIS271      0.1986
    109  NE2      -17.1920  -14.5500    8.7120 N.ar  271  HIS271     -0.2212
@<TRIPOS>BOND
     1    25    24    2
     2    66    65    2
     3    21    20    2
     4    24    23    1
     5    81    79    1
     6    65    64    1
     7   100   101    1
     8    64    67    1
     9    64    63    1
    10    79    78    1
    11    55    54    2
    12    20    19    1
    13    20    22   am
    14   101   104    1
    15   101   102    1
    16    23    22    1
    17    23    26    1
    18    68    67    1
    19    68    69    1
    20    19    18    1
    21   104   105    1
    22    74    75    1
    23    70    69    1
    24    70    71    2
    25    54    53    1
    26   102   103    2
    27    75    78    1
    28    75    76    1
    29    78    80    1
    30    28    26    1
    31    17    16    2
    32    73    71    1
    33    26    27    1
    34   107   105   ar
    35   107   109   ar
    36   105   106   ar
    37    71    72    1
    38    56    53    1
    39    56    57    1
    40    18    16   am
    41    53    52    1
    42    16    15    1
    43    58    57   ar
    44    58    60   ar
    45    57    59   ar
    46    76    77    2
    47     1     2    1
    48   109   108   ar
    49    47    46    2
    50   106   108   ar
    51    60    62   ar
    52    29    30    1
    53    52    46   am
    54     2     3    1
    55     2     5    1
    56    59    61   ar
    57    33    30    1
    58    33    34    1
    59    15    14    1
    60    46    45    1
    61    10    11    1
    62    14    12   am
    63     3     4    2
    64    30    31    1
    65     9     7   ar
    66    62    61   ar
    67    34    35   ar
    68    34    36   ar
    69    35    37   ar
    70     8     7   ar
    71     5     6    1
    72     7     6    1
    73    36    38   ar
    74    12    11    1
    75    12    13    2
    76    37    38   ar
    77    45    44    1
    78    45    48    1
    79    31    32    2
    80    48    49    1
    81    82    83    1
    82    49    50    2
    83    49    51   am
    84    83    86    1
    85    83    84    1
    86    97    99   ar
    87    97    95   ar
    88    99    98   ar
    89    88    87    1
    90    88    89    1
    91    42    41    2
    92    39    40    1
    93    86    87    1
    94    84    85    2
    95    41    40    1
    96    43    40    1
    97    95    94    1
    98    95    96   ar
    99    90    91    1
   100    94    91    1
   101    91    92    1
   102    98    96   ar
   103    92    93    2
