@<TRIPOS>MOLECULE
tmp/6dgtA00.pdb
 194 185 0 0 0
SMALL
GASTEIGER

@<TRIPOS>ATOM
      1  N         41.0890   71.8630  125.5730 N.3   520  THR520     -0.1203
      2  CA        42.3330   71.2670  125.1030 C.3   520  THR520      0.1994
      3  C         42.2240   69.7170  125.0420 C.2   520  THR520      0.2618
      4  O         41.1260   69.1510  125.0380 O.2   520  THR520     -0.2717
      5  CB        43.4840   71.7960  125.9730 C.3   520  THR520      0.1784
      6  OG1       44.7050   71.4810  125.3120 O.3   520  THR520     -0.2211
      7  CG2       43.4960   71.1780  127.3100 C.3   520  THR520      0.0376
      8  N         43.3660   69.0220  124.9600 N.am  521  PHE521     -0.1961
      9  CA        43.2940   67.5660  124.8760 C.3   521  PHE521      0.1771
     10  C         44.6410   66.9570  125.2590 C.2   521  PHE521      0.2619
     11  O         45.6820   67.5560  125.0150 O.2   521  PHE521     -0.2715
     12  CB        42.8930   67.1520  123.4560 C.3   521  PHE521      0.0574
     13  CG        43.9460   67.4380  122.4390 C.ar  521  PHE521     -0.0200
     14  CD1       43.9310   68.6080  121.7320 C.ar  521  PHE521     -0.0042
     15  CD2       44.9640   66.5360  122.2000 C.ar  521  PHE521     -0.0042
     16  CE1       44.9250   68.8950  120.7780 C.ar  521  PHE521     -0.0003
     17  CE2       45.9620   66.8220  121.2630 C.ar  521  PHE521     -0.0003
     18  CZ        45.9410   68.0120  120.5770 C.ar  521  PHE521     -0.0000
     19  N         44.6230   65.7540  125.8460 N.am  522  MET522     -0.1977
     20  CA        45.8800   65.0640  126.2320 C.3   522  MET522      0.1605
     21  C         46.6400   64.5810  124.9900 C.2   522  MET522      0.2287
     22  O         46.0970   63.7940  124.2010 O.2   522  MET522     -0.2864
     23  CB        45.5680   63.8800  127.1410 C.3   522  MET522      0.0413
     24  CG        46.7440   63.2030  127.8400 C.3   522  MET522      0.0598
     25  SD        47.0010   64.0410  129.4220 S.3   522  MET522     -0.1393
     26  CE        48.0230   62.8300  130.3550 C.3   522  MET522      0.0692
     27  N         48.5090   62.3350  124.3230 N.3   524  SER524     -0.1217
     28  CA        48.9290   60.9530  124.3170 C.3   524  SER524      0.1889
     29  C         47.6570   60.1300  124.2790 C.2   524  SER524      0.2288
     30  O         46.8260   60.2180  125.1980 O.2   524  SER524     -0.2866
     31  CB        49.8070   60.6220  125.5270 C.3   524  SER524      0.2089
     32  OG        50.6400   61.7380  125.8560 O.3   524  SER524     -0.2183
     33  N         42.0800   62.0630  124.8620 N.3   528  PRO528     -0.2102
     34  CA        40.9370   62.5630  125.6520 C.3   528  PRO528      0.1504
     35  C         40.9100   64.1040  125.6330 C.2   528  PRO528      0.2576
     36  O         41.9610   64.7580  125.6640 O.2   528  PRO528     -0.2718
     37  CB        41.1600   62.0010  127.0610 C.3   528  PRO528      0.0282
     38  CG        42.5630   61.7910  127.1830 C.3   528  PRO528      0.0208
     39  CD        43.0840   61.4660  125.7620 C.3   528  PRO528      0.0893
     40  N         39.6980   64.6580  125.4990 N.am  529  LEU529     -0.1966
     41  CA        39.4000   66.0860  125.4150 C.3   529  LEU529      0.1728
     42  C         39.0630   66.7280  126.7650 C.2   529  LEU529      0.2616
     43  O         38.3710   66.1430  127.6040 O.2   529  LEU529     -0.2715
     44  CB        38.2010   66.3630  124.5100 C.3   529  LEU529      0.0311
     45  CG        38.0820   65.6890  123.1490 C.3   529  LEU529      0.0022
     46  CD1       36.8870   66.2980  122.4720 C.3   529  LEU529      0.0001
     47  CD2       39.3820   65.8060  122.3450 C.3   529  LEU529      0.0001
     48  N         39.5010   67.9960  126.9310 N.am  530  TRP530     -0.1974
     49  CA        39.2070   68.8030  128.0980 C.3   530  TRP530      0.1640
     50  C         38.2570   69.9030  127.7000 C.2   530  TRP530      0.2290
     51  O         38.6660   70.8000  126.9970 O.2   530  TRP530     -0.2864
     52  CB        40.4930   69.3720  128.5930 C.3   530  TRP530      0.0576
     53  CG        40.4430   70.1270  129.9090 C.ar  530  TRP530      0.0006
     54  CD1       40.2380   71.4610  130.0800 C.ar  530  TRP530      0.0946
     55  CD2       40.7220   69.5910  131.2070 C.ar  530  TRP530      0.0152
     56  NE1       40.3610   71.7810  131.4010 N.ar  530  TRP530     -0.2442
     57  CE2       40.6650   70.6570  132.1140 C.ar  530  TRP530      0.0810
     58  CE3       41.0420   68.3130  131.6760 C.ar  530  TRP530      0.0012
     59  CZ2       40.8890   70.5050  133.4590 C.ar  530  TRP530      0.0191
     60  CZ3       41.2440   68.1420  133.0370 C.ar  530  TRP530      0.0001
     61  CH2       41.1590   69.2470  133.9210 C.ar  530  TRP530      0.0015
     62  N         35.6850   66.0160  130.9410 N.3   547  ILE547     -0.1245
     63  CA        36.7170   65.3050  130.1790 C.3   547  ILE547      0.1561
     64  C         35.9930   64.2570  129.3560 C.2   547  ILE547      0.2260
     65  O         35.1760   63.5340  129.9080 O.2   547  ILE547     -0.2867
     66  CB        37.7310   64.6450  131.1270 C.3   547  ILE547      0.0252
     67  CG1       38.7710   65.6200  131.6020 C.3   547  ILE547      0.0019
     68  CG2       38.3940   63.4520  130.5440 C.3   547  ILE547      0.0019
     69  CD1       39.5160   64.9630  132.6980 C.3   547  ILE547      0.0001
     70  N         36.2070   60.9320  126.7240 N.3   549  LYS549     -0.1245
     71  CA        37.1640   59.8720  126.4520 C.3   549  LYS549      0.1561
     72  C         36.5170   59.0140  125.4040 C.2   549  LYS549      0.2260
     73  O         35.3190   58.7270  125.4820 O.2   549  LYS549     -0.2867
     74  CB        37.6070   59.0760  127.7780 C.3   549  LYS549      0.0271
     75  CG        38.4780   60.0010  128.6810 C.3   549  LYS549      0.0035
     76  CD        39.2140   59.3530  129.7750 C.3   549  LYS549      0.0206
     77  CE        40.6070   59.0730  129.3700 C.3   549  LYS549      0.1093
     78  NZ        41.2410   59.0400  130.6890 N.3   549  LYS549     -0.1314
     79  N         38.9530   54.5050  125.6950 N.3   552  ASP552     -0.1239
     80  CA        39.1700   53.9780  127.0320 C.3   552  ASP552      0.1674
     81  C         37.8670   53.3550  127.5490 C.2   552  ASP552      0.2266
     82  O         36.7810   53.6650  127.0540 O.2   552  ASP552     -0.2867
     83  CB        39.6630   55.1120  127.9400 C.3   552  ASP552      0.1410
     84  CG        41.1670   55.4470  127.7250 C.2   552  ASP552      0.3668
     85  OD1       42.0110   54.5750  128.0480 O.co2 552  ASP552     -0.2456
     86  OD2       41.5450   56.5680  127.2650 O.co2 552  ASP552     -0.2456
     87  N         35.3300   52.9390  130.6770 N.3   554  LEU554     -0.1245
     88  CA        35.1670   53.7180  131.8760 C.3   554  LEU554      0.1561
     89  C         34.3650   52.9990  132.9290 C.2   554  LEU554      0.2260
     90  O         34.3770   53.4530  134.0710 O.2   554  LEU554     -0.2867
     91  CB        34.5030   55.0630  131.5850 C.3   554  LEU554      0.0270
     92  CG        35.3020   56.1950  130.9250 C.3   554  LEU554      0.0019
     93  CD1       34.5260   57.5070  130.9610 C.3   554  LEU554      0.0001
     94  CD2       36.6670   56.3060  131.5520 C.3   554  LEU554      0.0001
     95  N         36.3680   52.4900  136.2710 N.3   557  ASP557     -0.1239
     96  CA        36.4850   53.7070  137.0590 C.3   557  ASP557      0.1674
     97  C         35.1580   54.0710  137.6890 C.2   557  ASP557      0.2266
     98  O         35.1060   54.4530  138.8730 O.2   557  ASP557     -0.2867
     99  CB        36.9800   54.8700  136.2040 C.3   557  ASP557      0.1410
    100  CG        38.3740   54.6340  135.6370 C.2   557  ASP557      0.3668
    101  OD1       38.4500   53.8880  134.6270 O.co2 557  ASP557     -0.2456
    102  OD2       39.3510   55.1740  136.1990 O.co2 557  ASP557     -0.2456
    103  N         34.5580   54.6120  141.7630 N.3   561  LEU561     -0.1245
    104  CA        34.1630   55.8890  142.3410 C.3   561  LEU561      0.1561
    105  C         32.8070   55.8190  143.0200 C.2   561  LEU561      0.2260
    106  O         32.4810   56.6610  143.8860 O.2   561  LEU561     -0.2867
    107  CB        34.1270   56.9550  141.2540 C.3   561  LEU561      0.0270
    108  CG        35.5060   57.2230  140.6880 C.3   561  LEU561      0.0019
    109  CD1       35.4800   57.9400  139.2910 C.3   561  LEU561      0.0001
    110  CD2       36.2600   58.0500  141.7060 C.3   561  LEU561      0.0001
    111  N         34.4740   62.1140  142.2340 N.3   583  TYR583     -0.1241
    112  CA        34.0270   62.9180  141.1050 C.3   583  TYR583      0.1605
    113  C         33.2320   62.0760  140.1270 C.2   583  TYR583      0.2264
    114  O         33.4610   60.8570  139.9830 O.2   583  TYR583     -0.2867
    115  CB        35.1960   63.6040  140.4150 C.3   583  TYR583      0.0534
    116  CG        36.2820   62.6440  139.9600 C.ar  583  TYR583     -0.0201
    117  CD1       36.2010   62.0210  138.7220 C.ar  583  TYR583     -0.0009
    118  CD2       37.3820   62.3690  140.7550 C.ar  583  TYR583     -0.0009
    119  CE1       37.1780   61.1350  138.2980 C.ar  583  TYR583      0.0417
    120  CE2       38.3850   61.4840  140.3360 C.ar  583  TYR583      0.0417
    121  CZ        38.2810   60.8590  139.1240 C.ar  583  TYR583      0.1957
    122  OH        39.2430   59.9710  138.6640 O.3   583  TYR583     -0.2866
    123  N         34.0560   62.4200  132.2800 N.3   595  ILE595     -0.1231
    124  CA        34.6060   62.5530  133.6310 C.3   595  ILE595      0.1692
    125  C         34.3640   63.9720  134.1040 C.2   595  ILE595      0.2592
    126  O         34.5770   64.9280  133.3510 O.2   595  ILE595     -0.2718
    127  CB        36.1010   62.2330  133.6920 C.3   595  ILE595      0.0266
    128  CG1       36.3810   60.7260  133.3420 C.3   595  ILE595      0.0019
    129  CG2       36.6100   62.6500  135.0250 C.3   595  ILE595      0.0020
    130  CD1       37.8590   60.3310  133.0720 C.3   595  ILE595      0.0001
    131  N         33.8840   64.1210  135.3240 N.am  596  GLU596     -0.1966
    132  CA        33.8200   65.4440  135.9130 C.3   596  GLU596      0.1733
    133  C         35.2040   65.9620  136.2500 C.2   596  GLU596      0.2616
    134  O         35.9480   65.2990  136.9780 O.2   596  GLU596     -0.2715
    135  CB        33.0170   65.4170  137.1900 C.3   596  GLU596      0.0429
    136  CG        33.0080   66.8210  137.7130 C.3   596  GLU596      0.1163
    137  CD        32.1240   66.9920  138.9350 C.2   596  GLU596      0.3649
    138  OE1       31.8150   65.9670  139.6260 O.co2 596  GLU596     -0.2457
    139  OE2       31.7760   68.1680  139.2180 O.co2 596  GLU596     -0.2457
    140  N         35.5320   67.1600  135.7850 N.am  597  VAL597     -0.1963
    141  CA        36.8040   67.7460  136.1640 C.3   597  VAL597      0.1727
    142  C         36.6980   68.3280  137.5730 C.2   597  VAL597      0.2616
    143  O         35.7750   69.0890  137.8810 O.2   597  VAL597     -0.2715
    144  CB        37.2270   68.8180  135.1550 C.3   597  VAL597      0.0290
    145  CG1       38.2860   69.8270  135.8060 C.3   597  VAL597      0.0023
    146  CG2       37.6950   68.1680  133.8620 C.3   597  VAL597      0.0023
    147  N         37.6720   68.0330  138.4290 N.am  598  VAL598     -0.1977
    148  CA        37.7610   68.7300  139.7050 C.3   598  VAL598      0.1596
    149  C         38.6510   69.9510  139.4960 C.2   598  VAL598      0.2287
    150  O         39.8590   69.8270  139.2890 O.2   598  VAL598     -0.2864
    151  CB        38.2660   67.8120  140.8130 C.3   598  VAL598      0.0276
    152  CG1       38.4660   68.6020  142.1500 C.3   598  VAL598      0.0022
    153  CG2       37.2260   66.6640  140.9760 C.3   598  VAL598      0.0022
    154  N         43.0490   71.9770  140.9720 N.3   601  SER601     -0.1217
    155  CA        43.8070   70.8470  141.4980 C.3   601  SER601      0.1889
    156  C         44.8260   70.4580  140.4450 C.2   601  SER601      0.2288
    157  O         44.7070   70.8700  139.2840 O.2   601  SER601     -0.2866
    158  CB        42.9000   69.6650  141.8230 C.3   601  SER601      0.2089
    159  OG        42.5000   69.0190  140.6490 O.3   601  SER601     -0.2183
    160  N         46.2120   63.1560  142.7740 N.3   663  MET663     -0.1245
    161  CA        46.0300   64.5830  142.6490 C.3   663  MET663      0.1570
    162  C         45.7350   65.2150  143.9960 C.2   663  MET663      0.2261
    163  O         45.4020   64.5360  144.9860 O.2   663  MET663     -0.2867
    164  CB        44.9500   64.8680  141.6380 C.3   663  MET663      0.0387
    165  CG        45.4110   64.3780  140.2700 C.3   663  MET663      0.0595
    166  SD        44.3880   65.0310  138.9810 S.3   663  MET663     -0.1393
    167  CE        44.4780   66.7740  139.3410 C.3   663  MET663      0.0692
    168  N         43.3070   63.4530  146.2060 N.3   671  PHE671     -0.1241
    169  CA        42.4460   62.3980  145.6520 C.3   671  PHE671      0.1605
    170  C         43.0930   61.6780  144.4760 C.2   671  PHE671      0.2264
    171  O         43.9580   62.2170  143.7930 O.2   671  PHE671     -0.2867
    172  CB        41.0910   62.9250  145.1920 C.3   671  PHE671      0.0534
    173  CG        41.1830   63.8210  144.0300 C.ar  671  PHE671     -0.0203
    174  CD1       41.6730   65.1450  144.1880 C.ar  671  PHE671     -0.0042
    175  CD2       40.7770   63.4050  142.7690 C.ar  671  PHE671     -0.0042
    176  CE1       41.7580   66.0230  143.0910 C.ar  671  PHE671     -0.0003
    177  CE2       40.8470   64.2930  141.6940 C.ar  671  PHE671     -0.0003
    178  CZ        41.3460   65.6030  141.8440 C.ar  671  PHE671     -0.0000
    179  N         42.8910   59.7280  140.7160 N.3   673  ILE673     -0.1231
    180  CA        42.2610   59.4420  139.4430 C.3   673  ILE673      0.1692
    181  C         42.7500   58.1430  138.7890 C.2   673  ILE673      0.2592
    182  O         43.6060   57.4260  139.3170 O.2   673  ILE673     -0.2718
    183  CB        42.4980   60.6100  138.4980 C.3   673  ILE673      0.0266
    184  CG1       44.0240   60.7160  138.2050 C.3   673  ILE673      0.0019
    185  CG2       41.9180   61.8070  139.1010 C.3   673  ILE673      0.0020
    186  CD1       44.3910   61.5810  137.0210 C.3   673  ILE673      0.0001
    187  N         42.2190   57.8760  137.5920 N.am  674  ASP674     -0.1974
    188  CA        42.4860   56.7490  136.6980 C.3   674  ASP674      0.1709
    189  C         42.5590   55.3900  137.3850 C.2   674  ASP674      0.2293
    190  O         43.6400   54.9190  137.7380 O.2   674  ASP674     -0.2864
    191  CB        43.7740   56.9780  135.9060 C.3   674  ASP674      0.1436
    192  CG        43.7590   56.2550  134.5800 C.2   674  ASP674      0.3671
    193  OD1       43.1950   55.1260  134.5220 O.co2 674  ASP674     -0.2456
    194  OD2       44.2690   56.8280  133.5750 O.co2 674  ASP674     -0.2456
@<TRIPOS>BOND
     1    18    16   ar
     2    18    17   ar
     3    16    14   ar
     4    17    15   ar
     5    14    13   ar
     6    15    13   ar
     7    47    45    1
     8    13    12    1
     9    46    45    1
    10    45    44    1
    11    12     9    1
    12    22    21    2
    13    29    28    1
    14    29    30    2
    15    28    27    1
    16    28    31    1
    17    44    41    1
    18    33    34    1
    19    33    39    1
    20     9     8    1
    21     9    10    1
    22     8     3   am
    23    21    20    1
    24    11    10    2
    25     4     3    2
    26     3     2    1
    27     2     1    1
    28     2     5    1
    29    10    19   am
    30     6     5    1
    31    72    73    2
    32    72    71    1
    33    41    40    1
    34    41    42    1
    35    40    35   am
    36    31    32    1
    37    35    34    1
    38    35    36    2
    39    34    37    1
    40    79    80    1
    41    39    38    1
    42    19    20    1
    43     5     7    1
    44    20    23    1
    45    71    70    1
    46    71    74    1
    47    42    48   am
    48    42    43    2
    49    48    49    1
    50    51    50    2
    51    80    81    1
    52    80    83    1
    53    82    81    2
    54    37    38    1
    55    23    24    1
    56    86    84   ar
    57    50    49    1
    58    84    83    1
    59    84    85   ar
    60    74    75    1
    61    24    25    1
    62    49    52    1
    63    52    53    1
    64    75    76    1
    65    64    65    2
    66    64    63    1
    67    77    76    1
    68    77    78    1
    69    25    26    1
    70    53    54   ar
    71    53    55   ar
    72    54    56   ar
    73    63    62    1
    74    63    66    1
    75    68    66    1
    76    87    88    1
    77    92    93    1
    78    92    94    1
    79    92    91    1
    80    66    67    1
    81    55    58   ar
    82    55    57   ar
    83    56    57   ar
    84    91    88    1
    85    67    69    1
    86    58    60   ar
    87    88    89    1
    88    57    59   ar
    89   123   124    1
    90    89    90    2
    91    60    61   ar
    92   130   128    1
    93   128   127    1
    94   126   125    2
    95    59    61   ar
    96   194   192   ar
    97   124   127    1
    98   124   125    1
    99   127   129    1
   100   146   144    1
   101   125   131   am
   102   193   192   ar
   103   192   191    1
   104   101   100   ar
   105   144   145    1
   106   144   141    1
   107   131   132    1
   108   100   102   ar
   109   100    99    1
   110   140   141    1
   111   140   133   am
   112   191   188    1
   113   132   133    1
   114   132   135    1
   115   141   142    1
   116    99    96    1
   117   133   134    2
   118    95    96    1
   119   188   189    1
   120   188   187    1
   121   186   184    1
   122    96    97    1
   123   135   136    1
   124   189   190    2
   125   142   143    2
   126   142   147   am
   127   187   181   am
   128    97    98    2
   129   136   137    1
   130   184   183    1
   131   119   117   ar
   132   119   121   ar
   133   147   148    1
   134   183   185    1
   135   183   180    1
   136   122   121    1
   137   117   116   ar
   138   181   182    2
   139   181   180    1
   140   137   139   ar
   141   137   138   ar
   142   166   167    1
   143   166   165    1
   144   121   120   ar
   145   157   156    2
   146   150   149    2
   147   109   108    1
   148   180   179    1
   149   149   148    1
   150   148   151    1
   151   116   115    1
   152   116   118   ar
   153   114   113    2
   154   113   112    1
   155   165   164    1
   156   120   118   ar
   157   115   112    1
   158   156   155    1
   159   159   158    1
   160   108   107    1
   161   108   110    1
   162   151   153    1
   163   151   152    1
   164   154   155    1
   165   112   111    1
   166   107   104    1
   167   155   158    1
   168   164   161    1
   169   177   178   ar
   170   177   175   ar
   171   103   104    1
   172   178   176   ar
   173   104   105    1
   174   161   160    1
   175   161   162    1
   176   175   173   ar
   177   105   106    2
   178   176   174   ar
   179   171   170    2
   180   162   163    2
   181   173   174   ar
   182   173   172    1
   183   170   169    1
   184   172   169    1
   185   169   168    1
