@<TRIPOS>MOLECULE
tmp/6dh4B00.pdb
 113 106 0 0 0
SMALL
GASTEIGER

@<TRIPOS>ATOM
      1  N         72.7150   52.4180    3.2660 N.3     8  ARG8       -0.1245
      2  CA        73.3640   53.1560    4.3390 C.3     8  ARG8        0.1563
      3  C         74.4380   54.0690    3.7520 C.2     8  ARG8        0.2260
      4  O         75.2400   53.6190    2.9210 O.2     8  ARG8       -0.2867
      5  CB        73.9870   52.2000    5.3560 C.3     8  ARG8        0.0307
      6  CG        72.9830   51.5460    6.2960 C.3     8  ARG8        0.0489
      7  CD        73.6740   50.9270    7.5040 C.3     8  ARG8        0.2205
      8  NE        72.7210   50.4300    8.4920 N.pl3   8  ARG8       -0.0865
      9  CZ        73.0620   49.8860    9.6560 C.cat   8  ARG8        0.5346
     10  NH1       74.3390   49.7610    9.9880 N.pl3   8  ARG8        0.1354
     11  NH2       72.1250   49.4620   10.4920 N.pl3   8  ARG8        0.1354
     12  N         79.6170   55.5090    9.0570 N.3    23  LEU23      -0.1245
     13  CA        78.2560   55.8550    8.6700 C.3    23  LEU23       0.1561
     14  C         78.0290   57.3450    8.8910 C.2    23  LEU23       0.2260
     15  O         78.1830   57.8380   10.0130 O.2    23  LEU23      -0.2867
     16  CB        77.2500   55.0400    9.4820 C.3    23  LEU23       0.0270
     17  CG        75.7650   55.3050    9.2310 C.3    23  LEU23       0.0019
     18  CD1       75.3530   54.8210    7.8570 C.3    23  LEU23       0.0001
     19  CD2       74.9220   54.6360   10.3060 C.3    23  LEU23       0.0001
     20  N         75.8740   60.0860    9.8530 N.3    25  ASP25      -0.1239
     21  CA        74.7600   59.9520   10.7910 C.3    25  ASP25       0.1674
     22  C         74.3060   61.3460   11.2190 C.2    25  ASP25       0.2266
     23  O         74.8090   61.8980   12.2010 O.2    25  ASP25      -0.2867
     24  CB        75.1940   59.0990   11.9830 C.3    25  ASP25       0.1410
     25  CG        74.0400   58.7120   12.8820 C.2    25  ASP25       0.3668
     26  OD1       72.9330   59.2660   12.7200 O.co2  25  ASP25      -0.2456
     27  OD2       74.2500   57.8440   13.7530 O.co2  25  ASP25      -0.2456
     28  N         71.6990   62.1190   12.6590 N.3    27  GLY27      -0.1210
     29  CA        71.0460   62.0480   13.9460 C.3    27  GLY27       0.1956
     30  C         71.9810   61.9530   15.1260 C.2    27  GLY27       0.2612
     31  O         71.5190   61.8640   16.2680 O.2    27  GLY27      -0.2717
     32  N         73.2880   61.9580   14.8890 N.am   28  ALA28      -0.1965
     33  CA        74.2820   61.9020   15.9510 C.3    28  ALA28       0.1728
     34  C         74.8900   63.2860   16.1450 C.2    28  ALA28       0.2616
     35  O         75.4230   63.8710   15.1960 O.2    28  ALA28      -0.2715
     36  CB        75.3720   60.8860   15.6170 C.3    28  ALA28       0.0334
     37  N         74.8070   63.8070   17.3710 N.am   29  ASP29      -0.1957
     38  CA        75.5060   65.0480   17.6910 C.3    29  ASP29       0.1840
     39  C         77.0110   64.8720   17.5550 C.2    29  ASP29       0.2622
     40  O         77.7090   65.7630   17.0570 O.2    29  ASP29      -0.2715
     41  CB        75.1670   65.5000   19.1110 C.3    29  ASP29       0.1450
     42  CG        73.6880   65.7520   19.3120 C.2    29  ASP29       0.3671
     43  OD1       72.9380   65.7840   18.3150 O.co2  29  ASP29      -0.2456
     44  OD2       73.2770   65.9150   20.4790 O.co2  29  ASP29      -0.2456
     45  N         77.5240   63.7260   17.9900 N.am   30  ASP30      -0.1971
     46  CA        78.9500   63.4930   18.1200 C.3    30  ASP30       0.1709
     47  C         79.3720   62.3070   17.2640 C.2    30  ASP30       0.2293
     48  O         78.5470   61.5070   16.8140 O.2    30  ASP30      -0.2864
     49  CB        79.3240   63.2380   19.5850 C.3    30  ASP30       0.1436
     50  CG        78.8320   64.3350   20.5090 C.2    30  ASP30       0.3671
     51  OD1       79.1390   65.5150   20.2460 O.co2  30  ASP30      -0.2456
     52  OD2       78.1270   64.0190   21.4910 O.co2  30  ASP30      -0.2456
     53  N         81.3360   58.8220   16.9940 N.3    32  VAL32      -0.1245
     54  CA        81.6800   57.6960   17.8520 C.3    32  VAL32       0.1561
     55  C         82.2500   56.5910   16.9750 C.2    32  VAL32       0.2260
     56  O         81.6050   56.1630   16.0110 O.2    32  VAL32      -0.2867
     57  CB        80.4620   57.1850   18.6450 C.3    32  VAL32       0.0252
     58  CG1       80.8970   56.1770   19.6940 C.3    32  VAL32       0.0019
     59  CG2       79.7160   58.3470   19.2930 C.3    32  VAL32       0.0019
     60  N         78.1290   58.6990   26.7540 N.3    47  ILE47      -0.1231
     61  CA        77.1990   59.1100   25.7070 C.3    47  ILE47       0.1692
     62  C         76.0040   58.1710   25.7130 C.2    47  ILE47       0.2593
     63  O         76.1270   56.9760   26.0070 O.2    47  ILE47      -0.2718
     64  CB        77.8520   59.1240   24.3060 C.3    47  ILE47       0.0266
     65  CG1       78.6870   57.8590   24.0960 C.3    47  ILE47       0.0019
     66  CG2       78.6830   60.3770   24.1110 C.3    47  ILE47       0.0020
     67  CD1       78.8770   57.4960   22.6440 C.3    47  ILE47       0.0001
     68  N         74.8480   58.7140   25.3680 N.am   48  GLY48      -0.1942
     69  CA        73.6010   57.9670   25.3660 C.3    48  GLY48       0.2014
     70  C         73.0370   57.8970   23.9620 C.2    48  GLY48       0.2639
     71  O         73.0110   58.9000   23.2440 O.2    48  GLY48      -0.2714
     72  N         72.5990   56.7030   23.5740 N.am   49  GLY49      -0.1939
     73  CA        71.9060   56.4950   22.3200 C.3    49  GLY49       0.2014
     74  C         70.4990   55.9750   22.5430 C.2    49  GLY49       0.2638
     75  O         69.9130   56.2000   23.6070 O.2    49  GLY49      -0.2714
     76  N         69.9490   55.2600   21.5580 N.am   50  ILE50      -0.1977
     77  CA        68.5620   54.8130   21.6530 C.3    50  ILE50       0.1596
     78  C         68.3870   53.7670   22.7490 C.2    50  ILE50       0.2287
     79  O         67.3050   53.6550   23.3380 O.2    50  ILE50      -0.2864
     80  CB        68.0800   54.2840   20.2880 C.3    50  ILE50       0.0276
     81  CG1       66.5510   54.2350   20.2480 C.3    50  ILE50       0.0022
     82  CG2       68.6720   52.9080   19.9960 C.3    50  ILE50       0.0022
     83  CD1       65.9800   54.0400   18.8590 C.3    50  ILE50       0.0001
     84  N         80.4740   51.2970   20.2910 N.3    80  THR80      -0.1204
     85  CA        79.3550   51.6500   19.4320 C.3    80  THR80       0.1979
     86  C         79.0900   50.5340   18.4250 C.2    80  THR80       0.2460
     87  O         80.0220   49.8550   17.9850 O.2    80  THR80      -0.2732
     88  CB        79.6360   52.9560   18.6870 C.3    80  THR80       0.1783
     89  OG1       78.5360   53.2620   17.8230 O.3    80  THR80      -0.2211
     90  CG2       80.9140   52.8600   17.8510 C.3    80  THR80       0.0376
     91  N         77.8290   50.3040   18.0450 N.am   81  PRO81      -0.2717
     92  CA        77.5480   49.2320   17.0740 C.3    81  PRO81       0.1535
     93  C         78.2320   49.4260   15.7330 C.2    81  PRO81       0.2598
     94  O         78.4540   48.4380   15.0230 O.2    81  PRO81      -0.2715
     95  CB        76.0180   49.2710   16.9350 C.3    81  PRO81       0.0310
     96  CG        75.6060   50.6040   17.4530 C.3    81  PRO81       0.0237
     97  CD        76.5960   50.9540   18.5150 C.3    81  PRO81       0.0939
     98  N         78.5740   50.6600   15.3640 N.am   82  ILE82      -0.1978
     99  CA        79.2070   50.9370   14.0800 C.3    82  ILE82       0.1596
    100  C         79.8520   52.3110   14.1680 C.2    82  ILE82       0.2287
    101  O         79.4050   53.1730   14.9290 O.2    82  ILE82      -0.2864
    102  CB        78.1780   50.8590   12.9220 C.3    82  ILE82       0.0276
    103  CG1       78.8790   51.0090   11.5690 C.3    82  ILE82       0.0022
    104  CG2       77.0960   51.9280   13.0990 C.3    82  ILE82       0.0022
    105  CD1       77.9770   50.7800   10.3670 C.3    82  ILE82       0.0001
    106  N         80.2400   55.8980   13.4480 N.3    84  ILE84      -0.1245
    107  CA        79.2760   56.9070   13.0310 C.3    84  ILE84       0.1561
    108  C         79.9570   58.2670   13.0080 C.2    84  ILE84       0.2260
    109  O         80.6940   58.6200   13.9350 O.2    84  ILE84      -0.2867
    110  CB        78.0350   56.9290   13.9490 C.3    84  ILE84       0.0252
    111  CG1       78.4310   57.2140   15.4010 C.3    84  ILE84       0.0019
    112  CG2       77.2920   55.6040   13.8380 C.3    84  ILE84       0.0019
    113  CD1       77.2530   57.3630   16.3480 C.3    84  ILE84       0.0001
@<TRIPOS>BOND
     1     4     3    2
     2     1     2    1
     3     3     2    1
     4     2     5    1
     5     5     6    1
     6     6     7    1
     7     7     8    1
     8    18    17    1
     9     8     9    2
    10    13    14    1
    11    13    12    1
    12    13    16    1
    13    14    15    2
    14    17    16    1
    15    17    19    1
    16     9    10    1
    17     9    11    1
    18    20    21    1
    19   105   103    1
    20    21    22    1
    21    21    24    1
    22    22    23    2
    23   103   102    1
    24    24    25    1
    25    28    29    1
    26    26    25   ar
    27    25    27   ar
    28   102   104    1
    29   102    99    1
    30   108   107    1
    31   108   109    2
    32   107   106    1
    33   107   110    1
    34   112   110    1
    35    29    30    1
    36   110   111    1
    37    99   100    1
    38    99    98    1
    39   100   101    2
    40    32    30   am
    41    32    33    1
    42    94    93    2
    43    30    31    2
    44    35    34    2
    45    98    93   am
    46   111   113    1
    47    36    33    1
    48    93    92    1
    49    33    34    1
    50    56    55    2
    51    34    37   am
    52    48    47    2
    53    95    92    1
    54    95    96    1
    55    55    54    1
    56    53    54    1
    57    40    39    2
    58    92    91    1
    59    47    46    1
    60    37    38    1
    61    96    97    1
    62    39    38    1
    63    39    45   am
    64    38    41    1
    65    89    88    1
    66    90    88    1
    67    54    57    1
    68    87    86    2
    69    45    46    1
    70    91    86   am
    71    91    97    1
    72    46    49    1
    73    43    42   ar
    74    86    85    1
    75    57    59    1
    76    57    58    1
    77    88    85    1
    78    83    81    1
    79    41    42    1
    80    42    44   ar
    81    85    84    1
    82    49    50    1
    83    82    80    1
    84    51    50   ar
    85    81    80    1
    86    80    77    1
    87    50    52   ar
    88    76    77    1
    89    76    74   am
    90    77    78    1
    91    73    74    1
    92    73    72    1
    93    74    75    2
    94    67    65    1
    95    78    79    2
    96    71    70    2
    97    72    70   am
    98    70    69    1
    99    65    64    1
   100    66    64    1
   101    64    61    1
   102    69    68    1
   103    68    62   am
   104    61    62    1
   105    61    60    1
   106    62    63    2
