@<TRIPOS>MOLECULE
tmp/6dheU20.pdb
 99 97 0 0 0
SMALL
GASTEIGER

@<TRIPOS>ATOM
      1  N       -102.2030   25.2760  306.6370 N.3    10  TRP10      -0.1241
      2  CA      -100.9920   25.3920  307.4230 C.3    10  TRP10       0.1605
      3  C       -100.4440   24.0230  307.7810 C.2    10  TRP10       0.2264
      4  O        -99.2400   23.7840  307.6620 O.2    10  TRP10      -0.2867
      5  CB      -101.2410   26.1990  308.6820 C.3    10  TRP10       0.0550
      6  CG      -100.0040   26.2440  309.5030 C.ar   10  TRP10       0.0003
      7  CD1      -98.9110   27.0380  309.3080 C.ar   10  TRP10       0.0946
      8  CD2      -99.7270   25.4440  310.6440 C.ar   10  TRP10       0.0152
      9  NE1      -97.9740   26.7760  310.2650 N.ar   10  TRP10      -0.2442
     10  CE2      -98.4460   25.7970  311.0970 C.ar   10  TRP10       0.0810
     11  CE3     -100.4470   24.4610  311.3330 C.ar   10  TRP10       0.0012
     12  CZ2      -97.8650   25.2090  312.2050 C.ar   10  TRP10       0.0191
     13  CZ3      -99.8730   23.8730  312.4330 C.ar   10  TRP10       0.0001
     14  CH2      -98.5900   24.2550  312.8650 C.ar   10  TRP10       0.0015
     15  N        -93.4080   25.0700  305.6830 N.3    16  ASN16      -0.1225
     16  CA       -92.9620   25.0210  307.0670 C.3    16  ASN16       0.1785
     17  C        -91.5860   24.3730  307.1410 C.2    16  ASN16       0.2597
     18  O        -91.3390   23.3510  306.4920 O.2    16  ASN16      -0.2718
     19  CB       -93.9500   24.2390  307.9320 C.3    16  ASN16       0.1169
     20  CG       -95.1870   25.0280  308.3070 C.2    16  ASN16       0.2627
     21  OD1      -95.1190   26.2040  308.6040 O.2    16  ASN16      -0.2716
     22  ND2      -96.3290   24.3370  308.3600 N.am   16  ASN16      -0.0877
     23  N        -90.7070   24.9550  307.9670 N.am   17  ARG17      -0.1966
     24  CA       -89.3210   24.4860  308.0750 C.3    17  ARG17       0.1729
     25  C        -89.2520   23.0120  308.4020 C.2    17  ARG17       0.2616
     26  O        -88.3780   22.2770  307.8940 O.2    17  ARG17      -0.2715
     27  CB       -88.5640   25.2580  309.1540 C.3    17  ARG17       0.0348
     28  CG       -87.1390   24.7120  309.3960 C.3    17  ARG17       0.0492
     29  CD       -86.3390   24.7380  308.1150 C.3    17  ARG17       0.2205
     30  NE       -84.9530   24.3170  308.3350 N.pl3  17  ARG17      -0.0865
     31  CZ       -84.5500   23.0600  308.3450 C.cat  17  ARG17       0.5346
     32  NH1      -85.4050   22.0720  308.1300 N.pl3  17  ARG17       0.1354
     33  NH2      -83.2810   22.7850  308.5710 N.pl3  17  ARG17       0.1354
     34  N        -90.1220   22.5770  309.3060 N.am   18  LEU18      -0.1963
     35  CA       -90.4100   21.1710  309.5460 C.3    18  LEU18       0.1728
     36  C        -91.8270   20.8750  309.0750 C.2    18  LEU18       0.2616
     37  O        -92.7630   21.6270  309.3810 O.2    18  LEU18      -0.2715
     38  CB       -90.2610   20.8260  311.0260 C.3    18  LEU18       0.0311
     39  CG       -88.9090   20.3540  311.5850 C.3    18  LEU18       0.0022
     40  CD1      -87.8150   20.2910  310.5670 C.3    18  LEU18       0.0001
     41  CD2      -88.5060   21.2220  312.7230 C.3    18  LEU18       0.0001
     42  N        -91.9930   19.8050  308.3090 N.am   19  TYR19      -0.1960
     43  CA       -93.3310   19.5080  307.8270 C.3    19  TYR19       0.1771
     44  C        -94.1820   19.0280  309.0020 C.2    19  TYR19       0.2619
     45  O        -93.7420   18.2080  309.8060 O.2    19  TYR19      -0.2715
     46  CB       -93.2970   18.4590  306.7290 C.3    19  TYR19       0.0574
     47  CG       -94.6880   18.1100  306.2280 C.ar   19  TYR19      -0.0198
     48  CD1      -95.3900   18.9940  305.4340 C.ar   19  TYR19      -0.0009
     49  CD2      -95.2980   16.9150  306.5840 C.ar   19  TYR19      -0.0009
     50  CE1      -96.6670   18.7100  304.9870 C.ar   19  TYR19       0.0417
     51  CE2      -96.5900   16.6140  306.1530 C.ar   19  TYR19       0.0417
     52  CZ       -97.2620   17.5230  305.3500 C.ar   19  TYR19       0.1957
     53  OH       -98.5330   17.2920  304.9100 O.3    19  TYR19      -0.2866
     54  N        -95.4180   19.5180  309.0940 N.am   20  VAL20      -0.1977
     55  CA       -96.3170   19.0150  310.1370 C.3    20  VAL20       0.1596
     56  C        -97.1320   17.8600  309.5590 C.2    20  VAL20       0.2287
     57  O        -96.7740   16.6860  309.7430 O.2    20  VAL20      -0.2864
     58  CB       -97.1980   20.1410  310.7020 C.3    20  VAL20       0.0276
     59  CG1      -98.2120   19.6000  311.7180 C.3    20  VAL20       0.0022
     60  CG2      -96.3200   21.1710  311.3760 C.3    20  VAL20       0.0022
     61  N        -98.0560   12.7390  315.7860 N.3    27  MET27      -0.1230
     62  CA       -96.6440   12.4310  316.0580 C.3    27  MET27       0.1702
     63  C        -96.0400   13.3940  317.0700 C.2    27  MET27       0.2592
     64  O        -95.2720   12.9930  317.9450 O.2    27  MET27      -0.2718
     65  CB       -95.8090   12.4910  314.7760 C.3    27  MET27       0.0401
     66  CG       -94.3080   12.2400  314.9940 C.3    27  MET27       0.0596
     67  SD       -93.3180   12.5360  313.5400 S.3    27  MET27      -0.1393
     68  CE       -93.2150   14.3030  313.6800 C.3    27  MET27       0.0692
     69  N        -96.3320   14.6740  316.9370 N.am   28  ILE28      -0.1980
     70  CA       -95.6380   15.6690  317.7390 C.3    28  ILE28       0.1595
     71  C        -95.9640   15.5350  319.2220 C.2    28  ILE28       0.2287
     72  O        -95.0550   15.4980  320.0600 O.2    28  ILE28      -0.2864
     73  CB       -95.9520   17.0640  317.1820 C.3    28  ILE28       0.0276
     74  CG1      -95.0670   17.2870  315.9420 C.3    28  ILE28       0.0022
     75  CG2      -95.7910   18.1150  318.2720 C.3    28  ILE28       0.0022
     76  CD1      -95.3880   18.5260  315.1160 C.3    28  ILE28       0.0001
     77  N        -94.5170   11.9680  320.6300 N.3    31  LEU31      -0.1231
     78  CA       -93.0680   12.0290  320.7710 C.3    31  LEU31       0.1693
     79  C        -92.6340   12.9920  321.8740 C.2    31  LEU31       0.2591
     80  O        -91.7030   12.6860  322.6180 O.2    31  LEU31      -0.2718
     81  CB       -92.4460   12.4050  319.4360 C.3    31  LEU31       0.0284
     82  CG       -92.5550   11.3160  318.3650 C.3    31  LEU31       0.0019
     83  CD1      -91.6880   11.5860  317.1760 C.3    31  LEU31       0.0001
     84  CD2      -92.2620    9.9100  318.9360 C.3    31  LEU31       0.0001
     85  N        -93.3140   14.1300  322.0470 N.am   32  LEU32      -0.1980
     86  CA       -92.8990   15.0210  323.1280 C.3    32  LEU32       0.1596
     87  C        -93.1480   14.3960  324.4990 C.2    32  LEU32       0.2287
     88  O        -92.3140   14.4990  325.4090 O.2    32  LEU32      -0.2864
     89  CB       -93.6050   16.3690  323.0350 C.3    32  LEU32       0.0297
     90  CG       -92.9080   17.5580  322.3630 C.3    32  LEU32       0.0022
     91  CD1      -91.8550   17.0880  321.3910 C.3    32  LEU32       0.0001
     92  CD2      -93.8730   18.5120  321.6120 C.3    32  LEU32       0.0001
     93  N        -90.4910   11.6830  325.0790 N.3    35  THR35      -0.1218
     94  CA       -89.1550   12.2050  325.2930 C.3    35  THR35       0.1862
     95  C        -89.0400   12.8330  326.6610 C.2    35  THR35       0.2287
     96  O        -88.0570   12.6060  327.3740 O.2    35  THR35      -0.2866
     97  CB       -88.7810   13.2400  324.2340 C.3    35  THR35       0.1770
     98  OG1      -88.8820   12.6640  322.9270 O.3    35  THR35      -0.2211
     99  CG2      -87.3560   13.6500  324.4670 C.3    35  THR35       0.0375
@<TRIPOS>BOND
     1    53    52    1
     2    50    52   ar
     3    50    48   ar
     4    52    51   ar
     5    48    47   ar
     6    15    16    1
     7    51    49   ar
     8    47    49   ar
     9    47    46    1
    10    18    17    2
    11     1     2    1
    12    46    43    1
    13    16    17    1
    14    16    19    1
    15    17    23   am
    16     2     3    1
    17     2     5    1
    18     4     3    2
    19    43    42    1
    20    43    44    1
    21    26    25    2
    22    19    20    1
    23    23    24    1
    24    24    25    1
    25    24    27    1
    26    29    30    1
    27    29    28    1
    28    32    31    1
    29    20    22   am
    30    20    21    2
    31    42    36   am
    32    30    31    2
    33    31    33    1
    34    25    34   am
    35     5     6    1
    36    44    54   am
    37    44    45    2
    38    36    37    2
    39    36    35    1
    40    54    55    1
    41    27    28    1
    42    34    35    1
    43     7     6   ar
    44     7     9   ar
    45     6     8   ar
    46    35    38    1
    47    56    57    2
    48    56    55    1
    49    55    58    1
    50     9    10   ar
    51    40    39    1
    52     8    10   ar
    53     8    11   ar
    54    58    60    1
    55    58    59    1
    56    38    39    1
    57    10    12   ar
    58    11    13   ar
    59    39    41    1
    60    12    14   ar
    61    13    14   ar
    62    67    68    1
    63    67    66    1
    64    65    66    1
    65    65    62    1
    66    76    74    1
    67    61    62    1
    68    74    73    1
    69    62    63    1
    70    69    63   am
    71    69    70    1
    72    63    64    2
    73    83    82    1
    74    73    70    1
    75    73    75    1
    76    70    71    1
    77    82    84    1
    78    82    81    1
    79    71    72    2
    80    81    78    1
    81    77    78    1
    82    78    79    1
    83    91    90    1
    84    92    90    1
    85    79    85   am
    86    79    80    2
    87    85    86    1
    88    90    89    1
    89    98    97    1
    90    89    86    1
    91    86    87    1
    92    97    99    1
    93    97    94    1
    94    87    88    2
    95    93    94    1
    96    94    95    1
    97    95    96    2
