@<TRIPOS>MOLECULE
tmp/6dhgD07.pdb
 92 89 0 0 0
SMALL
GASTEIGER

@<TRIPOS>ATOM
      1  N        -70.4300   80.1980  338.6790 N.3    12  LYS12      -0.1245
      2  CA       -69.5650   79.6550  337.6450 C.3    12  LYS12       0.1561
      3  C        -68.5850   80.6860  337.1040 C.2    12  LYS12       0.2260
      4  O        -67.9370   80.4450  336.0770 O.2    12  LYS12      -0.2867
      5  CB       -70.4130   79.0530  336.5310 C.3    12  LYS12       0.0271
      6  CG       -70.9670   77.6460  336.8900 C.3    12  LYS12       0.0035
      7  CD       -72.1100   77.2930  335.9550 C.3    12  LYS12       0.0206
      8  CE       -72.6600   75.8710  336.0680 C.3    12  LYS12       0.1093
      9  NZ       -73.6180   75.5910  334.9260 N.3    12  LYS12      -0.1314
     10  N        -71.7590   75.0210  341.5150 N.3    21  TRP21      -0.1227
     11  CA       -72.7950   74.4260  342.3480 C.3    21  TRP21       0.1737
     12  C        -72.2320   73.4370  343.3660 C.2    21  TRP21       0.2596
     13  O        -72.7730   73.3030  344.4760 O.2    21  TRP21      -0.2718
     14  CB       -73.8040   73.7070  341.4620 C.3    21  TRP21       0.0564
     15  CG       -74.5760   74.6320  340.6400 C.ar   21  TRP21       0.0003
     16  CD1      -74.3410   74.9670  339.3340 C.ar   21  TRP21       0.0946
     17  CD2      -75.7180   75.3850  341.0580 C.ar   21  TRP21       0.0152
     18  NE1      -75.2800   75.8800  338.9130 N.ar   21  TRP21      -0.2442
     19  CE2      -76.1400   76.1460  339.9500 C.ar   21  TRP21       0.0810
     20  CE3      -76.4280   75.4820  342.2560 C.ar   21  TRP21       0.0012
     21  CZ2      -77.2440   77.0010  340.0050 C.ar   21  TRP21       0.0191
     22  CZ3      -77.5310   76.3460  342.3110 C.ar   21  TRP21       0.0001
     23  CH2      -77.9250   77.0860  341.1800 C.ar   21  TRP21       0.0015
     24  N        -71.1820   72.6870  342.9810 N.am   22  SER22      -0.1952
     25  CA       -70.5780   71.6820  343.8690 C.3    22  SER22       0.1924
     26  C        -69.8530   72.3170  345.0480 C.2    22  SER22       0.2314
     27  O        -69.7870   71.7100  346.1370 O.2    22  SER22      -0.2863
     28  CB       -69.6250   70.7820  343.0910 C.3    22  SER22       0.2116
     29  OG       -68.7900   71.5150  342.2040 O.3    22  SER22      -0.2180
     30  N        -70.9470   74.3230  346.9310 N.3    24  ILE24      -0.1231
     31  CA       -71.9260   74.5090  347.9920 C.3    24  ILE24       0.1692
     32  C        -71.9680   73.3170  348.9470 C.2    24  ILE24       0.2591
     33  O        -72.1990   73.4780  350.1550 O.2    24  ILE24      -0.2718
     34  CB       -73.2840   74.7670  347.3400 C.3    24  ILE24       0.0266
     35  CG1      -73.2940   76.1710  346.7510 C.3    24  ILE24       0.0019
     36  CG2      -74.4120   74.5880  348.3380 C.3    24  ILE24       0.0020
     37  CD1      -74.2670   76.2980  345.6590 C.3    24  ILE24       0.0001
     38  N        -71.8080   72.0970  348.4180 N.am   25  LEU25      -0.1980
     39  CA       -71.5810   70.9230  349.2650 C.3    25  LEU25       0.1596
     40  C        -70.1330   70.8280  349.7480 C.2    25  LEU25       0.2287
     41  O        -69.8850   70.5800  350.9410 O.2    25  LEU25      -0.2864
     42  CB       -71.9650   69.6640  348.4930 C.3    25  LEU25       0.0297
     43  CG       -71.7770   68.3480  349.1990 C.3    25  LEU25       0.0022
     44  CD1      -72.5810   68.3400  350.4790 C.3    25  LEU25       0.0001
     45  CD2      -72.2150   67.2010  348.2760 C.3    25  LEU25       0.0001
     46  N        -67.8340   65.8150  342.4380 N.3   116  LEU116     -0.1245
     47  CA       -68.7680   66.6010  341.6330 C.3   116  LEU116      0.1561
     48  C        -68.0880   67.8320  341.0920 C.2   116  LEU116      0.2260
     49  O        -68.2680   68.1760  339.9180 O.2   116  LEU116     -0.2867
     50  CB       -70.0150   66.9780  342.4430 C.3   116  LEU116      0.0270
     51  CG       -71.0120   65.8510  342.8300 C.3   116  LEU116      0.0019
     52  CD1      -71.9830   66.4190  343.7700 C.3   116  LEU116      0.0001
     53  CD2      -71.8140   65.2330  341.6750 C.3   116  LEU116      0.0001
     54  N        -66.3760   66.8550  338.1730 N.3   119  PHE119     -0.1227
     55  CA       -67.3580   66.7350  337.1060 C.3   119  PHE119      0.1736
     56  C        -67.7300   68.0970  336.5740 C.2   119  PHE119      0.2595
     57  O        -67.8510   68.2830  335.3580 O.2   119  PHE119     -0.2718
     58  CB       -68.6230   66.0070  337.5770 C.3   119  PHE119      0.0547
     59  CG       -68.5700   64.5500  337.3880 C.ar  119  PHE119     -0.0202
     60  CD1      -68.3530   64.0280  336.1370 C.ar  119  PHE119     -0.0042
     61  CD2      -68.6900   63.6960  338.4780 C.ar  119  PHE119     -0.0042
     62  CE1      -68.2750   62.6380  335.9650 C.ar  119  PHE119     -0.0003
     63  CE2      -68.6180   62.3430  338.3190 C.ar  119  PHE119     -0.0003
     64  CZ       -68.4080   61.8040  337.0810 C.ar  119  PHE119     -0.0000
     65  N        -67.9200   69.0590  337.4720 N.am  120  GLU120     -0.1979
     66  CA       -68.4160   70.3610  337.0500 C.3   120  GLU120      0.1602
     67  C        -67.3450   71.1060  336.2700 C.2   120  GLU120      0.2287
     68  O        -67.6250   71.6600  335.2020 O.2   120  GLU120     -0.2864
     69  CB       -68.8930   71.1490  338.2690 C.3   120  GLU120      0.0415
     70  CG       -69.4110   72.5350  338.0440 C.3   120  GLU120      0.1163
     71  CD       -70.1280   73.0680  339.3030 C.2   120  GLU120      0.3649
     72  OE1      -71.1760   73.7350  339.1620 O.co2 120  GLU120     -0.2457
     73  OE2      -69.6410   72.8040  340.4400 O.co2 120  GLU120     -0.2457
     74  N        -66.9460   69.5550  332.7090 N.3   123  ARG123     -0.1231
     75  CA       -67.9850   69.8880  331.7380 C.3   123  ARG123      0.1694
     76  C        -67.8400   71.3210  331.2400 C.2   123  ARG123      0.2591
     77  O        -67.9620   71.5880  330.0410 O.2   123  ARG123     -0.2718
     78  CB       -69.3710   69.6930  332.3520 C.3   123  ARG123      0.0321
     79  CG       -70.5080   69.9960  331.4190 C.3   123  ARG123      0.0489
     80  CD       -70.6990   68.9610  330.3260 C.3   123  ARG123      0.2205
     81  NE       -69.7750   69.1280  329.2120 N.pl3 123  ARG123     -0.0865
     82  CZ       -69.8030   68.4050  328.0910 C.cat 123  ARG123      0.5346
     83  NH1      -70.7120   67.4560  327.9070 N.pl3 123  ARG123      0.1354
     84  NH2      -68.9100   68.6270  327.1390 N.pl3 123  ARG123      0.1354
     85  N        -67.6000   72.2580  332.1540 N.am  124  LEU124     -0.1980
     86  CA       -67.5300   73.6570  331.7660 C.3   124  LEU124      0.1596
     87  C        -66.3220   73.9440  330.8910 C.2   124  LEU124      0.2287
     88  O        -66.3620   74.9040  330.1220 O.2   124  LEU124     -0.2864
     89  CB       -67.5530   74.5610  333.0130 C.3   124  LEU124      0.0297
     90  CG       -68.7650   74.2870  333.9280 C.3   124  LEU124      0.0022
     91  CD1      -68.6290   74.9450  335.2450 C.3   124  LEU124      0.0001
     92  CD2      -70.0930   74.7080  333.3510 C.3   124  LEU124      0.0001
@<TRIPOS>BOND
     1    84    82    1
     2    83    82    1
     3    82    81    2
     4    81    80    1
     5    77    76    2
     6    88    87    2
     7    80    79    1
     8    87    86    1
     9    76    75    1
    10    76    85   am
    11    79    78    1
    12    75    78    1
    13    75    74    1
    14    86    85    1
    15    86    89    1
    16    89    90    1
    17    92    90    1
    18    90    91    1
    19     9     8    1
    20    68    67    2
    21    57    56    2
    22     7     8    1
    23     7     6    1
    24    62    60   ar
    25    62    64   ar
    26     4     3    2
    27    60    59   ar
    28    67    66    1
    29     5     6    1
    30     5     2    1
    31    56    55    1
    32    56    65   am
    33    66    65    1
    34    66    69    1
    35    64    63   ar
    36     3     2    1
    37    55    58    1
    38    55    54    1
    39    59    58    1
    40    59    61   ar
    41     2     1    1
    42    70    69    1
    43    70    71    1
    44    63    61   ar
    45    18    16   ar
    46    18    19   ar
    47    72    71   ar
    48    71    73   ar
    49    16    15   ar
    50    49    48    2
    51    19    21   ar
    52    19    17   ar
    53    21    23   ar
    54    15    17   ar
    55    15    14    1
    56    17    20   ar
    57    48    47    1
    58    23    22   ar
    59    14    11    1
    60    10    11    1
    61    47    46    1
    62    47    50    1
    63    53    51    1
    64    29    28    1
    65    20    22   ar
    66    11    12    1
    67    50    51    1
    68    51    52    1
    69    24    12   am
    70    24    25    1
    71    28    25    1
    72    12    13    2
    73    25    26    1
    74    26    27    2
    75    37    35    1
    76    35    34    1
    77    30    31    1
    78    34    31    1
    79    34    36    1
    80    31    32    1
    81    45    43    1
    82    38    32   am
    83    38    39    1
    84    42    43    1
    85    42    39    1
    86    32    33    2
    87    43    44    1
    88    39    40    1
    89    40    41    2
