@<TRIPOS>MOLECULE
tmp/6dhgA10.pdb
 99 101 0 0 0
SMALL
GASTEIGER

@<TRIPOS>ATOM
      1  N        -54.0580   71.9440  331.7360 N.3   242  HIS242     -0.1241
      2  CA       -53.7430   72.9900  332.6970 C.3   242  HIS242      0.1621
      3  C        -55.0100   73.7590  333.0660 C.2   242  HIS242      0.2264
      4  O        -55.3330   73.9400  334.2460 O.2   242  HIS242     -0.2867
      5  CB       -52.6570   73.9010  332.1050 C.3   242  HIS242      0.0745
      6  CG       -52.3090   75.0740  332.9630 C.ar  242  HIS242      0.0817
      7  ND1      -51.6520   74.9530  334.1690 N.ar  242  HIS242     -0.2268
      8  CD2      -52.5350   76.3950  332.7900 C.ar  242  HIS242      0.1154
      9  CE1      -51.4740   76.1500  334.6930 C.ar  242  HIS242      0.1986
     10  NE2      -52.0010   77.0440  333.8760 N.ar  242  HIS242     -0.2212
     11  N        -59.6300   73.1760  339.0970 N.3   248  LEU248     -0.1231
     12  CA       -59.9390   72.2360  340.1600 C.3   248  LEU248      0.1693
     13  C        -59.2290   72.5890  341.4610 C.2   248  LEU248      0.2592
     14  O        -59.7320   72.2570  342.5330 O.2   248  LEU248     -0.2718
     15  CB       -59.5960   70.8140  339.6850 C.3   248  LEU248      0.0284
     16  CG       -59.7840   69.7080  340.7150 C.3   248  LEU248      0.0019
     17  CD1      -61.2250   69.4220  340.9970 C.3   248  LEU248      0.0001
     18  CD2      -59.1040   68.5180  340.2100 C.3   248  LEU248      0.0001
     19  N        -58.0560   73.2340  341.3970 N.am  249  ILE249     -0.1966
     20  CA       -57.3470   73.6740  342.6010 C.3   249  ILE249      0.1727
     21  C        -57.2810   75.1930  342.5960 C.2   249  ILE249      0.2616
     22  O        -58.2090   75.8480  343.0840 O.2   249  ILE249     -0.2715
     23  CB       -55.9380   73.0620  342.6940 C.3   249  ILE249      0.0290
     24  CG1      -56.0120   71.5290  342.5950 C.3   249  ILE249      0.0022
     25  CG2      -55.2220   73.5160  343.9850 C.3   249  ILE249      0.0023
     26  CD1      -56.7890   70.8690  343.6390 C.3   249  ILE249      0.0001
     27  N        -56.1540   75.7410  342.1070 N.am  250  PHE250     -0.1960
     28  CA       -56.0340   77.1140  341.6060 C.3   250  PHE250      0.1771
     29  C        -54.9050   77.1430  340.5770 C.2   250  PHE250      0.2619
     30  O        -54.0700   76.2380  340.5200 O.2   250  PHE250     -0.2715
     31  CB       -55.8040   78.1300  342.7310 C.3   250  PHE250      0.0574
     32  CG       -54.7130   77.7440  343.6950 C.ar  250  PHE250     -0.0200
     33  CD1      -55.0260   77.1290  344.9080 C.ar  250  PHE250     -0.0042
     34  CD2      -53.3610   77.9790  343.3720 C.ar  250  PHE250     -0.0042
     35  CE1      -54.0030   76.7590  345.8090 C.ar  250  PHE250     -0.0003
     36  CE2      -52.3320   77.6120  344.2520 C.ar  250  PHE250     -0.0003
     37  CZ       -52.6370   77.0100  345.4760 C.ar  250  PHE250     -0.0000
     38  N        -54.8960   78.2040  339.7600 N.am  251  GLN251     -0.1963
     39  CA       -54.1050   78.2250  338.5270 C.3   251  GLN251      0.1733
     40  C        -52.6470   77.8620  338.7680 C.2   251  GLN251      0.2616
     41  O        -52.0070   77.2230  337.9160 O.2   251  GLN251     -0.2715
     42  CB       -54.1940   79.6110  337.8560 C.3   251  GLN251      0.0408
     43  CG       -53.0510   79.9330  336.8260 C.3   251  GLN251      0.0908
     44  CD       -53.2100   81.2690  336.1020 C.2   251  GLN251      0.2608
     45  OE1      -53.8730   82.1840  336.5920 O.2   251  GLN251     -0.2717
     46  NE2      -52.5940   81.3820  334.9260 N.am  251  GLN251     -0.0878
     47  N        -52.0910   78.2910  339.8960 N.am  252  TYR252     -0.1960
     48  CA       -50.6460   78.2200  340.0690 C.3   252  TYR252      0.1771
     49  C        -50.1760   76.9390  340.7410 C.2   252  TYR252      0.2619
     50  O        -48.9620   76.7370  340.8450 O.2   252  TYR252     -0.2715
     51  CB       -50.1350   79.4420  340.8670 C.3   252  TYR252      0.0574
     52  CG       -50.4800   80.7570  340.2120 C.ar  252  TYR252     -0.0198
     53  CD1      -51.2810   81.6990  340.8530 C.ar  252  TYR252     -0.0009
     54  CD2      -50.0360   81.0380  338.9250 C.ar  252  TYR252     -0.0009
     55  CE1      -51.6130   82.9050  340.2200 C.ar  252  TYR252      0.0417
     56  CE2      -50.3690   82.2230  338.2860 C.ar  252  TYR252      0.0417
     57  CZ       -51.1480   83.1520  338.9270 C.ar  252  TYR252      0.1957
     58  OH       -51.4370   84.3210  338.2490 O.3   252  TYR252     -0.2866
     59  N        -51.0830   76.0940  341.2240 N.am  253  ALA253     -0.1963
     60  CA       -50.7170   74.7710  341.7100 C.3   253  ALA253      0.1728
     61  C        -50.6950   73.7280  340.6040 C.2   253  ALA253      0.2617
     62  O        -50.5390   72.5360  340.8950 O.2   253  ALA253     -0.2715
     63  CB       -51.6690   74.3170  342.8150 C.3   253  ALA253      0.0334
     64  N        -50.8130   74.1570  339.3460 N.am  254  SER254     -0.1936
     65  CA       -50.8630   73.2720  338.1940 C.3   254  SER254      0.2055
     66  C        -49.7640   73.6660  337.2190 C.2   254  SER254      0.2643
     67  O        -49.3860   74.8410  337.1230 O.2   254  SER254     -0.2714
     68  CB       -52.2490   73.3340  337.5090 C.3   254  SER254      0.2130
     69  OG       -52.2300   72.8360  336.1750 O.3   254  SER254     -0.2179
     70  N        -49.2560   72.6580  336.5120 N.am  255  PHE255     -0.1959
     71  CA       -48.1580   72.8080  335.5690 C.3   255  PHE255      0.1771
     72  C        -48.6320   73.2250  334.1850 C.2   255  PHE255      0.2619
     73  O        -49.5830   72.6690  333.6410 O.2   255  PHE255     -0.2715
     74  CB       -47.3850   71.4930  335.4140 C.3   255  PHE255      0.0574
     75  CG       -46.6030   71.0960  336.6040 C.ar  255  PHE255     -0.0200
     76  CD1      -45.3750   71.6480  336.8410 C.ar  255  PHE255     -0.0042
     77  CD2      -47.0830   70.1330  337.4680 C.ar  255  PHE255     -0.0042
     78  CE1      -44.6470   71.2800  337.9380 C.ar  255  PHE255     -0.0003
     79  CE2      -46.3490   69.7630  338.5600 C.ar  255  PHE255     -0.0003
     80  CZ       -45.1220   70.3440  338.7960 C.ar  255  PHE255     -0.0000
     81  N        -47.9140   74.1540  333.5840 N.am  256  ASN256     -0.1972
     82  CA       -48.1120   74.4490  332.1790 C.3   256  ASN256      0.1688
     83  C        -46.8970   74.0580  331.3600 C.2   256  ASN256      0.2292
     84  O        -46.9360   74.1940  330.1450 O.2   256  ASN256     -0.2864
     85  CB       -48.4500   75.9360  331.9880 C.3   256  ASN256      0.1181
     86  CG       -47.4060   76.8500  332.5970 C.2   256  ASN256      0.2629
     87  OD1      -46.1970   76.5910  332.5090 O.2   256  ASN256     -0.2716
     88  ND2      -47.8670   77.9280  333.2330 N.am  256  ASN256     -0.0877
     89  N        -40.9200   66.2480  337.7850 N.3   264  PHE264     -0.1241
     90  CA       -41.6160   66.0850  339.0450 C.3   264  PHE264      0.1605
     91  C        -42.0460   64.6360  339.2510 C.2   264  PHE264      0.2264
     92  O        -41.8200   64.0510  340.3150 O.2   264  PHE264     -0.2867
     93  CB       -42.8340   66.9990  339.0860 C.3   264  PHE264      0.0534
     94  CG       -43.5500   66.9330  340.3890 C.ar  264  PHE264     -0.0203
     95  CD1      -43.0740   67.6290  341.4790 C.ar  264  PHE264     -0.0042
     96  CD2      -44.6500   66.1270  340.5460 C.ar  264  PHE264     -0.0042
     97  CE1      -43.7310   67.5500  342.6970 C.ar  264  PHE264     -0.0003
     98  CE2      -45.2920   66.0350  341.7650 C.ar  264  PHE264     -0.0003
     99  CZ       -44.8290   66.7400  342.8360 C.ar  264  PHE264     -0.0000
@<TRIPOS>BOND
     1    84    83    2
     2    83    82    1
     3     1     2    1
     4    85    82    1
     5    85    86    1
     6     5     2    1
     7     5     6    1
     8    82    81    1
     9    87    86    2
    10    86    88   am
    11     2     3    1
    12     8     6   ar
    13     8    10   ar
    14     6     7   ar
    15     3     4    2
    16    81    72   am
    17    73    72    2
    18    10     9   ar
    19     7     9   ar
    20    72    71    1
    21    46    44   am
    22    74    71    1
    23    74    75    1
    24    71    70    1
    25    44    45    2
    26    44    43    1
    27    69    68    1
    28    70    66   am
    29    75    76   ar
    30    75    77   ar
    31    43    42    1
    32    76    78   ar
    33    67    66    2
    34    66    65    1
    35    77    79   ar
    36    68    65    1
    37    89    90    1
    38    42    39    1
    39    41    40    2
    40    78    80   ar
    41    65    64    1
    42    58    57    1
    43    56    54   ar
    44    56    57   ar
    45    39    40    1
    46    39    38    1
    47    79    80   ar
    48    40    47   am
    49    54    52   ar
    50    57    55   ar
    51    90    93    1
    52    90    91    1
    53    93    94    1
    54    11    12    1
    55    91    92    2
    56    64    61   am
    57    15    12    1
    58    15    16    1
    59    38    29   am
    60    47    48    1
    61    48    49    1
    62    48    51    1
    63    12    13    1
    64    18    16    1
    65    52    53   ar
    66    52    51    1
    67    55    53   ar
    68    94    96   ar
    69    94    95   ar
    70    30    29    2
    71    96    98   ar
    72    29    28    1
    73    61    62    2
    74    61    60    1
    75    16    17    1
    76    49    50    2
    77    49    59   am
    78    59    60    1
    79    19    13   am
    80    19    20    1
    81    13    14    2
    82    95    97   ar
    83    28    27    1
    84    28    31    1
    85    60    63    1
    86    98    99   ar
    87    27    21   am
    88    24    23    1
    89    24    26    1
    90    21    20    1
    91    21    22    2
    92    20    23    1
    93    23    25    1
    94    97    99   ar
    95    31    32    1
    96    34    32   ar
    97    34    36   ar
    98    32    33   ar
    99    36    37   ar
   100    33    35   ar
   101    37    35   ar
