@<TRIPOS>MOLECULE
tmp/6dhgA20.pdb
 86 79 0 0 0
SMALL
GASTEIGER

@<TRIPOS>ATOM
      1  N        -25.5270   38.9140  332.5100 N.3    28  ILE28      -0.1245
      2  CA       -26.1890   37.7380  331.9740 C.3    28  ILE28       0.1561
      3  C        -25.7680   36.4990  332.7040 C.2    28  ILE28       0.2260
      4  O        -26.6500   35.7330  333.1190 O.2    28  ILE28      -0.2867
      5  CB       -25.8650   37.6100  330.4370 C.3    28  ILE28       0.0252
      6  CG1      -26.8310   38.5080  329.7580 C.3    28  ILE28       0.0019
      7  CG2      -25.9880   36.1730  330.0250 C.3    28  ILE28       0.0019
      8  CD1      -26.3360   39.0200  328.4950 C.3    28  ILE28       0.0001
      9  N        -28.4880   34.5230  335.1780 N.3    32  LEU32      -0.1245
     10  CA       -28.9150   33.1570  334.9300 C.3    32  LEU32       0.1561
     11  C        -28.5600   32.2680  336.0950 C.2    32  LEU32       0.2260
     12  O        -29.2870   31.3140  336.3750 O.2    32  LEU32      -0.2867
     13  CB       -28.2980   32.5820  333.6520 C.3    32  LEU32       0.0270
     14  CG       -28.7440   33.2350  332.3410 C.3    32  LEU32       0.0019
     15  CD1      -27.8300   32.9510  331.2440 C.3    32  LEU32       0.0001
     16  CD2      -30.0660   32.7430  331.9410 C.3    32  LEU32       0.0001
     17  N        -31.5730   30.4130  337.7350 N.3    36  ILE36      -0.1245
     18  CA       -31.7030   28.9590  337.6860 C.3    36  ILE36       0.1561
     19  C        -31.6940   28.3850  339.0920 C.2    36  ILE36       0.2260
     20  O        -32.3890   27.4090  339.3730 O.2    36  ILE36      -0.2867
     21  CB       -30.6040   28.3170  336.8380 C.3    36  ILE36       0.0252
     22  CG1      -30.8590   28.5470  335.3550 C.3    36  ILE36       0.0019
     23  CG2      -30.5210   26.8140  337.1230 C.3    36  ILE36       0.0019
     24  CD1      -29.6230   28.4230  334.5270 C.3    36  ILE36       0.0001
     25  N        -34.9990   26.2120  341.0070 N.3    40  ILE40      -0.1245
     26  CA       -34.8530   24.8620  341.5470 C.3    40  ILE40       0.1561
     27  C        -35.0690   24.8390  343.0570 C.2    40  ILE40       0.2260
     28  O        -35.7330   23.9440  343.5820 O.2    40  ILE40      -0.2867
     29  CB       -33.4740   24.2710  341.2000 C.3    40  ILE40       0.0252
     30  CG1      -33.3310   24.0660  339.7130 C.3    40  ILE40       0.0019
     31  CG2      -33.3160   22.9340  341.9190 C.3    40  ILE40       0.0019
     32  CD1      -31.8920   23.8530  339.2890 C.3    40  ILE40       0.0001
     33  N        -37.7560   22.6270  344.8880 N.3    44  ALA44      -0.1245
     34  CA       -37.3010   21.3490  345.4440 C.3    44  ALA44       0.1562
     35  C        -36.2450   21.3690  346.5520 C.2    44  ALA44       0.2260
     36  O        -35.7720   20.3140  346.9180 O.2    44  ALA44      -0.2867
     37  CB       -36.8100   20.4820  344.3130 C.3    44  ALA44       0.0290
     38  N        -34.7130   20.9580  350.1830 N.3    46  PRO46      -0.2116
     39  CA       -35.1270   20.5120  351.5080 C.3    46  PRO46       0.1372
     40  C        -35.0840   21.6420  352.5180 C.2    46  PRO46       0.2244
     41  O        -34.5690   22.7360  352.2680 O.2    46  PRO46      -0.2868
     42  CB       -34.0880   19.4500  351.8400 C.3    46  PRO46       0.0268
     43  CG       -32.8580   20.0080  351.1990 C.3    46  PRO46       0.0207
     44  CD       -33.3520   20.4870  349.8770 C.3    46  PRO46       0.0892
     45  N        -41.9510   20.0830  349.4530 N.3    63  TYR63      -0.1241
     46  CA       -41.9670   19.8260  350.8920 C.3    63  TYR63       0.1605
     47  C        -43.1730   20.4430  351.6190 C.2    63  TYR63       0.2264
     48  O        -43.0820   20.7920  352.8110 O.2    63  TYR63      -0.2867
     49  CB       -40.6450   20.2930  351.5210 C.3    63  TYR63       0.0534
     50  CG       -39.5010   19.3110  351.2430 C.ar   63  TYR63      -0.0201
     51  CD1      -38.8050   19.3610  350.0590 C.ar   63  TYR63      -0.0009
     52  CD2      -39.1750   18.3190  352.1360 C.ar   63  TYR63      -0.0009
     53  CE1      -37.7860   18.4630  349.7860 C.ar   63  TYR63       0.0417
     54  CE2      -38.1690   17.4120  351.8530 C.ar   63  TYR63       0.0417
     55  CZ       -37.4730   17.5030  350.6800 C.ar   63  TYR63       0.1957
     56  OH       -36.4520   16.6390  350.3730 O.3    63  TYR63      -0.2866
     57  N        -20.5310   18.5190  351.5960 N.3    91  SER91      -0.1202
     58  CA       -21.3640   17.9190  350.5770 C.3    91  SER91       0.2020
     59  C        -22.5300   18.8430  350.2700 C.2    91  SER91       0.2619
     60  O        -22.9110   19.6940  351.0820 O.2    91  SER91      -0.2717
     61  CB       -21.8610   16.5430  351.0330 C.3    91  SER91       0.2103
     62  OG       -22.7270   16.6540  352.1450 O.3    91  SER91      -0.2182
     63  N        -23.1070   18.6370  349.0870 N.am   92  LEU92      -0.1965
     64  CA       -24.3160   19.3550  348.7210 C.3    92  LEU92       0.1728
     65  C        -25.3840   19.1990  349.7970 C.2    92  LEU92       0.2616
     66  O        -26.1440   20.1330  350.0590 O.2    92  LEU92      -0.2715
     67  CB       -24.8340   18.8540  347.3740 C.3    92  LEU92       0.0311
     68  CG       -24.9330   19.7560  346.1340 C.3    92  LEU92       0.0022
     69  CD1      -23.9860   20.9600  346.1310 C.3    92  LEU92       0.0001
     70  CD2      -24.7050   18.9080  344.8860 C.3    92  LEU92       0.0001
     71  N        -25.4600   18.0310  350.4390 N.am   93  ASP93      -0.1971
     72  CA       -26.4970   17.8150  351.4430 C.3    93  ASP93       0.1709
     73  C        -26.3290   18.7600  352.6260 C.2    93  ASP93       0.2293
     74  O        -27.3040   19.3730  353.0930 O.2    93  ASP93      -0.2864
     75  CB       -26.4520   16.3680  351.8820 C.3    93  ASP93       0.1436
     76  CG       -26.6480   15.4430  350.7320 C.2    93  ASP93       0.3671
     77  OD1      -27.8050   15.0610  350.4930 O.co2  93  ASP93      -0.2456
     78  OD2      -25.6590   15.1460  350.0250 O.co2  93  ASP93      -0.2456
     79  N        -27.2530   22.3500  351.5610 N.3    96  LEU96      -0.1245
     80  CA       -28.6910   22.5800  351.4940 C.3    96  LEU96       0.1561
     81  C        -29.3180   22.7730  352.8870 C.2    96  LEU96       0.2260
     82  O        -30.1310   23.6810  353.0840 O.2    96  LEU96      -0.2867
     83  CB       -29.3160   21.4090  350.7320 C.3    96  LEU96       0.0270
     84  CG       -28.8960   21.3400  349.2440 C.3    96  LEU96       0.0019
     85  CD1      -29.2190   20.0060  348.6080 C.3    96  LEU96       0.0001
     86  CD2      -29.5170   22.4570  348.4480 C.3    96  LEU96       0.0001
@<TRIPOS>BOND
     1     8     6    1
     2     6     5    1
     3     7     5    1
     4     5     2    1
     5    15    14    1
     6    16    14    1
     7     2     1    1
     8     2     3    1
     9    14    13    1
    10     3     4    2
    11    13    10    1
    12    24    22    1
    13    10     9    1
    14    10    11    1
    15    22    21    1
    16    11    12    2
    17    21    23    1
    18    21    18    1
    19    18    17    1
    20    18    19    1
    21    19    20    2
    22    32    30    1
    23    30    29    1
    24    25    26    1
    25    29    26    1
    26    29    31    1
    27    26    27    1
    28    27    28    2
    29    37    34    1
    30    70    68    1
    31    33    34    1
    32    34    35    1
    33    69    68    1
    34    68    67    1
    35    35    36    2
    36    67    64    1
    37    86    84    1
    38    85    84    1
    39    64    63    1
    40    64    65    1
    41    63    59   am
    42    84    83    1
    43    45    46    1
    44    53    51   ar
    45    53    55   ar
    46    65    66    2
    47    65    71   am
    48    44    38    1
    49    44    43    1
    50    78    76   ar
    51    51    50   ar
    52    38    39    1
    53    59    58    1
    54    59    60    2
    55    56    55    1
    56    71    72    1
    57    77    76   ar
    58    58    61    1
    59    58    57    1
    60    55    54   ar
    61    83    80    1
    62    76    75    1
    63    46    49    1
    64    46    47    1
    65    61    62    1
    66    43    42    1
    67    50    49    1
    68    50    52   ar
    69    72    75    1
    70    72    73    1
    71    80    79    1
    72    80    81    1
    73    39    42    1
    74    39    40    1
    75    47    48    2
    76    54    52   ar
    77    41    40    2
    78    73    74    2
    79    81    82    2
