@<TRIPOS>MOLECULE
tmp/6dhgA19.pdb
 99 97 0 0 0
SMALL
GASTEIGER

@<TRIPOS>ATOM
      1  N        -19.7800   43.5540  318.2940 N.3    10  TRP10      -0.1241
      2  CA       -20.9590   42.7820  318.6140 C.3    10  TRP10       0.1605
      3  C        -21.4130   43.0660  320.0480 C.2    10  TRP10       0.2264
      4  O        -22.6180   43.2320  320.2900 O.2    10  TRP10      -0.2867
      5  CB       -20.6910   41.2800  318.3660 C.3    10  TRP10       0.0550
      6  CG       -21.8890   40.4860  318.7140 C.ar   10  TRP10       0.0003
      7  CD1      -22.9850   40.2620  317.9330 C.ar   10  TRP10       0.0946
      8  CD2      -22.1550   39.8710  319.9690 C.ar   10  TRP10       0.0152
      9  NE1      -23.9150   39.5430  318.6260 N.ar   10  TRP10      -0.2442
     10  CE2      -23.4410   39.3040  319.8860 C.ar   10  TRP10       0.0810
     11  CE3      -21.4440   39.7730  321.1660 C.ar   10  TRP10       0.0012
     12  CZ2      -24.0200   38.6220  320.9360 C.ar   10  TRP10       0.0191
     13  CZ3      -22.0090   39.0910  322.2140 C.ar   10  TRP10       0.0001
     14  CH2      -23.3000   38.5240  322.0910 C.ar   10  TRP10       0.0015
     15  N        -28.3600   44.4060  318.2170 N.3    16  ASN16      -0.1225
     16  CA       -28.9010   43.2370  318.9010 C.3    16  ASN16       0.1785
     17  C        -30.2760   43.5280  319.4790 C.2    16  ASN16       0.2597
     18  O        -30.4790   44.5770  320.1170 O.2    16  ASN16      -0.2718
     19  CB       -27.9630   42.8120  320.0100 C.3    16  ASN16       0.1169
     20  CG       -26.6710   42.2630  319.4870 C.2    16  ASN16       0.2627
     21  OD1      -26.6360   41.5580  318.4700 O.2    16  ASN16      -0.2716
     22  ND2      -25.5880   42.5860  320.1800 N.am   16  ASN16      -0.0877
     23  N        -31.2200   42.5900  319.2510 N.am   17  ARG17      -0.1966
     24  CA       -32.5950   42.7060  319.7740 C.3    17  ARG17       0.1729
     25  C        -32.6020   43.0740  321.2420 C.2    17  ARG17       0.2616
     26  O        -33.3670   43.9260  321.6830 O.2    17  ARG17      -0.2715
     27  CB       -33.3700   41.3980  319.6080 C.3    17  ARG17       0.0348
     28  CG       -34.8020   41.4510  320.1700 C.3    17  ARG17       0.0492
     29  CD       -35.6250   42.5100  319.5310 C.3    17  ARG17       0.2205
     30  NE       -36.9870   42.4840  320.0290 N.pl3  17  ARG17      -0.0865
     31  CZ       -37.3850   43.1020  321.1280 C.cat  17  ARG17       0.5346
     32  NH1      -36.5170   43.7890  321.8770 N.pl3  17  ARG17       0.1354
     33  NH2      -38.6390   43.0100  321.4810 N.pl3  17  ARG17       0.1354
     34  N        -31.7730   42.4170  322.0200 N.am   18  LEU18      -0.1963
     35  CA       -31.4890   42.8790  323.3620 C.3    18  LEU18       0.1728
     36  C        -30.0340   43.3320  323.4030 C.2    18  LEU18       0.2616
     37  O        -29.1550   42.6350  322.8920 O.2    18  LEU18      -0.2715
     38  CB       -31.7590   41.7720  324.3750 C.3    18  LEU18       0.0311
     39  CG       -33.1660   41.2250  324.4910 C.3    18  LEU18       0.0022
     40  CD1      -33.1650   39.8890  325.2430 C.3    18  LEU18       0.0001
     41  CD2      -34.0130   42.2180  325.1990 C.3    18  LEU18       0.0001
     42  N        -29.7860   44.4960  324.0060 N.am   19  TYR19      -0.1960
     43  CA       -28.4280   45.0220  324.1080 C.3    19  TYR19       0.1771
     44  C        -27.6200   44.2680  325.1420 C.2    19  TYR19       0.2619
     45  O        -28.0840   44.0370  326.2640 O.2    19  TYR19      -0.2715
     46  CB       -28.4430   46.4880  324.5060 C.3    19  TYR19       0.0574
     47  CG       -27.0940   47.1090  324.5640 C.ar   19  TYR19      -0.0198
     48  CD1      -26.4180   47.3960  323.4000 C.ar   19  TYR19      -0.0009
     49  CD2      -26.4960   47.4210  325.7930 C.ar   19  TYR19      -0.0009
     50  CE1      -25.2080   47.9640  323.4380 C.ar   19  TYR19       0.0417
     51  CE2      -25.3000   47.9760  325.8460 C.ar   19  TYR19       0.0417
     52  CZ       -24.6420   48.2630  324.6470 C.ar   19  TYR19       0.1957
     53  OH       -23.3900   48.8450  324.5970 O.3    19  TYR19      -0.2866
     54  N        -26.3920   43.9240  324.7730 N.am   20  VAL20      -0.1977
     55  CA       -25.4310   43.3250  325.6870 C.3    20  VAL20       0.1596
     56  C        -24.6180   44.3940  326.4180 C.2    20  VAL20       0.2287
     57  O        -24.9350   44.7430  327.5600 O.2    20  VAL20      -0.2864
     58  CB       -24.5190   42.3650  324.9110 C.3    20  VAL20       0.0276
     59  CG1      -23.5620   41.6180  325.8320 C.3    20  VAL20       0.0022
     60  CG2      -25.3650   41.4340  324.1490 C.3    20  VAL20       0.0022
     61  N        -23.7020   40.6990  333.7710 N.3    27  MET27      -0.1230
     62  CA       -25.0800   40.5300  334.2570 C.3    27  MET27       0.1702
     63  C        -25.7190   39.2290  333.7740 C.2    27  MET27       0.2592
     64  O        -26.3860   38.5120  334.5360 O.2    27  MET27      -0.2718
     65  CB       -25.9100   41.7290  333.7870 C.3    27  MET27       0.0401
     66  CG       -27.4740   41.6940  334.0180 C.3    27  MET27       0.0596
     67  SD       -28.3590   42.9460  332.9770 S.3    27  MET27      -0.1393
     68  CE       -28.5230   42.0870  331.4720 C.3    27  MET27       0.0692
     69  N        -25.5270   38.9140  332.5100 N.am   28  ILE28      -0.1980
     70  CA       -26.1890   37.7380  331.9740 C.3    28  ILE28       0.1595
     71  C        -25.7680   36.4990  332.7040 C.2    28  ILE28       0.2287
     72  O        -26.6500   35.7330  333.1190 O.2    28  ILE28      -0.2864
     73  CB       -25.8650   37.6100  330.4370 C.3    28  ILE28       0.0276
     74  CG1      -26.8310   38.5080  329.7580 C.3    28  ILE28       0.0022
     75  CG2      -25.9880   36.1730  330.0250 C.3    28  ILE28       0.0022
     76  CD1      -26.3360   39.0200  328.4950 C.3    28  ILE28       0.0001
     77  N        -27.2080   36.6860  336.3940 N.3    31  LEU31      -0.1231
     78  CA       -28.6610   36.5980  336.4870 C.3    31  LEU31       0.1693
     79  C        -29.1700   35.2280  336.0740 C.2    31  LEU31       0.2591
     80  O        -30.2010   34.7990  336.5700 O.2    31  LEU31      -0.2718
     81  CB       -29.3610   37.6630  335.6280 C.3    31  LEU31       0.0284
     82  CG       -29.2360   39.1120  336.1300 C.3    31  LEU31       0.0019
     83  CD1      -30.2360   39.9530  335.3890 C.3    31  LEU31       0.0001
     84  CD2      -29.4450   39.2480  337.5810 C.3    31  LEU31       0.0001
     85  N        -28.4880   34.5230  335.1780 N.am   32  LEU32      -0.1980
     86  CA       -28.9150   33.1570  334.9300 C.3    32  LEU32       0.1596
     87  C        -28.5600   32.2680  336.0950 C.2    32  LEU32       0.2287
     88  O        -29.2870   31.3140  336.3750 O.2    32  LEU32      -0.2864
     89  CB       -28.2980   32.5820  333.6520 C.3    32  LEU32       0.0297
     90  CG       -28.7440   33.2350  332.3410 C.3    32  LEU32       0.0022
     91  CD1      -27.8300   32.9510  331.2440 C.3    32  LEU32       0.0001
     92  CD2      -30.0660   32.7430  331.9410 C.3    32  LEU32       0.0001
     93  N        -31.1060   33.0340  338.7810 N.3    35  THR35      -0.1218
     94  CA       -32.4240   32.6270  338.3660 C.3    35  THR35       0.1862
     95  C        -32.5480   31.1130  338.3370 C.2    35  THR35       0.2287
     96  O        -33.5400   30.5600  338.8390 O.2    35  THR35      -0.2866
     97  CB       -32.7650   33.2160  337.0000 C.3    35  THR35       0.1770
     98  OG1      -32.8020   34.6390  337.1030 O.3    35  THR35      -0.2211
     99  CG2      -34.1360   32.6790  336.5230 C.3    35  THR35       0.0375
@<TRIPOS>BOND
     1     7     9   ar
     2     7     6   ar
     3    15    16    1
     4     1     2    1
     5     5     2    1
     6     5     6    1
     7    21    20    2
     8     2     3    1
     9     9    10   ar
    10     6     8   ar
    11    16    17    1
    12    16    19    1
    13    23    17   am
    14    23    24    1
    15    17    18    2
    16    20    19    1
    17    20    22   am
    18    29    30    1
    19    29    28    1
    20    27    24    1
    21    27    28    1
    22    24    25    1
    23    10     8   ar
    24    10    12   ar
    25     8    11   ar
    26    30    31    2
    27     3     4    2
    28    12    14   ar
    29    31    33    1
    30    31    32    1
    31    11    13   ar
    32    25    26    2
    33    25    34   am
    34    34    35    1
    35    14    13   ar
    36    37    36    2
    37    35    36    1
    38    35    38    1
    39    48    50   ar
    40    48    47   ar
    41    36    42   am
    42    50    52   ar
    43    42    43    1
    44    43    46    1
    45    43    44    1
    46    60    58    1
    47    38    39    1
    48    39    41    1
    49    39    40    1
    50    46    47    1
    51    47    49   ar
    52    53    52    1
    53    52    51   ar
    54    54    44   am
    55    54    55    1
    56    58    55    1
    57    58    59    1
    58    44    45    2
    59    55    56    1
    60    49    51   ar
    61    56    57    2
    62    76    74    1
    63    74    73    1
    64    75    73    1
    65    73    70    1
    66    91    90    1
    67    68    67    1
    68    92    90    1
    69    70    69    1
    70    70    71    1
    71    90    89    1
    72    69    63   am
    73    71    72    2
    74    67    66    1
    75    89    86    1
    76    61    62    1
    77    63    62    1
    78    63    64    2
    79    65    66    1
    80    65    62    1
    81    86    85    1
    82    86    87    1
    83    85    79   am
    84    83    82    1
    85    81    82    1
    86    81    78    1
    87    79    78    1
    88    79    80    2
    89    87    88    2
    90    82    84    1
    91    77    78    1
    92    99    97    1
    93    97    98    1
    94    97    94    1
    95    95    94    1
    96    95    96    2
    97    94    93    1
