@<TRIPOS>MOLECULE
tmp/6dhhW10.pdb
 92 89 0 0 0
SMALL
GASTEIGER

@<TRIPOS>ATOM
      1  N       -109.4230  -23.6090  297.6220 N.3    39  VAL39      -0.1245
      2  CA      -110.2630  -24.7740  297.8730 C.3    39  VAL39       0.1561
      3  C       -109.4350  -26.0580  297.7110 C.2    39  VAL39       0.2260
      4  O       -109.5290  -26.9790  298.5320 O.2    39  VAL39      -0.2867
      5  CB      -111.5000  -24.7100  296.9420 C.3    39  VAL39       0.0252
      6  CG1     -112.4110  -25.8390  297.1560 C.3    39  VAL39       0.0019
      7  CG2     -112.2760  -23.4400  297.1870 C.3    39  VAL39       0.0019
      8  N       -118.6680  -31.9320  314.2150 N.3    75  TRP75      -0.1241
      9  CA      -118.6520  -33.1720  313.4600 C.3    75  TRP75       0.1605
     10  C       -117.4880  -34.0580  313.8820 C.2    75  TRP75       0.2264
     11  O       -116.3310  -33.6280  313.8570 O.2    75  TRP75      -0.2867
     12  CB      -118.4880  -32.9130  311.9740 C.3    75  TRP75       0.0550
     13  CG      -119.6540  -32.4660  311.2170 C.ar   75  TRP75       0.0003
     14  CD1     -120.8120  -33.1390  311.0250 C.ar   75  TRP75       0.0946
     15  CD2     -119.7500  -31.2680  310.4520 C.ar   75  TRP75       0.0152
     16  NE1     -121.6440  -32.4220  310.2060 N.ar   75  TRP75      -0.2442
     17  CE2     -121.0120  -31.2650  309.8410 C.ar   75  TRP75       0.0810
     18  CE3     -118.8990  -30.1860  310.2440 C.ar   75  TRP75       0.0012
     19  CZ2     -121.4420  -30.2210  309.0380 C.ar   75  TRP75       0.0191
     20  CZ3     -119.3210  -29.1580  309.4580 C.ar   75  TRP75       0.0001
     21  CH2     -120.5800  -29.1770  308.8520 C.ar   75  TRP75       0.0015
     22  N       -115.8880  -40.6540  314.9950 N.3    85  ASP85      -0.1239
     23  CA      -116.2030  -41.0240  313.6150 C.3    85  ASP85       0.1674
     24  C       -115.3700  -40.1570  312.6800 C.2    85  ASP85       0.2266
     25  O       -115.5730  -38.9420  312.6180 O.2    85  ASP85      -0.2867
     26  CB      -117.7140  -40.8730  313.3580 C.3    85  ASP85       0.1410
     27  CG      -118.1370  -41.0860  311.9010 C.2    85  ASP85       0.3668
     28  OD1     -117.3630  -41.4820  310.9850 O.co2  85  ASP85      -0.2456
     29  OD2     -119.3310  -40.8370  311.6900 O.co2  85  ASP85      -0.2456
     30  N       -115.4200  -40.2620  309.4460 N.3    87  PHE87      -0.1228
     31  CA      -115.9430  -40.1090  308.0940 C.3    87  PHE87       0.1721
     32  C       -116.2490  -38.6540  307.7230 C.2    87  PHE87       0.2437
     33  O       -115.9600  -38.2610  306.5780 O.2    87  PHE87      -0.2733
     34  CB      -117.1850  -40.9880  307.8800 C.3    87  PHE87       0.0547
     35  CG      -117.6500  -40.9530  306.4690 C.ar   87  PHE87      -0.0202
     36  CD1     -117.0100  -41.7150  305.5160 C.ar   87  PHE87      -0.0042
     37  CD2     -118.6490  -40.0810  306.0700 C.ar   87  PHE87      -0.0042
     38  CE1     -117.3980  -41.6590  304.1980 C.ar   87  PHE87      -0.0003
     39  CE2     -119.0250  -40.0250  304.7620 C.ar   87  PHE87      -0.0003
     40  CZ      -118.4090  -40.8210  303.8270 C.ar   87  PHE87      -0.0000
     41  N       -116.8310  -37.8310  308.6020 N.am   88  PRO88      -0.2729
     42  CA      -117.0860  -36.4330  308.2330 C.3    88  PRO88       0.1401
     43  C       -115.8550  -35.6670  307.7780 C.2    88  PRO88       0.2269
     44  O       -115.9870  -34.8020  306.9050 O.2    88  PRO88      -0.2865
     45  CB      -117.6530  -35.8360  309.5230 C.3    88  PRO88       0.0296
     46  CG      -118.1000  -36.9970  310.3520 C.3    88  PRO88       0.0237
     47  CD      -117.2210  -38.1260  309.9920 C.3    88  PRO88       0.0939
     48  N       -115.2880  -36.4570  304.1770 N.3    91  VAL91      -0.1231
     49  CA      -116.2570  -35.7660  303.3410 C.3    91  VAL91       0.1692
     50  C       -115.7890  -34.3500  303.0690 C.2    91  VAL91       0.2591
     51  O       -115.6720  -33.9220  301.9160 O.2    91  VAL91      -0.2718
     52  CB      -117.6420  -35.7540  304.0140 C.3    91  VAL91       0.0266
     53  CG1     -118.5890  -34.8510  303.2670 C.3    91  VAL91       0.0020
     54  CG2     -118.1900  -37.1620  304.1360 C.3    91  VAL91       0.0020
     55  N       -115.5860  -33.5860  304.1450 N.am   92  VAL92      -0.1980
     56  CA      -115.1340  -32.2080  304.0160 C.3    92  VAL92       0.1595
     57  C       -113.9790  -32.1540  303.0300 C.2    92  VAL92       0.2287
     58  O       -113.9920  -31.3720  302.0690 O.2    92  VAL92      -0.2864
     59  CB      -114.7460  -31.6440  305.3940 C.3    92  VAL92       0.0276
     60  CG1     -114.2350  -30.2180  305.2840 C.3    92  VAL92       0.0022
     61  CG2     -115.9350  -31.6610  306.3180 C.3    92  VAL92       0.0022
     62  N       -115.0600  -33.0960  299.0930 N.3    95  VAL95      -0.1231
     63  CA      -115.9220  -32.1340  298.4340 C.3    95  VAL95       0.1692
     64  C       -115.1040  -30.9330  297.9930 C.2    95  VAL95       0.2592
     65  O       -115.1340  -30.5400  296.8150 O.2    95  VAL95      -0.2718
     66  CB      -117.0900  -31.7370  299.3580 C.3    95  VAL95       0.0266
     67  CG1     -118.0360  -30.7590  298.6540 C.3    95  VAL95       0.0020
     68  CG2     -117.8170  -32.9730  299.8030 C.3    95  VAL95       0.0020
     69  N       -114.3360  -30.3520  298.9300 N.am   96  HIS96      -0.1976
     70  CA      -113.4710  -29.2170  298.6080 C.3    96  HIS96       0.1656
     71  C       -112.5700  -29.5370  297.4210 C.2    96  HIS96       0.2291
     72  O       -112.5880  -28.8250  296.4130 O.2    96  HIS96      -0.2864
     73  CB      -112.6620  -28.8190  299.8500 C.3    96  HIS96       0.0771
     74  CG      -113.3970  -27.8810  300.7740 C.ar   96  HIS96       0.0820
     75  ND1     -113.9980  -28.3020  301.9430 N.ar   96  HIS96      -0.2267
     76  CD2     -113.6340  -26.5450  300.6900 C.ar   96  HIS96       0.1154
     77  CE1     -114.5610  -27.2630  302.5410 C.ar   96  HIS96       0.1986
     78  NE2     -114.3550  -26.1830  301.8020 N.ar   96  HIS96      -0.2212
     79  N       -114.5640  -29.9420  294.3090 N.3    99  SER99      -0.1217
     80  CA      -114.9910  -28.5860  293.9860 C.3    99  SER99       0.1889
     81  C       -113.8670  -27.7780  293.3460 C.2    99  SER99       0.2288
     82  O       -114.1030  -26.9980  292.4100 O.2    99  SER99      -0.2866
     83  CB      -115.5060  -27.8980  295.2510 C.3    99  SER99       0.2089
     84  OG      -116.8980  -28.1230  295.4470 O.3    99  SER99      -0.2183
     85  N       -113.8490  -24.9350  289.9150 N.3   103  LEU103     -0.1245
     86  CA      -113.1640  -23.6390  289.9890 C.3   103  LEU103      0.1561
     87  C       -111.9750  -23.5810  289.0360 C.2   103  LEU103      0.2260
     88  O       -111.8490  -22.6460  288.2280 O.2   103  LEU103     -0.2867
     89  CB      -112.6780  -23.3770  291.4150 C.3   103  LEU103      0.0270
     90  CG      -113.4160  -22.4000  292.3050 C.3   103  LEU103      0.0019
     91  CD1     -114.8760  -22.2770  291.8870 C.3   103  LEU103      0.0001
     92  CD2     -113.2830  -22.8520  293.7630 C.3   103  LEU103      0.0001
@<TRIPOS>BOND
     1    88    87    2
     2    87    86    1
     3    85    86    1
     4    86    89    1
     5    89    90    1
     6    91    90    1
     7    90    92    1
     8    82    81    2
     9    81    80    1
    10    80    79    1
    11    80    83    1
    12    83    84    1
    13    72    71    2
    14    65    64    2
    15     5     6    1
    16     5     7    1
    17     5     2    1
    18    71    70    1
    19     1     2    1
    20     3     2    1
    21     3     4    2
    22    64    63    1
    23    64    69   am
    24    63    62    1
    25    63    66    1
    26    70    69    1
    27    70    73    1
    28    67    66    1
    29    66    68    1
    30    73    74    1
    31    76    74   ar
    32    76    78   ar
    33    74    75   ar
    34    78    77   ar
    35    51    50    2
    36    75    77   ar
    37    58    57    2
    38    57    56    1
    39    50    49    1
    40    50    55   am
    41    53    52    1
    42    49    52    1
    43    49    48    1
    44    40    38   ar
    45    40    39   ar
    46    52    54    1
    47    56    55    1
    48    56    59    1
    49    38    36   ar
    50    39    37   ar
    51    60    59    1
    52    59    61    1
    53    36    35   ar
    54    37    35   ar
    55    35    34    1
    56    33    32    2
    57    44    43    2
    58    32    31    1
    59    32    41   am
    60    43    42    1
    61    34    31    1
    62    31    30    1
    63    42    41    1
    64    42    45    1
    65    41    47    1
    66    21    19   ar
    67    21    20   ar
    68    19    17   ar
    69    20    18   ar
    70    45    46    1
    71    17    16   ar
    72    17    15   ar
    73    47    46    1
    74    16    14   ar
    75    18    15   ar
    76    15    13   ar
    77    28    27   ar
    78    14    13   ar
    79    13    12    1
    80    29    27   ar
    81    27    26    1
    82    12     9    1
    83    25    24    2
    84    24    23    1
    85    26    23    1
    86     9    10    1
    87     9     8    1
    88    23    22    1
    89    11    10    2
