@<TRIPOS>MOLECULE
tmp/6dhhW12.pdb
 112 103 0 0 0
SMALL
GASTEIGER

@<TRIPOS>ATOM
      1  N       -124.0000   -9.7110  300.7690 N.3   144  ILE144     -0.1245
      2  CA      -125.1160  -10.6390  301.0030 C.3   144  ILE144      0.1561
      3  C       -124.6460  -12.0910  301.0770 C.2   144  ILE144      0.2260
      4  O       -125.1360  -12.8830  301.8990 O.2   144  ILE144     -0.2867
      5  CB      -126.1730  -10.4570  299.8950 C.3   144  ILE144      0.0252
      6  CG1     -127.0150   -9.2160  300.1680 C.3   144  ILE144      0.0019
      7  CG2     -127.0420  -11.6830  299.7650 C.3   144  ILE144      0.0019
      8  CD1     -127.4920   -8.5530  298.8880 C.3   144  ILE144      0.0001
      9  N       -125.1450  -14.3360  304.3070 N.3   148  ILE148     -0.1245
     10  CA      -125.6430  -15.6980  304.2300 C.3   148  ILE148      0.1561
     11  C       -124.6750  -16.6390  304.9260 C.2   148  ILE148      0.2260
     12  O       -125.0880  -17.5450  305.6740 O.2   148  ILE148     -0.2867
     13  CB      -125.8730  -16.0910  302.7610 C.3   148  ILE148      0.0252
     14  CG1     -127.2340  -15.5670  302.3030 C.3   148  ILE148      0.0019
     15  CG2     -125.7900  -17.5860  302.6020 C.3   148  ILE148      0.0019
     16  CD1     -127.4520  -15.6490  300.7890 C.3   148  ILE148      0.0001
     17  N       -124.8690  -16.8640  308.5580 N.3   151  LEU151     -0.1245
     18  CA      -126.0930  -17.5300  308.9690 C.3   151  LEU151      0.1561
     19  C       -125.9870  -19.0440  308.8390 C.2   151  LEU151      0.2260
     20  O       -126.7330  -19.7500  309.5120 O.2   151  LEU151     -0.2867
     21  CB      -127.2720  -16.9470  308.1720 C.3   151  LEU151      0.0270
     22  CG      -127.6630  -15.4940  308.5000 C.3   151  LEU151      0.0019
     23  CD1     -128.8990  -14.9300  307.7580 C.3   151  LEU151      0.0001
     24  CD2     -127.9220  -15.3600  309.9910 C.3   151  LEU151      0.0001
     25  N       -124.7790  -20.1890  312.2030 N.3   154  VAL154     -0.1245
     26  CA      -125.9620  -20.1610  313.0510 C.3   154  VAL154      0.1561
     27  C       -126.7980  -21.4240  312.8220 C.2   154  VAL154      0.2260
     28  O       -127.2110  -22.1000  313.7710 O.2   154  VAL154     -0.2867
     29  CB      -126.7850  -18.8870  312.7700 C.3   154  VAL154      0.0252
     30  CG1     -127.9820  -18.8170  313.7220 C.3   154  VAL154      0.0019
     31  CG2     -125.9240  -17.6290  312.8710 C.3   154  VAL154      0.0019
     32  N       -127.6900  -24.0890  315.6600 N.3   158  MET158     -0.1230
     33  CA      -129.0620  -24.1240  316.1860 C.3   158  MET158      0.1702
     34  C       -129.9210  -25.2370  315.6120 C.2   158  MET158      0.2592
     35  O       -130.8230  -25.7180  316.3020 O.2   158  MET158     -0.2718
     36  CB      -129.7990  -22.8070  315.9190 C.3   158  MET158      0.0401
     37  CG      -129.1810  -21.6130  316.5850 C.3   158  MET158      0.0596
     38  SD      -130.2150  -20.1450  316.5330 S.3   158  MET158     -0.1393
     39  CE      -131.4290  -20.5940  317.7880 C.3   158  MET158      0.0692
     40  N       -129.6630  -25.6640  314.3760 N.am  159  PHE159     -0.1976
     41  CA      -130.5510  -26.5750  313.6710 C.3   159  PHE159      0.1639
     42  C       -129.9140  -27.8880  313.2450 C.2   159  PHE159      0.2290
     43  O       -130.6540  -28.8530  313.0160 O.2   159  PHE159     -0.2864
     44  CB      -131.1120  -25.9010  312.4000 C.3   159  PHE159      0.0560
     45  CG      -131.9850  -24.6870  312.6640 C.ar  159  PHE159     -0.0200
     46  CD1     -132.5940  -24.4770  313.9060 C.ar  159  PHE159     -0.0042
     47  CD2     -132.2100  -23.7680  311.6570 C.ar  159  PHE159     -0.0042
     48  CE1     -133.4090  -23.3770  314.1340 C.ar  159  PHE159     -0.0003
     49  CE2     -133.0240  -22.6640  311.8770 C.ar  159  PHE159     -0.0003
     50  CZ      -133.6250  -22.4740  313.1230 C.ar  159  PHE159     -0.0000
     51  N       -129.8450  -22.7600  321.6620 N.3   178  THR178     -0.1203
     52  CA      -131.2510  -22.4570  321.5460 C.3   178  THR178      0.1994
     53  C       -131.6040  -21.0880  322.0620 C.2   178  THR178      0.2618
     54  O       -132.6780  -20.5800  321.7210 O.2   178  THR178     -0.2717
     55  CB      -132.0580  -23.5150  322.3010 C.3   178  THR178      0.1784
     56  OG1     -131.6640  -23.5400  323.6750 O.3   178  THR178     -0.2211
     57  CG2     -131.7690  -24.8740  321.7010 C.3   178  THR178      0.0376
     58  N       -130.7350  -20.4620  322.8480 N.am  179  ASN179     -0.1960
     59  CA      -130.8940  -19.0730  323.2520 C.3   179  ASN179      0.1804
     60  C       -129.6540  -18.2880  322.8440 C.2   179  ASN179      0.2463
     61  O       -128.8700  -17.8380  323.6940 O.2   179  ASN179     -0.2730
     62  CB      -131.1700  -18.9930  324.7440 C.3   179  ASN179      0.1195
     63  CG      -132.4270  -19.6930  325.0870 C.2   179  ASN179      0.2630
     64  OD1     -132.5580  -20.9000  324.8420 O.2   179  ASN179     -0.2716
     65  ND2     -133.4020  -18.9430  325.6090 N.am  179  ASN179     -0.0877
     66  N       -129.4530  -18.1120  321.5410 N.am  180  PRO180     -0.2727
     67  CA      -128.4530  -17.1560  321.0790 C.3   180  PRO180      0.1402
     68  C       -128.6080  -15.8630  321.8400 C.2   180  PRO180      0.2269
     69  O       -129.7210  -15.4500  322.1840 O.2   180  PRO180     -0.2865
     70  CB      -128.7810  -16.9630  319.5920 C.3   180  PRO180      0.0296
     71  CG      -130.1050  -17.6240  319.3820 C.3   180  PRO180      0.0237
     72  CD      -130.2460  -18.6680  320.4320 C.3   180  PRO180      0.0939
     73  N       -128.8550  -12.0290  321.8090 N.3   182  LEU182     -0.1245
     74  CA      -129.2610  -10.9780  320.8890 C.3   182  LEU182      0.1561
     75  C       -129.1780   -9.6080  321.5080 C.2   182  LEU182      0.2260
     76  O       -129.1400   -8.6230  320.7780 O.2   182  LEU182     -0.2867
     77  CB      -130.7140  -11.1710  320.4330 C.3   182  LEU182      0.0270
     78  CG      -131.1720  -12.5800  320.1220 C.3   182  LEU182      0.0019
     79  CD1     -132.7040  -12.6860  320.2840 C.3   182  LEU182      0.0001
     80  CD2     -130.7570  -12.9010  318.7420 C.3   182  LEU182      0.0001
     81  N       -125.6340  -14.0000  314.2070 N.3   216  ILE216     -0.1245
     82  CA      -126.9540  -13.5700  313.7710 C.3   216  ILE216      0.1561
     83  C       -126.9160  -12.0910  313.4300 C.2   216  ILE216      0.2260
     84  O       -127.3980  -11.6640  312.3750 O.2   216  ILE216     -0.2867
     85  CB      -128.0140  -13.9100  314.8380 C.3   216  ILE216      0.0252
     86  CG1     -128.2540  -15.4160  314.8870 C.3   216  ILE216      0.0019
     87  CG2     -129.3170  -13.2490  314.5350 C.3   216  ILE216      0.0019
     88  CD1     -128.9270  -15.8780  316.1380 C.3   216  ILE216      0.0001
     89  N       -127.2610  -10.5750  309.4310 N.3   220  LEU220     -0.1245
     90  CA      -128.3200   -9.6360  309.0770 C.3   220  LEU220      0.1561
     91  C       -127.7890   -8.2570  308.7260 C.2   220  LEU220      0.2260
     92  O       -128.4250   -7.5240  307.9490 O.2   220  LEU220     -0.2867
     93  CB      -129.3090   -9.4770  310.2480 C.3   220  LEU220      0.0270
     94  CG      -130.1180  -10.6600  310.8090 C.3   220  LEU220      0.0019
     95  CD1     -130.9860  -10.1660  311.9630 C.3   220  LEU220      0.0001
     96  CD2     -130.9660  -11.3490  309.7380 C.3   220  LEU220      0.0001
     97  N       -126.3900   -8.5600  305.1270 N.3   223  ILE223     -0.1245
     98  CA      -127.4540   -8.5710  304.1310 C.3   223  ILE223      0.1561
     99  C       -128.0250   -7.1740  303.9830 C.2   223  ILE223      0.2260
    100  O       -128.1500   -6.6520  302.8730 O.2   223  ILE223     -0.2867
    101  CB      -128.5240   -9.6080  304.4950 C.3   223  ILE223      0.0252
    102  CG1     -127.9100  -10.9970  304.3730 C.3   223  ILE223      0.0019
    103  CG2     -129.7490   -9.4630  303.5710 C.3   223  ILE223      0.0019
    104  CD1     -128.8240  -12.1340  304.7670 C.3   223  ILE223      0.0001
    105  N       -127.8420   -4.7290  300.6040 N.3   227  ILE227     -0.1245
    106  CA      -128.9610   -4.1310  299.8960 C.3   227  ILE227      0.1561
    107  C       -128.7440   -2.6390  299.7940 C.2   227  ILE227      0.2260
    108  O       -128.9000   -2.0300  298.7260 O.2   227  ILE227     -0.2867
    109  CB      -130.2900   -4.4630  300.6070 C.3   227  ILE227      0.0252
    110  CG1     -130.7030   -5.9110  300.3680 C.3   227  ILE227      0.0019
    111  CG2     -131.4050   -3.5780  300.1250 C.3   227  ILE227      0.0019
    112  CD1     -131.2080   -6.5750  301.6130 C.3   227  ILE227      0.0001
@<TRIPOS>BOND
     1   108   107    2
     2     8     6    1
     3     7     5    1
     4   107   106    1
     5     5     6    1
     6     5     2    1
     7   106   105    1
     8   106   109    1
     9   111   109    1
    10   110   109    1
    11   110   112    1
    12     1     2    1
    13    16    14    1
    14     2     3    1
    15     3     4    2
    16    14    13    1
    17    15    13    1
    18    13    10    1
    19   100    99    2
    20   103   101    1
    21    99    98    1
    22    98   101    1
    23    98    97    1
    24    10     9    1
    25    10    11    1
    26   102   101    1
    27   102   104    1
    28    11    12    2
    29    23    22    1
    30    92    91    2
    31    21    22    1
    32    21    18    1
    33    22    24    1
    34    17    18    1
    35    91    90    1
    36    19    18    1
    37    19    20    2
    38    90    89    1
    39    90    93    1
    40    96    94    1
    41    93    94    1
    42    94    95    1
    43    47    49   ar
    44    47    45   ar
    45    49    50   ar
    46    25    26    1
    47    84    83    2
    48    44    45    1
    49    44    41    1
    50    45    46   ar
    51    29    31    1
    52    29    26    1
    53    29    30    1
    54    27    26    1
    55    27    28    2
    56    43    42    2
    57    50    48   ar
    58    42    41    1
    59    83    82    1
    60    41    40    1
    61    82    81    1
    62    82    85    1
    63    46    48   ar
    64    40    34   am
    65    87    85    1
    66    85    86    1
    67    86    88    1
    68    34    33    1
    69    34    35    2
    70    32    33    1
    71    36    33    1
    72    36    37    1
    73    38    37    1
    74    38    39    1
    75    80    78    1
    76    71    70    1
    77    71    72    1
    78    70    67    1
    79    78    79    1
    80    78    77    1
    81    72    66    1
    82    77    74    1
    83    76    75    2
    84    74    75    1
    85    74    73    1
    86    67    66    1
    87    67    68    1
    88    66    60   am
    89    52    51    1
    90    52    53    1
    91    52    55    1
    92    57    55    1
    93    54    53    2
    94    68    69    2
    95    53    58   am
    96    55    56    1
    97    60    59    1
    98    60    61    2
    99    58    59    1
   100    59    62    1
   101    62    63    1
   102    64    63    2
   103    63    65   am
