@<TRIPOS>MOLECULE
tmp/6dhkK01.pdb
 138 133 0 0 0
SMALL
GASTEIGER

@<TRIPOS>ATOM
      1  N         12.6780   84.2510   87.0560 N.3    80  HIS80      -0.1226
      2  CA        11.3240   84.7590   86.8710 C.3    80  HIS80       0.1752
      3  C         10.6480   83.9650   85.7630 C.2    80  HIS80       0.2595
      4  O          9.4290   83.8000   85.7530 O.2    80  HIS80      -0.2718
      5  CB        11.3350   86.2540   86.5400 C.3    80  HIS80       0.0759
      6  CG        11.7470   86.5600   85.1370 C.ar   80  HIS80       0.0818
      7  ND1       13.0720   86.6700   84.7530 N.ar   80  HIS80      -0.2268
      8  CD2       11.0210   86.7840   84.0170 C.ar   80  HIS80       0.1154
      9  CE1       13.1360   86.9430   83.4680 C.ar   80  HIS80       0.1986
     10  NE2       11.9010   87.0190   82.9920 N.ar   80  HIS80      -0.2212
     11  N         11.4570   83.4790   84.8280 N.am   81  ARG81      -0.1980
     12  CA        10.9990   82.5200   83.8360 C.3    81  ARG81       0.1597
     13  C         11.6430   81.1680   84.1270 C.2    81  ARG81       0.2287
     14  O         12.8350   81.0930   84.4340 O.2    81  ARG81      -0.2864
     15  CB        11.3190   82.9990   82.4290 C.3    81  ARG81       0.0334
     16  CG        10.0870   83.1900   81.5780 C.3    81  ARG81       0.0492
     17  CD         9.0680   84.1070   82.2160 C.3    81  ARG81       0.2205
     18  NE         8.0300   84.4630   81.2550 N.pl3  81  ARG81      -0.0865
     19  CZ         6.8420   84.9580   81.5810 C.cat  81  ARG81       0.5346
     20  NH1        6.5320   85.1570   82.8550 N.pl3  81  ARG81       0.1354
     21  NH2        5.9640   85.2530   80.6330 N.pl3  81  ARG81       0.1354
     22  N         19.3300   87.1650   80.1960 N.3   107  THR107     -0.1218
     23  CA        18.1060   87.4520   80.9500 C.3   107  THR107      0.1862
     24  C         17.2650   88.5270   80.2940 C.2   107  THR107      0.2287
     25  O         16.0420   88.4120   80.2200 O.2   107  THR107     -0.2866
     26  CB        18.4220   87.8450   82.4270 C.3   107  THR107      0.1770
     27  OG1       18.3920   86.6730   83.2520 O.3   107  THR107     -0.2211
     28  CG2       17.5010   88.9070   82.9650 C.3   107  THR107      0.0375
     29  N         16.5340   87.5030   76.1630 N.3   110  CYS110     -0.1221
     30  CA        15.3690   86.6420   75.9980 C.3   110  CYS110      0.1808
     31  C         14.0780   87.4450   76.1000 C.2   110  CYS110      0.2601
     32  O         13.1460   87.2370   75.3220 O.2   110  CYS110     -0.2717
     33  CB        15.3710   85.5210   77.0390 C.3   110  CYS110      0.0970
     34  SG        16.5740   84.2140   76.7260 S.3   110  CYS110     -0.0800
     35  N         14.0350   88.3610   77.0620 N.am  111  ALA111     -0.1979
     36  CA        12.8710   89.2170   77.2630 C.3   111  ALA111      0.1597
     37  C         12.5620   90.0220   76.0060 C.2   111  ALA111      0.2287
     38  O         11.4020   90.1760   75.6280 O.2   111  ALA111     -0.2864
     39  CB        13.0940   90.1460   78.4470 C.3   111  ALA111      0.0319
     40  N         10.8370   87.9300   73.4680 N.3   114  ASP114     -0.1225
     41  CA         9.7190   87.2030   74.0720 C.3   114  ASP114      0.1805
     42  C         10.0100   85.7190   74.2850 C.2   114  ASP114      0.2598
     43  O          9.0980   84.8920   74.2700 O.2   114  ASP114     -0.2718
     44  CB         8.4600   87.3650   73.2170 C.3   114  ASP114      0.1424
     45  CG         7.9040   88.7740   73.2620 C.2   114  ASP114      0.3668
     46  OD1        7.7670   89.3230   74.3760 O.co2 114  ASP114     -0.2456
     47  OD2        7.6100   89.3350   72.1850 O.co2 114  ASP114     -0.2456
     48  N         11.2810   85.3890   74.4790 N.am  115  VAL115     -0.1966
     49  CA        11.6720   84.0230   74.7990 C.3   115  VAL115      0.1712
     50  C         11.5940   83.8120   76.3070 C.2   115  VAL115      0.2458
     51  O         12.2980   84.4760   77.0680 O.2   115  VAL115     -0.2730
     52  CB        13.0880   83.7040   74.2950 C.3   115  VAL115      0.0289
     53  CG1       13.5700   82.3920   74.8750 C.3   115  VAL115      0.0023
     54  CG2       13.1070   83.6570   72.7760 C.3   115  VAL115      0.0023
     55  N         10.7270   82.8870   76.7420 N.am  116  PRO116     -0.2716
     56  CA        10.4290   82.7050   78.1650 C.3   116  PRO116      0.1536
     57  C         11.4860   81.9150   78.9350 C.2   116  PRO116      0.2598
     58  O         11.1590   80.8930   79.5380 O.2   116  PRO116     -0.2715
     59  CB         9.1060   81.9400   78.1400 C.3   116  PRO116      0.0310
     60  CG         9.1830   81.1390   76.8990 C.3   116  PRO116      0.0237
     61  CD         9.9280   81.9860   75.8960 C.3   116  PRO116      0.0939
     62  N         12.7240   82.3980   78.9340 N.am  117  PHE117     -0.1974
     63  CA        13.7860   81.7900   79.7280 C.3   117  PHE117      0.1639
     64  C         14.4670   82.8220   80.6200 C.2   117  PHE117      0.2290
     65  O         14.5100   84.0090   80.2940 O.2   117  PHE117     -0.2864
     66  CB        14.8350   81.1330   78.8290 C.3   117  PHE117      0.0560
     67  CG        14.3100   79.9980   77.9970 C.ar  117  PHE117     -0.0200
     68  CD1       13.3580   79.1300   78.4980 C.ar  117  PHE117     -0.0042
     69  CD2       14.7810   79.7950   76.7120 C.ar  117  PHE117     -0.0042
     70  CE1       12.8790   78.0870   77.7290 C.ar  117  PHE117     -0.0003
     71  CE2       14.3070   78.7560   75.9390 C.ar  117  PHE117     -0.0003
     72  CZ        13.3570   77.8990   76.4490 C.ar  117  PHE117     -0.0000
     73  N         14.9050   78.3030   71.7050 N.3   377  TYR377     -0.1241
     74  CA        13.6160   78.1930   72.3720 C.3   377  TYR377      0.1605
     75  C         12.7210   77.2110   71.6280 C.2   377  TYR377      0.2264
     76  O         12.0180   76.4090   72.2420 O.2   377  TYR377     -0.2867
     77  CB        12.9540   79.5710   72.4680 C.3   377  TYR377      0.0534
     78  CG        11.5120   79.5600   72.9220 C.ar  377  TYR377     -0.0201
     79  CD1       11.1200   78.8440   74.0450 C.ar  377  TYR377     -0.0009
     80  CD2       10.5460   80.2900   72.2410 C.ar  377  TYR377     -0.0009
     81  CE1        9.8050   78.8380   74.4630 C.ar  377  TYR377      0.0417
     82  CE2        9.2290   80.2950   72.6550 C.ar  377  TYR377      0.0417
     83  CZ         8.8650   79.5680   73.7670 C.ar  377  TYR377      0.1957
     84  OH         7.5580   79.5720   74.1870 O.3   377  TYR377     -0.2866
     85  N          7.8480   91.4360   65.3900 N.3   454  ARG454     -0.1245
     86  CA         6.9660   91.8490   66.4750 C.3   454  ARG454      0.1563
     87  C          7.7210   92.4640   67.6620 C.2   454  ARG454      0.2260
     88  O          7.1620   93.2690   68.4100 O.2   454  ARG454     -0.2867
     89  CB         6.1440   90.6620   66.9510 C.3   454  ARG454      0.0307
     90  CG         4.9690   91.0430   67.8440 C.3   454  ARG454      0.0489
     91  CD         4.3030   89.8180   68.4280 C.3   454  ARG454      0.2205
     92  NE         5.2700   88.9360   69.0740 N.pl3 454  ARG454     -0.0865
     93  CZ         4.9670   87.7510   69.5920 C.cat 454  ARG454      0.5346
     94  NH1        3.7190   87.3030   69.5480 N.pl3 454  ARG454      0.1354
     95  NH2        5.9060   87.0130   70.1670 N.pl3 454  ARG454      0.1354
     96  N          8.0720   96.4060   69.2540 N.3   458  GLN458     -0.1245
     97  CA         8.1590   96.6370   70.6910 C.3   458  GLN458      0.1566
     98  C          9.2650   97.6260   71.0430 C.2   458  GLN458      0.2260
     99  O          9.0670   98.5170   71.8660 O.2   458  GLN458     -0.2867
    100  CB         8.3870   95.3200   71.4340 C.3   458  GLN458      0.0367
    101  CG         7.1930   94.3850   71.4190 C.3   458  GLN458      0.0905
    102  CD         7.4480   93.1100   72.1940 C.2   458  GLN458      0.2608
    103  OE1        8.4720   92.9710   72.8640 O.2   458  GLN458     -0.2717
    104  NE2        6.5150   92.1690   72.1090 N.am  458  GLN458     -0.0878
    105  N          9.1360   93.9960   81.1760 N.3   483  LYS483     -0.1231
    106  CA         8.6750   92.6130   81.1740 C.3   483  LYS483      0.1693
    107  C          9.0710   91.8740   82.4460 C.2   483  LYS483      0.2591
    108  O          8.2160   91.3550   83.1630 O.2   483  LYS483     -0.2718
    109  CB         9.2280   91.8750   79.9570 C.3   483  LYS483      0.0285
    110  CG         8.7760   92.4430   78.6290 C.3   483  LYS483      0.0035
    111  CD         9.3450   91.6290   77.4860 C.3   483  LYS483      0.0206
    112  CE         8.8530   92.1310   76.1420 C.3   483  LYS483      0.1093
    113  NZ         9.4320   91.3370   75.0240 N.3   483  LYS483     -0.1314
    114  N         10.3740   91.8340   82.7140 N.am  484  VAL484     -0.1980
    115  CA        10.9160   91.1440   83.8820 C.3   484  VAL484      0.1595
    116  C         10.2990   91.6840   85.1750 C.2   484  VAL484      0.2287
    117  O         10.2160   90.9770   86.1810 O.2   484  VAL484     -0.2864
    118  CB        12.4580   91.2730   83.9330 C.3   484  VAL484      0.0276
    119  CG1       13.0370   90.4760   85.0910 C.3   484  VAL484      0.0022
    120  CG2       13.0660   90.8070   82.6200 C.3   484  VAL484      0.0022
    121  N          6.9410   92.9970   85.3710 N.3   486  ARG486     -0.1231
    122  CA         5.5620   92.5050   85.4090 C.3   486  ARG486      0.1694
    123  C          5.4890   91.0570   85.8840 C.2   486  ARG486      0.2591
    124  O          4.4950   90.6380   86.4750 O.2   486  ARG486     -0.2718
    125  CB         4.8950   92.6230   84.0340 C.3   486  ARG486      0.0321
    126  CG         4.8270   94.0320   83.4680 C.3   486  ARG486      0.0489
    127  CD         3.8300   94.1070   82.3180 C.3   486  ARG486      0.2205
    128  NE         4.1440   95.1810   81.3810 N.pl3 486  ARG486     -0.0865
    129  CZ         4.6140   94.9850   80.1520 C.cat 486  ARG486      0.5346
    130  NH1        4.8160   93.7530   79.7060 N.pl3 486  ARG486      0.1354
    131  NH2        4.8750   96.0210   79.3660 N.pl3 486  ARG486      0.1354
    132  N          6.5460   90.2990   85.6200 N.am  487  VAL487     -0.1980
    133  CA         6.6360   88.9300   86.1030 C.3   487  VAL487      0.1595
    134  C          6.8060   88.9200   87.6210 C.2   487  VAL487      0.2287
    135  O          5.9880   88.3430   88.3370 O.2   487  VAL487     -0.2864
    136  CB         7.8010   88.1750   85.4440 C.3   487  VAL487      0.0276
    137  CG1        7.8140   86.7280   85.8980 C.3   487  VAL487      0.0022
    138  CG2        7.6880   88.2560   83.9310 C.3   487  VAL487      0.0022
@<TRIPOS>BOND
     1    85    86    1
     2    86    89    1
     3    86    87    1
     4    89    90    1
     5    87    88    2
     6    90    91    1
     7    91    92    1
     8    92    93    2
     9    96    97    1
    10    94    93    1
    11    93    95    1
    12    97    98    1
    13    97   100    1
    14    98    99    2
    15   101   100    1
    16   101   102    1
    17    75    76    2
    18    75    74    1
    19    73    74    1
    20   104   102   am
    21    47    45   ar
    22   102   103    2
    23    80    82   ar
    24    80    78   ar
    25    74    77    1
    26    77    78    1
    27    82    83   ar
    28    54    52    1
    29    78    79   ar
    30    44    45    1
    31    44    41    1
    32    45    46   ar
    33    40    41    1
    34    83    84    1
    35    83    81   ar
    36    79    81   ar
    37    41    42    1
    38    43    42    2
    39    42    48   am
    40    52    49    1
    41    52    53    1
    42    48    49    1
    43    49    50    1
    44   113   112    1
    45    32    31    2
    46    38    37    2
    47    61    55    1
    48    61    60    1
    49    71    72   ar
    50    71    69   ar
    51    30    31    1
    52    30    29    1
    53    30    33    1
    54    37    36    1
    55    31    35   am
    56   112   111    1
    57    50    55   am
    58    50    51    2
    59    72    70   ar
    60    69    67   ar
    61    34    33    1
    62    55    56    1
    63    60    59    1
    64    35    36    1
    65    36    39    1
    66   111   110    1
    67    70    68   ar
    68    67    68   ar
    69    67    66    1
    70    59    56    1
    71    56    57    1
    72   110   109    1
    73    66    63    1
    74    62    57   am
    75    62    63    1
    76    57    58    2
    77   131   129    1
    78   130   129    1
    79    63    64    1
    80   109   106    1
    81   129   128    2
    82    22    23    1
    83    25    24    2
    84    24    23    1
    85    65    64    2
    86    21    19    1
    87    23    26    1
    88   106   105    1
    89   106   107    1
    90    18    19    2
    91    18    17    1
    92   128   127    1
    93    16    17    1
    94    16    15    1
    95    19    20    1
    96   127   126    1
    97    26    28    1
    98    26    27    1
    99    15    12    1
   100   107   114   am
   101   107   108    2
   102   120   118    1
   103   114   115    1
   104    10     9   ar
   105    10     8   ar
   106     9     7   ar
   107   126   125    1
   108    12    13    1
   109    12    11    1
   110   115   118    1
   111   115   116    1
   112   138   136    1
   113   118   119    1
   114     8     6   ar
   115   125   122    1
   116    13    14    2
   117     7     6   ar
   118    11     3   am
   119     6     5    1
   120   116   117    2
   121   121   122    1
   122   122   123    1
   123   136   137    1
   124   136   133    1
   125   132   123   am
   126   132   133    1
   127     4     3    2
   128     3     2    1
   129   123   124    2
   130   133   134    1
   131     5     2    1
   132     2     1    1
   133   134   135    2
