@<TRIPOS>MOLECULE
tmp/6dhlD01.pdb
 148 143 0 0 0
SMALL
GASTEIGER

@<TRIPOS>ATOM
      1  N          1.6200  -37.4060   29.5200 N.3    80  HIS80      -0.1226
      2  CA         2.5970  -38.4910   29.5430 C.3    80  HIS80       0.1752
      3  C          2.3900  -39.4280   28.3600 C.2    80  HIS80       0.2595
      4  O          3.3610  -39.9260   27.7780 O.2    80  HIS80      -0.2718
      5  CB         2.5250  -39.2600   30.8670 C.3    80  HIS80       0.0759
      6  CG         1.2870  -40.0890   31.0340 C.ar   80  HIS80       0.0818
      7  ND1        0.1000  -39.5730   31.5100 N.ar   80  HIS80      -0.2268
      8  CD2        1.0590  -41.4050   30.8070 C.ar   80  HIS80       0.1154
      9  CE1       -0.8070  -40.5330   31.5590 C.ar   80  HIS80       0.1986
     10  NE2       -0.2510  -41.6540   31.1390 N.ar   80  HIS80      -0.2212
     11  N          1.1380  -39.6660   27.9830 N.am   81  ARG81      -0.1980
     12  CA         0.8020  -40.4190   26.7840 C.3    81  ARG81       0.1597
     13  C          0.4850  -39.4480   25.6540 C.2    81  ARG81       0.2287
     14  O         -0.2010  -38.4420   25.8650 O.2    81  ARG81      -0.2864
     15  CB        -0.3800  -41.3510   27.0410 C.3    81  ARG81       0.0334
     16  CG         0.0160  -42.6290   27.7600 C.3    81  ARG81       0.0492
     17  CD         1.0720  -43.3970   26.9680 C.3    81  ARG81       0.2205
     18  NE         1.5650  -44.5680   27.6900 N.pl3  81  ARG81      -0.0865
     19  CZ         2.8240  -44.7300   28.0860 C.cat  81  ARG81       0.5346
     20  NH1        3.7260  -43.7920   27.8260 N.pl3  81  ARG81       0.1354
     21  NH2        3.1840  -45.8280   28.7390 N.pl3  81  ARG81       0.1354
     22  N         -8.2260  -44.1970   32.1210 N.3   110  CYS110     -0.1221
     23  CA        -7.4810  -44.7830   31.0170 C.3   110  CYS110      0.1808
     24  C         -6.1040  -45.2830   31.4330 C.2   110  CYS110      0.2601
     25  O         -5.3310  -45.7100   30.5710 O.2   110  CYS110     -0.2717
     26  CB        -7.3590  -43.7730   29.8730 C.3   110  CYS110      0.0970
     27  SG        -8.9520  -43.2980   29.1560 S.3   110  CYS110     -0.0800
     28  N         -5.7750  -45.2380   32.7240 N.am  111  ALA111     -0.1979
     29  CA        -4.5620  -45.8730   33.2180 C.3   111  ALA111      0.1597
     30  C         -4.8280  -47.2100   33.8940 C.2   111  ALA111      0.2287
     31  O         -3.8870  -47.9840   34.0940 O.2   111  ALA111     -0.2864
     32  CB        -3.8310  -44.9460   34.1960 C.3   111  ALA111      0.0319
     33  N         -5.3080  -49.8070   31.0380 N.3   114  ASP114     -0.1225
     34  CA        -4.0550  -49.8120   30.2810 C.3   114  ASP114      0.1805
     35  C         -4.2660  -49.2760   28.8610 C.2   114  ASP114      0.2598
     36  O         -4.0700  -49.9710   27.8630 O.2   114  ASP114     -0.2718
     37  CB        -3.4310  -51.2130   30.2650 C.3   114  ASP114      0.1424
     38  CG        -2.3780  -51.3960   31.3500 C.2   114  ASP114      0.3668
     39  OD1       -1.2980  -50.7720   31.2650 O.co2 114  ASP114     -0.2456
     40  OD2       -2.6380  -52.1700   32.2940 O.co2 114  ASP114     -0.2456
     41  N         -4.6660  -48.0120   28.7910 N.am  115  VAL115     -0.1966
     42  CA        -4.9050  -47.3150   27.5340 C.3   115  VAL115      0.1712
     43  C         -3.9110  -46.1660   27.4230 C.2   115  VAL115      0.2458
     44  O         -3.8840  -45.2840   28.2860 O.2   115  VAL115     -0.2730
     45  CB        -6.3480  -46.7980   27.4180 C.3   115  VAL115      0.0289
     46  CG1       -6.4910  -45.9090   26.1980 C.3   115  VAL115      0.0023
     47  CG2       -7.3030  -47.9680   27.3110 C.3   115  VAL115      0.0023
     48  N         -3.0910  -46.1210   26.3790 N.am  116  PRO116     -0.2716
     49  CA        -2.0620  -45.0790   26.2950 C.3   116  PRO116      0.1536
     50  C         -2.6160  -43.7130   25.9140 C.2   116  PRO116      0.2598
     51  O         -2.1680  -43.1020   24.9380 O.2   116  PRO116     -0.2715
     52  CB        -1.1090  -45.6190   25.2220 C.3   116  PRO116      0.0310
     53  CG        -1.9610  -46.4810   24.3620 C.3   116  PRO116      0.0237
     54  CD        -3.0680  -47.0350   25.2240 C.3   116  PRO116      0.0939
     55  N         -3.5780  -43.2210   26.6860 N.am  117  PHE117     -0.1974
     56  CA        -4.1850  -41.9190   26.4630 C.3   117  PHE117      0.1639
     57  C         -3.9560  -41.0210   27.6700 C.2   117  PHE117      0.2290
     58  O         -4.1120  -41.4530   28.8170 O.2   117  PHE117     -0.2864
     59  CB        -5.6880  -42.0530   26.1940 C.3   117  PHE117      0.0560
     60  CG        -6.0260  -42.3520   24.7610 C.ar  117  PHE117     -0.0200
     61  CD1       -7.3370  -42.5860   24.3820 C.ar  117  PHE117     -0.0042
     62  CD2       -5.0420  -42.3670   23.7880 C.ar  117  PHE117     -0.0042
     63  CE1       -7.6630  -42.8430   23.0690 C.ar  117  PHE117     -0.0003
     64  CE2       -5.3610  -42.6280   22.4690 C.ar  117  PHE117     -0.0003
     65  CZ        -6.6760  -42.8670   22.1110 C.ar  117  PHE117     -0.0000
     66  N        -10.8710  -59.0420   27.2990 N.3   450  TYR450     -0.1241
     67  CA        -9.5390  -59.3350   27.8190 C.3   450  TYR450      0.1605
     68  C         -8.9530  -58.1340   28.5520 C.2   450  TYR450      0.2264
     69  O         -8.1330  -58.3000   29.4630 O.2   450  TYR450     -0.2867
     70  CB        -8.6170  -59.7640   26.6740 C.3   450  TYR450      0.0534
     71  CG        -7.1590  -59.9120   27.0570 C.ar  450  TYR450     -0.0201
     72  CD1       -6.7020  -61.0660   27.6790 C.ar  450  TYR450     -0.0009
     73  CD2       -6.2420  -58.9010   26.7950 C.ar  450  TYR450     -0.0009
     74  CE1       -5.3750  -61.2120   28.0310 C.ar  450  TYR450      0.0417
     75  CE2       -4.9110  -59.0360   27.1460 C.ar  450  TYR450      0.0417
     76  CZ        -4.4840  -60.1950   27.7630 C.ar  450  TYR450      0.1957
     77  OH        -3.1610  -60.3400   28.1150 O.3   450  TYR450     -0.2866
     78  N         -7.7770  -58.6460   32.5400 N.3   454  ARG454     -0.1245
     79  CA        -6.4320  -58.3200   32.9950 C.3   454  ARG454      0.1563
     80  C         -6.4600  -57.1620   33.9800 C.2   454  ARG454      0.2260
     81  O         -5.7360  -57.1710   34.9820 O.2   454  ARG454     -0.2867
     82  CB        -5.5380  -57.9880   31.8010 C.3   454  ARG454      0.0307
     83  CG        -4.7790  -59.1720   31.2290 C.3   454  ARG454      0.0489
     84  CD        -3.3010  -59.0700   31.5690 C.3   454  ARG454      0.2205
     85  NE        -2.8010  -57.7050   31.4050 N.pl3 454  ARG454     -0.0865
     86  CZ        -2.0940  -57.2790   30.3620 C.cat 454  ARG454      0.5346
     87  NH1       -1.7950  -58.1140   29.3750 N.pl3 454  ARG454      0.1354
     88  NH2       -1.6820  -56.0180   30.3070 N.pl3 454  ARG454      0.1354
     89  N         -5.3750  -57.0250   37.8500 N.3   458  GLN458     -0.1245
     90  CA        -4.3940  -56.0500   38.3130 C.3   458  GLN458      0.1566
     91  C         -4.8690  -55.2720   39.5320 C.2   458  GLN458      0.2260
     92  O         -4.0420  -54.8460   40.3470 O.2   458  GLN458     -0.2867
     93  CB        -4.0530  -55.0630   37.1930 C.3   458  GLN458      0.0367
     94  CG        -3.2130  -55.6430   36.0710 C.3   458  GLN458      0.0905
     95  CD        -2.8140  -54.5920   35.0560 C.2   458  GLN458      0.2608
     96  OE1       -3.4170  -53.5190   34.9880 O.2   458  GLN458     -0.2717
     97  NE2       -1.7990  -54.8960   34.2540 N.am  458  GLN458     -0.0878
     98  N         -3.4310  -48.0580   41.8180 N.3   479  ASN479     -0.1240
     99  CA        -2.8170  -48.7860   40.7140 C.3   479  ASN479      0.1653
    100  C         -2.4600  -47.8580   39.5600 C.2   479  ASN479      0.2266
    101  O         -1.3360  -47.8970   39.0500 O.2   479  ASN479     -0.2867
    102  CB        -3.7630  -49.8890   40.2340 C.3   479  ASN479      0.1155
    103  CG        -3.0690  -50.9250   39.3710 C.2   479  ASN479      0.2627
    104  OD1       -1.8430  -51.0420   39.3780 O.2   479  ASN479     -0.2716
    105  ND2       -3.8570  -51.6760   38.6080 N.am  479  ASN479     -0.0877
    106  N          0.9370  -45.6330   40.0650 N.3   482  GLU482     -0.1231
    107  CA         2.2600  -46.2070   39.8350 C.3   482  GLU482      0.1699
    108  C          2.5410  -46.3450   38.3440 C.2   482  GLU482      0.2592
    109  O          3.6770  -46.1480   37.9000 O.2   482  GLU482     -0.2718
    110  CB         2.4020  -47.5570   40.5470 C.3   482  GLU482      0.0402
    111  CG         1.4130  -48.6270   40.1230 C.3   482  GLU482      0.1161
    112  CD         1.6290  -49.9460   40.8410 C.2   482  GLU482      0.3649
    113  OE1        1.4840  -49.9820   42.0810 O.co2 482  GLU482     -0.2457
    114  OE2        1.9370  -50.9500   40.1630 O.co2 482  GLU482     -0.2457
    115  N          1.5100  -46.6490   37.5500 N.am  483  LYS483     -0.1966
    116  CA         1.6750  -46.6770   36.1000 C.3   483  LYS483      0.1728
    117  C          2.0810  -45.3060   35.5780 C.2   483  LYS483      0.2616
    118  O          3.0510  -45.1770   34.8210 O.2   483  LYS483     -0.2715
    119  CB         0.3800  -47.1350   35.4290 C.3   483  LYS483      0.0311
    120  CG        -0.0500  -48.5560   35.7550 C.3   483  LYS483      0.0038
    121  CD        -1.0940  -49.0310   34.7590 C.3   483  LYS483      0.0206
    122  CE        -1.8020  -50.2980   35.2200 C.3   483  LYS483      0.1093
    123  NZ        -0.9830  -51.5280   35.0840 N.3   483  LYS483     -0.1314
    124  N          1.3460  -44.2650   35.9770 N.am  484  VAL484     -0.1977
    125  CA         1.6690  -42.9080   35.5480 C.3   484  VAL484      0.1596
    126  C          3.0510  -42.5040   36.0450 C.2   484  VAL484      0.2287
    127  O          3.7990  -41.8110   35.3440 O.2   484  VAL484     -0.2864
    128  CB         0.5830  -41.9260   36.0270 C.3   484  VAL484      0.0276
    129  CG1        0.9290  -40.5060   35.6080 C.3   484  VAL484      0.0022
    130  CG2       -0.7740  -42.3290   35.4730 C.3   484  VAL484      0.0022
    131  N          5.7310  -44.4800   36.6680 N.3   486  ARG486     -0.1231
    132  CA         6.7870  -45.1710   35.9340 C.3   486  ARG486      0.1694
    133  C          7.0760  -44.4890   34.6030 C.2   486  ARG486      0.2591
    134  O          8.2400  -44.3540   34.2070 O.2   486  ARG486     -0.2718
    135  CB         6.3990  -46.6340   35.7250 C.3   486  ARG486      0.0321
    136  CG         6.2790  -47.4150   37.0220 C.3   486  ARG486      0.0489
    137  CD         5.4190  -48.6500   36.8500 C.3   486  ARG486      0.2205
    138  NE         5.9180  -49.5320   35.8040 N.pl3 486  ARG486     -0.0865
    139  CZ         5.5240  -50.7910   35.6480 C.cat 486  ARG486      0.5346
    140  NH1        4.6190  -51.3080   36.4690 N.pl3 486  ARG486      0.1354
    141  NH2        6.0280  -51.5290   34.6680 N.pl3 486  ARG486      0.1354
    142  N          6.0280  -44.0450   33.9040 N.am  487  VAL487     -0.1980
    143  CA         6.2110  -43.2680   32.6780 C.3   487  VAL487      0.1595
    144  C          7.0910  -42.0550   32.9510 C.2   487  VAL487      0.2287
    145  O          8.1600  -41.8860   32.3500 O.2   487  VAL487     -0.2864
    146  CB         4.8500  -42.8490   32.0970 C.3   487  VAL487      0.0276
    147  CG1        5.0330  -42.1680   30.7530 C.3   487  VAL487      0.0022
    148  CG2        3.9370  -44.0580   31.9570 C.3   487  VAL487      0.0022
@<TRIPOS>BOND
     1    65    64   ar
     2    65    63   ar
     3    64    62   ar
     4    63    61   ar
     5    62    60   ar
     6    53    52    1
     7    53    54    1
     8    61    60   ar
     9    60    59    1
    10    51    50    2
    11    52    49    1
    12    54    48    1
    13    13    14    2
    14    13    12    1
    15    50    49    1
    16    50    55   am
    17    59    56    1
    18    46    45    1
    19    49    48    1
    20    48    43   am
    21    56    55    1
    22    56    57    1
    23    70    71    1
    24    70    67    1
    25    12    15    1
    26    12    11    1
    27    73    71   ar
    28    73    75   ar
    29    17    18    1
    30    17    16    1
    31    15    16    1
    32    71    72   ar
    33    75    76   ar
    34    66    67    1
    35    47    45    1
    36    45    42    1
    37    43    42    1
    38    43    44    2
    39    42    41    1
    40    57    58    2
    41    72    74   ar
    42    18    19    2
    43    76    74   ar
    44    76    77    1
    45     4     3    2
    46    67    68    1
    47    20    19    1
    48    36    35    2
    49    11     3   am
    50    19    21    1
    51     3     2    1
    52    68    69    2
    53    41    35   am
    54    35    34    1
    55    27    26    1
    56    87    86    1
    57     1     2    1
    58     2     5    1
    59    26    23    1
    60    37    34    1
    61    37    38    1
    62    34    33    1
    63    88    86    1
    64    86    85    2
    65    25    24    2
    66   147   146    1
    67     8     6   ar
    68     8    10   ar
    69     5     6    1
    70    23    24    1
    71    23    22    1
    72     6     7   ar
    73    10     9   ar
    74    83    84    1
    75    83    82    1
    76    39    38   ar
    77    38    40   ar
    78    85    84    1
    79    24    28   am
    80     7     9   ar
    81    82    79    1
    82   148   146    1
    83   146   143    1
    84   145   144    2
    85    78    79    1
    86   143   144    1
    87   143   142    1
    88    28    29    1
    89    79    80    1
    90    29    30    1
    91    29    32    1
    92    30    31    2
    93   142   133   am
    94    80    81    2
    95   134   133    2
    96    97    95   am
    97   133   132    1
    98   141   139    1
    99   121   122    1
   100   121   120    1
   101   118   117    2
   102    96    95    2
   103    95    94    1
   104   123   122    1
   105   127   126    2
   106   119   120    1
   107   119   116    1
   108   130   128    1
   109   125   124    1
   110   125   128    1
   111   125   126    1
   112   117   124   am
   113   117   116    1
   114   129   128    1
   115   139   138    2
   116   139   140    1
   117   135   132    1
   118   135   136    1
   119   138   137    1
   120   132   131    1
   121    94    93    1
   122   116   115    1
   123   137   136    1
   124    93    90    1
   125   115   108   am
   126    89    90    1
   127   109   108    2
   128    90    91    1
   129   108   107    1
   130   105   103   am
   131   101   100    2
   132   103   104    2
   133   103   102    1
   134    91    92    2
   135   100    99    1
   136   107   106    1
   137   107   110    1
   138   111   110    1
   139   111   112    1
   140   114   112   ar
   141   102    99    1
   142    99    98    1
   143   112   113   ar
