@<TRIPOS>MOLECULE
tmp/6dhpX07.pdb
 92 89 0 0 0
SMALL
GASTEIGER

@<TRIPOS>ATOM
      1  N        -51.4940   -8.3610  281.4370 N.3    12  LYS12      -0.1245
      2  CA       -52.4140   -7.2430  281.4690 C.3    12  LYS12       0.1561
      3  C        -53.3400   -7.2430  280.2650 C.2    12  LYS12       0.2260
      4  O        -53.9290   -6.2120  279.9470 O.2    12  LYS12      -0.2867
      5  CB       -51.6280   -5.9330  281.5880 C.3    12  LYS12       0.0271
      6  CG       -50.8080   -5.8070  282.9150 C.3    12  LYS12       0.0035
      7  CD       -49.9980   -4.4830  282.9750 C.3    12  LYS12       0.0206
      8  CE       -49.3330   -4.2230  284.3260 C.3    12  LYS12       0.1093
      9  NZ       -48.7670   -2.8250  284.4160 N.3    12  LYS12      -0.1314
     10  N        -50.0930   -8.7980  287.2730 N.3    21  TRP21      -0.1227
     11  CA       -49.0880   -9.3080  288.1950 C.3    21  TRP21       0.1737
     12  C        -49.7290   -9.7110  289.5120 C.2    21  TRP21       0.2596
     13  O        -49.3390  -10.7160  290.1250 O.2    21  TRP21      -0.2718
     14  CB       -48.0140   -8.2480  288.4400 C.3    21  TRP21       0.0564
     15  CG       -47.2230   -7.9190  287.2280 C.ar   21  TRP21       0.0003
     16  CD1      -47.5020   -6.9580  286.2910 C.ar   21  TRP21       0.0946
     17  CD2      -46.0310   -8.5610  286.8060 C.ar   21  TRP21       0.0152
     18  NE1      -46.5350   -6.9550  285.3240 N.ar   21  TRP21      -0.2442
     19  CE2      -45.6120   -7.9250  285.6230 C.ar   21  TRP21       0.0810
     20  CE3      -45.2560   -9.5960  287.3290 C.ar   21  TRP21       0.0012
     21  CZ2      -44.4720   -8.3140  284.9340 C.ar   21  TRP21       0.0191
     22  CZ3      -44.0980   -9.9720  286.6470 C.ar   21  TRP21       0.0001
     23  CH2      -43.7300   -9.3390  285.4580 C.ar   21  TRP21       0.0015
     24  N        -50.7130   -8.9240  289.9690 N.am   22  SER22      -0.1952
     25  CA       -51.3580   -9.2140  291.2460 C.3    22  SER22       0.1924
     26  C        -52.0430  -10.5660  291.2130 C.2    22  SER22       0.2314
     27  O        -52.1900  -11.2060  292.2650 O.2    22  SER22      -0.2863
     28  CB       -52.3510   -8.1000  291.6180 C.3    22  SER22       0.2116
     29  OG       -53.3550   -7.8720  290.6460 O.3    22  SER22      -0.2180
     30  N        -50.7630  -13.3410  290.2070 N.3    24  ILE24      -0.1231
     31  CA       -49.8250  -14.4080  290.5620 C.3    24  ILE24       0.1692
     32  C        -49.9040  -14.7070  292.0500 C.2    24  ILE24       0.2591
     33  O        -49.7530  -15.8510  292.4850 O.2    24  ILE24      -0.2718
     34  CB       -48.4030  -14.0100  290.1250 C.3    24  ILE24       0.0266
     35  CG1      -48.2310  -14.2670  288.6170 C.3    24  ILE24       0.0019
     36  CG2      -47.3450  -14.7260  290.9470 C.3    24  ILE24       0.0020
     37  CD1      -47.6960  -13.0720  287.8290 C.3    24  ILE24       0.0001
     38  N        -50.1220  -13.6830  292.8490 N.am   25  LEU25      -0.1980
     39  CA       -50.4370  -13.8760  294.2580 C.3    25  LEU25       0.1596
     40  C        -51.9320  -14.2180  294.4930 C.2    25  LEU25       0.2287
     41  O        -52.2520  -15.1070  295.2780 O.2    25  LEU25      -0.2864
     42  CB       -50.0320  -12.6060  294.9990 C.3    25  LEU25       0.0297
     43  CG       -50.1250  -12.5830  296.5120 C.3    25  LEU25       0.0022
     44  CD1      -49.3700  -13.7480  297.1020 C.3    25  LEU25       0.0001
     45  CD2      -49.5730  -11.2820  297.0200 C.3    25  LEU25       0.0001
     46  N        -54.0720   -5.4540  295.9610 N.3   116  LEU116     -0.1245
     47  CA       -53.1500   -5.1210  294.8700 C.3   116  LEU116      0.1561
     48  C        -53.8640   -5.1480  293.5290 C.2   116  LEU116      0.2260
     49  O        -53.6740   -4.2580  292.6950 O.2   116  LEU116     -0.2867
     50  CB       -51.9900   -6.0990  294.8680 C.3   116  LEU116      0.0270
     51  CG       -51.1470   -6.0760  296.1460 C.3   116  LEU116      0.0019
     52  CD1      -50.0870   -7.1350  296.1190 C.3   116  LEU116      0.0001
     53  CD2      -50.4940   -4.7170  296.2860 C.3   116  LEU116      0.0001
     54  N        -55.6380   -2.0500  293.2290 N.3   119  PHE119     -0.1227
     55  CA       -54.6930   -0.9990  292.8390 C.3   119  PHE119      0.1736
     56  C        -54.2730   -1.1350  291.3690 C.2   119  PHE119      0.2595
     57  O        -54.2490   -0.1500  290.6180 O.2   119  PHE119     -0.2718
     58  CB       -53.4420   -1.0520  293.7120 C.3   119  PHE119      0.0547
     59  CG       -53.5300   -0.2840  294.9970 C.ar  119  PHE119     -0.0202
     60  CD1      -53.7700    1.0630  295.0050 C.ar  119  PHE119     -0.0042
     61  CD2      -53.3170   -0.9360  296.2090 C.ar  119  PHE119     -0.0042
     62  CE1      -53.8130    1.7440  296.1890 C.ar  119  PHE119     -0.0003
     63  CE2      -53.4000   -0.2820  297.3550 C.ar  119  PHE119     -0.0003
     64  CZ       -53.6040    1.0550  297.3630 C.ar  119  PHE119     -0.0000
     65  N        -53.9220   -2.3580  290.9430 N.am  120  GLU120     -0.1979
     66  CA       -53.4090   -2.5700  289.5900 C.3   120  GLU120      0.1602
     67  C        -54.4170   -2.1540  288.5350 C.2   120  GLU120      0.2287
     68  O        -54.0590   -1.4610  287.5630 O.2   120  GLU120     -0.2864
     69  CB       -53.0070   -4.0330  289.4100 C.3   120  GLU120      0.0415
     70  CG       -52.2140   -4.2800  288.1330 C.3   120  GLU120      0.1163
     71  CD       -51.7110   -5.6970  287.9790 C.2   120  GLU120      0.3649
     72  OE1      -52.1440   -6.6040  288.7330 O.co2 120  GLU120     -0.2457
     73  OE2      -50.8620   -5.9120  287.0890 O.co2 120  GLU120     -0.2457
     74  N        -55.0150    1.6790  288.3820 N.3   123  ARG123     -0.1231
     75  CA       -53.9560    2.3880  287.6650 C.3   123  ARG123      0.1694
     76  C        -54.1400    2.2780  286.1520 C.2   123  ARG123      0.2591
     77  O        -54.0120    3.2720  285.4370 O.2   123  ARG123     -0.2718
     78  CB       -52.5840    1.8510  288.1270 C.3   123  ARG123      0.0321
     79  CG       -51.2960    2.6430  287.7010 C.3   123  ARG123      0.0489
     80  CD       -51.3280    4.1410  288.0990 C.3   123  ARG123      0.2205
     81  NE       -51.9810    4.9120  287.0590 N.pl3 123  ARG123     -0.0865
     82  CZ       -52.1260    6.2350  287.0280 C.cat 123  ARG123      0.5346
     83  NH1      -51.6780    6.9830  288.0050 N.pl3 123  ARG123      0.1354
     84  NH2      -52.7670    6.8080  286.0170 N.pl3 123  ARG123      0.1354
     85  N        -54.4600    1.0850  285.6400 N.am  124  LEU124     -0.1980
     86  CA       -54.5060    0.9170  284.1930 C.3   124  LEU124      0.1596
     87  C        -55.7360    1.5790  283.5960 C.2   124  LEU124      0.2287
     88  O        -55.6850    2.0460  282.4560 O.2   124  LEU124     -0.2864
     89  CB       -54.4800   -0.5690  283.8070 C.3   124  LEU124      0.0297
     90  CG       -53.3870   -1.4740  284.3710 C.3   124  LEU124      0.0022
     91  CD1      -53.8600   -2.9120  284.3450 C.3   124  LEU124      0.0001
     92  CD2      -52.0990   -1.3730  283.6190 C.3   124  LEU124      0.0001
@<TRIPOS>BOND
     1     4     3    2
     2     3     2    1
     3     1     2    1
     4     2     5    1
     5     5     6    1
     6    88    87    2
     7     6     7    1
     8     7     8    1
     9    87    86    1
    10    92    90    1
    11    89    86    1
    12    89    90    1
    13    86    85    1
    14     8     9    1
    15    91    90    1
    16    21    23   ar
    17    21    19   ar
    18    18    19   ar
    19    18    16   ar
    20    77    76    2
    21    23    22   ar
    22    19    17   ar
    23    85    76   am
    24    84    82    1
    25    76    75    1
    26    16    15   ar
    27    22    20   ar
    28    17    15   ar
    29    17    20   ar
    30    82    81    2
    31    82    83    1
    32    81    80    1
    33    73    71   ar
    34    15    14    1
    35    10    11    1
    36    68    67    2
    37    75    78    1
    38    75    74    1
    39    79    80    1
    40    79    78    1
    41    37    35    1
    42    71    70    1
    43    71    72   ar
    44    70    69    1
    45    11    14    1
    46    11    12    1
    47    67    66    1
    48    35    34    1
    49    69    66    1
    50    12    24   am
    51    12    13    2
    52    66    65    1
    53    24    25    1
    54    34    31    1
    55    34    36    1
    56    30    31    1
    57    31    32    1
    58    57    56    2
    59    29    28    1
    60    65    56   am
    61    26    25    1
    62    26    27    2
    63    25    28    1
    64    56    55    1
    65    32    33    2
    66    32    38   am
    67    49    48    2
    68    55    54    1
    69    55    58    1
    70    38    39    1
    71    48    47    1
    72    58    59    1
    73    39    40    1
    74    39    42    1
    75    40    41    2
    76    50    47    1
    77    50    51    1
    78    47    46    1
    79    59    60   ar
    80    59    61   ar
    81    42    43    1
    82    60    62   ar
    83    52    51    1
    84    51    53    1
    85    62    64   ar
    86    61    63   ar
    87    43    45    1
    88    43    44    1
    89    63    64   ar
