@<TRIPOS>MOLECULE
tmp/6dhpV28.pdb
 192 191 0 0 0
SMALL
GASTEIGER

@<TRIPOS>ATOM
      1  N        -34.4230    3.2020  330.3780 N.3    65  MET65      -0.1245
      2  CA       -33.1340    3.6440  330.8860 C.3    65  MET65       0.1570
      3  C        -32.3660    2.4880  331.5300 C.2    65  MET65       0.2261
      4  O        -31.1970    2.2550  331.1960 O.2    65  MET65      -0.2867
      5  CB       -33.3400    4.8010  331.8590 C.3    65  MET65       0.0387
      6  CG       -33.9140    6.0550  331.1450 C.3    65  MET65       0.0595
      7  SD       -34.1640    7.5160  332.2060 S.3    65  MET65      -0.1393
      8  CE       -35.5490    6.9400  333.1520 C.3    65  MET65       0.0692
      9  N        -30.4670   -0.2220  329.2550 N.3    68  LEU68      -0.1231
     10  CA       -29.2050    0.0670  328.5810 C.3    68  LEU68       0.1693
     11  C        -28.1450    0.6020  329.5190 C.2    68  LEU68       0.2593
     12  O        -27.1160    1.1290  329.0630 O.2    68  LEU68      -0.2718
     13  CB       -29.3990    1.0740  327.4550 C.3    68  LEU68       0.0284
     14  CG       -30.3170    0.7040  326.3100 C.3    68  LEU68       0.0019
     15  CD1      -30.3610    1.8830  325.3700 C.3    68  LEU68       0.0001
     16  CD2      -29.8550   -0.5390  325.6090 C.3    68  LEU68       0.0001
     17  N        -28.3950    0.5570  330.7940 N.am   69  GLY69      -0.1942
     18  CA       -27.3320    0.8250  331.7270 C.3    69  GLY69       0.2014
     19  C        -27.5510    1.8620  332.7980 C.2    69  GLY69       0.2638
     20  O        -26.7480    1.9700  333.7220 O.2    69  GLY69      -0.2714
     21  N        -28.6060    2.6460  332.6990 N.am   70  VAL70      -0.1977
     22  CA       -28.8680    3.6980  333.6640 C.3    70  VAL70       0.1596
     23  C        -29.6440    3.0970  334.8270 C.2    70  VAL70       0.2287
     24  O        -30.8390    2.8620  334.7170 O.2    70  VAL70      -0.2864
     25  CB       -29.6280    4.8510  333.0000 C.3    70  VAL70       0.0276
     26  CG1      -29.8020    5.9750  333.9610 C.3    70  VAL70       0.0022
     27  CG2      -28.8850    5.3010  331.7840 C.3    70  VAL70       0.0022
     28  N        -29.3270   10.4090  341.4640 N.3    74  TRP74      -0.1241
     29  CA       -28.4600   11.3100  342.2120 C.3    74  TRP74       0.1605
     30  C        -28.7860   11.3120  343.7070 C.2    74  TRP74       0.2264
     31  O        -27.9750   11.8170  344.4930 O.2    74  TRP74      -0.2867
     32  CB       -28.5690   12.7320  341.6480 C.3    74  TRP74       0.0550
     33  CG       -27.9180   12.9520  340.3780 C.ar   74  TRP74       0.0003
     34  CD1      -26.9390   12.1860  339.7990 C.ar   74  TRP74       0.0946
     35  CD2      -28.1840   14.0180  339.4690 C.ar   74  TRP74       0.0152
     36  NE1      -26.5830   12.7210  338.5770 N.ar   74  TRP74      -0.2442
     37  CE2      -27.3310   13.8490  338.3590 C.ar   74  TRP74       0.0810
     38  CE3      -29.0610   15.1030  339.4840 C.ar   74  TRP74       0.0012
     39  CZ2      -27.3360   14.7240  337.2780 C.ar   74  TRP74       0.0191
     40  CZ3      -29.0440   15.9780  338.4290 C.ar   74  TRP74       0.0001
     41  CH2      -28.1790   15.7900  337.3390 C.ar   74  TRP74       0.0015
     42  N        -23.6440    7.6770  340.8330 N.3    87  PRO87      -0.2116
     43  CA       -23.7040    7.3590  339.4000 C.3    87  PRO87       0.1372
     44  C        -22.9990    8.3740  338.5020 C.2    87  PRO87       0.2244
     45  O        -22.8560    8.1140  337.2990 O.2    87  PRO87      -0.2868
     46  CB       -25.2110    7.3270  339.1390 C.3    87  PRO87       0.0268
     47  CG       -25.7610    8.3860  340.0860 C.3    87  PRO87       0.0207
     48  CD       -24.8550    8.3710  341.3040 C.3    87  PRO87       0.0892
     49  N        -22.8930   11.7020  336.2590 N.3    89  PHE89      -0.1227
     50  CA       -23.8910   12.4870  335.5620 C.3    89  PHE89       0.1736
     51  C        -25.0140   11.6050  335.0150 C.2    89  PHE89       0.2595
     52  O        -26.1900   11.9650  335.1180 O.2    89  PHE89      -0.2718
     53  CB       -23.2530   13.2970  334.4440 C.3    89  PHE89       0.0547
     54  CG       -24.2540   14.1230  333.7180 C.ar   89  PHE89      -0.0202
     55  CD1      -24.7370   15.2940  334.2830 C.ar   89  PHE89      -0.0042
     56  CD2      -24.8020   13.6840  332.5300 C.ar   89  PHE89      -0.0042
     57  CE1      -25.7040   16.0200  333.6610 C.ar   89  PHE89      -0.0003
     58  CE2      -25.8110   14.4390  331.8860 C.ar   89  PHE89      -0.0003
     59  CZ       -26.2480   15.5970  332.4540 C.ar   89  PHE89      -0.0000
     60  N        -24.6860   10.4300  334.4640 N.am   90  TRP90      -0.1976
     61  CA       -25.6850    9.6300  333.7540 C.3    90  TRP90       0.1640
     62  C        -26.5250    8.7970  334.7290 C.2    90  TRP90       0.2290
     63  O        -26.5880    7.5720  334.7120 O.2    90  TRP90      -0.2864
     64  CB       -25.0190    8.7870  332.6840 C.3    90  TRP90       0.0576
     65  CG       -24.4020    9.6220  331.6280 C.ar   90  TRP90       0.0006
     66  CD1      -23.0850    9.6560  331.2730 C.ar   90  TRP90       0.0946
     67  CD2      -25.0700   10.5550  330.7830 C.ar   90  TRP90       0.0152
     68  NE1      -22.8940   10.5420  330.2370 N.ar   90  TRP90      -0.2442
     69  CE2      -24.1000   11.1160  329.9260 C.ar   90  TRP90       0.0810
     70  CE3      -26.4030   10.9640  330.6530 C.ar   90  TRP90       0.0012
     71  CZ2      -24.4140   12.0580  328.9590 C.ar   90  TRP90       0.0191
     72  CZ3      -26.7070   11.9210  329.6920 C.ar   90  TRP90       0.0001
     73  CH2      -25.7130   12.4570  328.8640 C.ar   90  TRP90       0.0015
     74  N        -30.1120   11.8860  332.6630 N.3    95  VAL95      -0.1245
     75  CA       -30.6910   11.5240  331.3760 C.3    95  VAL95       0.1561
     76  C        -31.9050   12.3800  331.0730 C.2    95  VAL95       0.2260
     77  O        -32.0990   12.8260  329.9420 O.2    95  VAL95      -0.2867
     78  CB       -31.0670   10.0430  331.3640 C.3    95  VAL95       0.0252
     79  CG1      -31.8670    9.7850  330.0850 C.3    95  VAL95       0.0019
     80  CG2      -29.8000    9.1800  331.5130 C.3    95  VAL95       0.0019
     81  N        -32.6170   15.4390  332.3190 N.3    97  LEU97      -0.1231
     82  CA       -32.0780   16.7670  332.0320 C.3    97  LEU97       0.1693
     83  C        -31.5810   16.8790  330.6050 C.2    97  LEU97       0.2592
     84  O        -31.8780   17.8470  329.9000 O.2    97  LEU97      -0.2718
     85  CB       -30.9370   17.0790  333.0150 C.3    97  LEU97       0.0284
     86  CG       -30.1170   18.3950  332.9800 C.3    97  LEU97       0.0019
     87  CD1      -28.9470   18.4420  331.9720 C.3    97  LEU97       0.0001
     88  CD2      -31.0590   19.5670  332.6900 C.3    97  LEU97       0.0001
     89  N        -30.7260   15.9470  330.2060 N.am   98  ALA98      -0.1966
     90  CA       -30.1510   15.9710  328.8750 C.3    98  ALA98       0.1728
     91  C        -31.2150   15.9790  327.7930 C.2    98  ALA98       0.2616
     92  O        -31.0510   16.6310  326.7570 O.2    98  ALA98      -0.2715
     93  CB       -29.2390   14.7650  328.7290 C.3    98  ALA98       0.0334
     94  N        -32.3330   15.2900  328.0160 N.am   99  HIS99      -0.1973
     95  CA       -33.3850   15.3020  327.0020 C.3    99  HIS99       0.1656
     96  C        -34.1120   16.6440  327.0050 C.2    99  HIS99       0.2291
     97  O        -34.4480   17.1620  325.9330 O.2    99  HIS99      -0.2864
     98  CB       -34.3190   14.1230  327.2380 C.3    99  HIS99       0.0771
     99  CG       -33.8090   12.8050  326.6800 C.ar   99  HIS99       0.0820
    100  ND1      -33.1150   11.8790  327.4290 N.ar   99  HIS99      -0.2267
    101  CD2      -33.9330   12.2520  325.4480 C.ar   99  HIS99       0.1154
    102  CE1      -32.8410   10.8170  326.6910 C.ar   99  HIS99       0.1986
    103  NE2      -33.3330   11.0090  325.4830 N.ar   99  HIS99      -0.2212
    104  N        -32.7380   19.6210  327.8480 N.3   101  VAL101     -0.1231
    105  CA       -31.8140   20.5250  327.1930 C.3   101  VAL101      0.1692
    106  C        -31.8430   20.2940  325.7020 C.2   101  VAL101      0.2591
    107  O        -31.8860   21.2460  324.9140 O.2   101  VAL101     -0.2718
    108  CB       -30.3950   20.3530  327.7660 C.3   101  VAL101      0.0266
    109  CG1      -29.4730   21.2560  327.0130 C.3   101  VAL101      0.0020
    110  CG2      -30.3740   20.6600  329.2760 C.3   101  VAL101      0.0020
    111  N        -31.8280   19.0290  325.2850 N.am  102  LEU102     -0.1980
    112  CA       -31.8220   18.7220  323.8580 C.3   102  LEU102      0.1596
    113  C        -33.0740   19.2500  323.1940 C.2   102  LEU102      0.2287
    114  O        -33.0240   19.8290  322.0980 O.2   102  LEU102     -0.2864
    115  CB       -31.7320   17.2000  323.6480 C.3   102  LEU102      0.0297
    116  CG       -31.8670   16.7980  322.1580 C.3   102  LEU102      0.0022
    117  CD1      -30.8170   17.5010  321.3030 C.3   102  LEU102      0.0001
    118  CD2      -31.7600   15.3130  321.9390 C.3   102  LEU102      0.0001
    119  N        -32.7390   23.0120  322.6220 N.3   105  LEU105     -0.1245
    120  CA       -31.8720   23.3250  321.4860 C.3   105  LEU105      0.1561
    121  C        -32.5520   23.0210  320.1560 C.2   105  LEU105      0.2260
    122  O        -32.4200   23.7870  319.1970 O.2   105  LEU105     -0.2867
    123  CB       -30.5760   22.5350  321.6070 C.3   105  LEU105      0.0270
    124  CG       -29.8000   22.8260  322.8810 C.3   105  LEU105      0.0019
    125  CD1      -28.8030   21.7250  323.1500 C.3   105  LEU105      0.0001
    126  CD2      -29.1260   24.1050  322.7420 C.3   105  LEU105      0.0001
    127  N        -23.8120    4.1930  313.4070 N.3   148  LEU148     -0.1245
    128  CA       -24.3480    4.2960  314.7600 C.3   148  LEU148      0.1561
    129  C        -24.6790    2.9380  315.2800 C.2   148  LEU148      0.2260
    130  O        -24.3510    2.5990  316.4210 O.2   148  LEU148     -0.2867
    131  CB       -25.6040    5.1860  314.8040 C.3   148  LEU148      0.0270
    132  CG       -25.6200    6.2400  315.8770 C.3   148  LEU148      0.0019
    133  CD1      -26.8580    7.1020  315.7500 C.3   148  LEU148      0.0001
    134  CD2      -25.5960    5.5500  317.2040 C.3   148  LEU148      0.0001
    135  N        -21.3880    1.1550  316.1170 N.3   151  GLY151     -0.1210
    136  CA       -20.8660    1.6660  317.3690 C.3   151  GLY151      0.1956
    137  C        -21.6710    1.2450  318.5770 C.2   151  GLY151      0.2611
    138  O        -21.1110    0.9190  319.6230 O.2   151  GLY151     -0.2717
    139  N        -23.0040    1.2630  318.4680 N.am  152  PHE152     -0.1976
    140  CA       -23.8140    0.9080  319.6250 C.3   152  PHE152      0.1639
    141  C        -23.5010   -0.5140  320.0580 C.2   152  PHE152      0.2290
    142  O        -23.3000   -0.7850  321.2410 O.2   152  PHE152     -0.2864
    143  CB       -25.3110    1.1040  319.3180 C.3   152  PHE152      0.0560
    144  CG       -26.2070    0.5890  320.3850 C.ar  152  PHE152     -0.0200
    145  CD1      -26.1730    1.1280  321.6460 C.ar  152  PHE152     -0.0042
    146  CD2      -27.0720   -0.4540  320.1290 C.ar  152  PHE152     -0.0042
    147  CE1      -26.9740    0.6120  322.6560 C.ar  152  PHE152     -0.0003
    148  CE2      -27.8890   -0.9530  321.1130 C.ar  152  PHE152     -0.0003
    149  CZ       -27.8380   -0.4270  322.3840 C.ar  152  PHE152     -0.0000
    150  N        -19.4080   -1.0120  321.1130 N.3   155  PHE155     -0.1227
    151  CA       -18.8830   -0.2940  322.2750 C.3   155  PHE155      0.1736
    152  C        -19.8360   -0.2690  323.4490 C.2   155  PHE155      0.2595
    153  O        -19.4510   -0.6700  324.5590 O.2   155  PHE155     -0.2718
    154  CB       -18.5520    1.1390  321.9120 C.3   155  PHE155      0.0547
    155  CG       -17.4930    1.2130  320.9320 C.ar  155  PHE155     -0.0202
    156  CD1      -16.2220    0.8030  321.2720 C.ar  155  PHE155     -0.0042
    157  CD2      -17.7630    1.5760  319.6450 C.ar  155  PHE155     -0.0042
    158  CE1      -15.2510    0.8250  320.3700 C.ar  155  PHE155     -0.0003
    159  CE2      -16.7860    1.5820  318.7470 C.ar  155  PHE155     -0.0003
    160  CZ       -15.5200    1.2010  319.1090 C.ar  155  PHE155     -0.0000
    161  N        -21.0560    0.2340  323.2450 N.am  156  HIS156     -0.1975
    162  CA       -21.9880    0.3210  324.3520 C.3   156  HIS156      0.1656
    163  C        -22.3120   -1.0670  324.9100 C.2   156  HIS156      0.2291
    164  O        -22.1620   -1.3110  326.1050 O.2   156  HIS156     -0.2864
    165  CB       -23.2780    1.0500  323.9390 C.3   156  HIS156      0.0771
    166  CG       -24.2480    1.1670  325.0780 C.ar  156  HIS156      0.0820
    167  ND1      -24.7630    2.3700  325.5010 N.ar  156  HIS156     -0.2267
    168  CD2      -24.7170    0.2290  325.9410 C.ar  156  HIS156      0.1154
    169  CE1      -25.5380    2.1640  326.5500 C.ar  156  HIS156      0.1986
    170  NE2      -25.5380    0.8720  326.8320 N.ar  156  HIS156     -0.2212
    171  N        -16.5020    0.3680  325.6540 N.3   161  PHE161     -0.1227
    172  CA       -16.5460    1.7820  325.9310 C.3   161  PHE161      0.1736
    173  C        -18.0230    2.0510  326.1760 C.2   161  PHE161      0.2596
    174  O        -18.7530    2.5230  325.3160 O.2   161  PHE161     -0.2718
    175  CB       -15.9700    2.6270  324.8020 C.3   161  PHE161      0.0547
    176  CG       -15.8920    4.0800  325.1420 C.ar  161  PHE161     -0.0202
    177  CD1      -15.3560    4.4830  326.3420 C.ar  161  PHE161     -0.0042
    178  CD2      -16.3780    5.0390  324.2860 C.ar  161  PHE161     -0.0042
    179  CE1      -15.2860    5.8270  326.6690 C.ar  161  PHE161     -0.0003
    180  CE2      -16.3330    6.3700  324.6270 C.ar  161  PHE161     -0.0003
    181  CZ       -15.7770    6.7610  325.8180 C.ar  161  PHE161     -0.0000
    182  N        -18.4590    1.6610  327.3530 N.am  162  GLY162     -0.1943
    183  CA       -19.8390    1.7230  327.7090 C.3   162  GLY162      0.1998
    184  C        -20.2470    0.6470  328.6840 C.2   162  GLY162      0.2480
    185  O        -19.4640   -0.2480  329.0150 O.2   162  GLY162     -0.2729
    186  N        -21.5200    0.6760  329.0890 N.am  163  PRO163     -0.2726
    187  CA       -21.9620   -0.0650  330.2790 C.3   163  PRO163      0.1402
    188  C        -22.4760   -1.4590  330.0290 C.2   163  PRO163      0.2269
    189  O        -22.6330   -2.2120  330.9930 O.2   163  PRO163     -0.2865
    190  CB       -23.1120    0.8120  330.8140 C.3   163  PRO163      0.0296
    191  CG       -23.7150    1.3650  329.5700 C.3   163  PRO163      0.0237
    192  CD       -22.5270    1.6630  328.6630 C.3   163  PRO163      0.0939
@<TRIPOS>BOND
     1   127   128    1
     2   128   131    1
     3   128   129    1
     4   131   132    1
     5   129   130    2
     6   133   132    1
     7   132   134    1
     8   135   136    1
     9   136   137    1
    10   139   137   am
    11   139   140    1
    12   137   138    2
    13   159   160   ar
    14   159   157   ar
    15   160   158   ar
    16   122   121    2
    17   143   140    1
    18   143   144    1
    19   140   141    1
    20   157   155   ar
    21   141   142    2
    22   146   144   ar
    23   146   148   ar
    24   121   120    1
    25   158   156   ar
    26   144   145   ar
    27   155   156   ar
    28   155   154    1
    29   148   149   ar
    30   150   151    1
    31   117   116    1
    32   120   123    1
    33   120   119    1
    34   123   124    1
    35   145   147   ar
    36   154   151    1
    37   118   116    1
    38   114   113    2
    39   116   115    1
    40   151   152    1
    41   149   147   ar
    42   126   124    1
    43   124   125    1
    44   113   112    1
    45   161   152   am
    46   161   162    1
    47   152   153    2
    48   115   112    1
    49   112   111    1
    50   165   162    1
    51   165   166    1
    52   178   180   ar
    53   178   176   ar
    54   162   163    1
    55   180   181   ar
    56   175   176    1
    57   175   172    1
    58   163   164    2
    59   107   106    2
    60   166   167   ar
    61   166   168   ar
    62   176   177   ar
    63   111   106   am
    64   174   173    2
    65    15    14    1
    66   101   103   ar
    67   101    99   ar
    68   103   102   ar
    69   167   169   ar
    70    16    14    1
    71   171   172    1
    72   106   105    1
    73   181   179   ar
    74   172   173    1
    75    97    96    2
    76   168   170   ar
    77   173   182   am
    78    14    13    1
    79   177   179   ar
    80   169   170   ar
    81    99    98    1
    82    99   100   ar
    83   102   100   ar
    84    92    91    2
    85    95    96    1
    86    95    98    1
    87    95    94    1
    88   109   108    1
    89   105   108    1
    90   105   104    1
    91   182   183    1
    92    13    10    1
    93   183   184    1
    94   108   110    1
    95    91    94   am
    96    91    90    1
    97    10     9    1
    98    10    11    1
    99   192   186    1
   100   192   191    1
   101   184   185    2
   102   184   186   am
   103    93    90    1
   104    73    71   ar
   105    73    72   ar
   106    90    89    1
   107    71    69   ar
   108    12    11    2
   109   186   187    1
   110    11    17   am
   111   191   190    1
   112    72    70   ar
   113    84    83    2
   114    69    68   ar
   115    69    67   ar
   116    77    76    2
   117   188   187    1
   118   188   189    2
   119    79    78    1
   120    89    83   am
   121    68    66   ar
   122   187   190    1
   123     1     2    1
   124    83    82    1
   125    70    67   ar
   126    67    65   ar
   127    17    18    1
   128     2     3    1
   129     2     5    1
   130    76    75    1
   131     6     5    1
   132     6     7    1
   133     4     3    2
   134    66    65   ar
   135    78    75    1
   136    78    80    1
   137    75    74    1
   138    65    64    1
   139    18    19    1
   140    27    25    1
   141    58    59   ar
   142    58    56   ar
   143    87    86    1
   144    82    81    1
   145    82    85    1
   146     7     8    1
   147    59    57   ar
   148    56    54   ar
   149    64    61    1
   150    88    86    1
   151    21    19   am
   152    21    22    1
   153    19    20    2
   154    86    85    1
   155    25    22    1
   156    25    26    1
   157    57    55   ar
   158    22    23    1
   159    54    55   ar
   160    54    53    1
   161    61    60    1
   162    61    62    1
   163    53    50    1
   164    60    51   am
   165    63    62    2
   166    24    23    2
   167    51    52    2
   168    51    50    1
   169    50    49    1
   170    39    41   ar
   171    39    37   ar
   172    45    44    2
   173    41    40   ar
   174    37    36   ar
   175    37    35   ar
   176    40    38   ar
   177    44    43    1
   178    36    34   ar
   179    46    43    1
   180    46    47    1
   181    43    42    1
   182    35    38   ar
   183    35    33   ar
   184    34    33   ar
   185    47    48    1
   186    33    32    1
   187    42    48    1
   188    28    29    1
   189    32    29    1
   190    29    30    1
   191    30    31    2
