@<TRIPOS>MOLECULE
tmp/6dhpV20.pdb
 90 87 0 0 0
SMALL
GASTEIGER

@<TRIPOS>ATOM
      1  N        -29.3270   10.4090  341.4640 N.3    74  TRP74      -0.1227
      2  CA       -28.4600   11.3100  342.2120 C.3    74  TRP74       0.1737
      3  C        -28.7860   11.3120  343.7070 C.2    74  TRP74       0.2596
      4  O        -27.9750   11.8170  344.4930 O.2    74  TRP74      -0.2718
      5  CB       -28.5690   12.7320  341.6480 C.3    74  TRP74       0.0564
      6  CG       -27.9180   12.9520  340.3780 C.ar   74  TRP74       0.0003
      7  CD1      -26.9390   12.1860  339.7990 C.ar   74  TRP74       0.0946
      8  CD2      -28.1840   14.0180  339.4690 C.ar   74  TRP74       0.0152
      9  NE1      -26.5830   12.7210  338.5770 N.ar   74  TRP74      -0.2442
     10  CE2      -27.3310   13.8490  338.3590 C.ar   74  TRP74       0.0810
     11  CE3      -29.0610   15.1030  339.4840 C.ar   74  TRP74       0.0012
     12  CZ2      -27.3360   14.7240  337.2780 C.ar   74  TRP74       0.0191
     13  CZ3      -29.0440   15.9780  338.4290 C.ar   74  TRP74       0.0001
     14  CH2      -28.1790   15.7900  337.3390 C.ar   74  TRP74       0.0015
     15  N        -29.9570   10.7820  344.1280 N.am   75  SER75      -0.1952
     16  CA       -30.2360   10.6950  345.5640 C.3    75  SER75       0.1924
     17  C        -29.6140    9.4700  346.2240 C.2    75  SER75       0.2314
     18  O        -29.7970    9.2760  347.4380 O.2    75  SER75      -0.2863
     19  CB       -31.7450   10.7170  345.8910 C.3    75  SER75       0.2116
     20  OG       -32.5850   10.1350  344.9220 O.3    75  SER75      -0.2180
     21  N        -22.6600    6.4290  343.7050 N.3    86  ASP86      -0.1225
     22  CA       -22.5490    7.7180  343.0330 C.3    86  ASP86       0.1790
     23  C        -22.5360    7.4340  341.5420 C.2    86  ASP86       0.2440
     24  O        -21.5210    6.9600  341.0090 O.2    86  ASP86      -0.2733
     25  CB       -21.3000    8.4970  343.4470 C.3    86  ASP86       0.1423
     26  CG       -21.3490    9.9410  342.9900 C.2    86  ASP86       0.3668
     27  OD1      -21.9620   10.8050  343.7020 O.co2  86  ASP86      -0.2456
     28  OD2      -20.7810   10.1870  341.8970 O.co2  86  ASP86      -0.2456
     29  N        -23.6440    7.6770  340.8330 N.am   87  PRO87      -0.2718
     30  CA       -23.7040    7.3590  339.4000 C.3    87  PRO87       0.1535
     31  C        -22.9990    8.3740  338.5020 C.2    87  PRO87       0.2599
     32  O        -22.8560    8.1140  337.2990 O.2    87  PRO87      -0.2715
     33  CB       -25.2110    7.3270  339.1390 C.3    87  PRO87       0.0310
     34  CG       -25.7610    8.3860  340.0860 C.3    87  PRO87       0.0237
     35  CD       -24.8550    8.3710  341.3040 C.3    87  PRO87       0.0939
     36  N        -22.5330    9.4900  339.0350 N.am   88  GLY88      -0.1941
     37  CA       -22.0380   10.4980  338.1410 C.3    88  GLY88       0.2014
     38  C        -23.2020   11.1360  337.4140 C.2    88  GLY88       0.2638
     39  O        -24.3570   11.0940  337.8550 O.2    88  GLY88      -0.2714
     40  N        -22.8930   11.7020  336.2590 N.am   89  PHE89      -0.1973
     41  CA       -23.8910   12.4870  335.5620 C.3    89  PHE89       0.1639
     42  C        -25.0140   11.6050  335.0150 C.2    89  PHE89       0.2290
     43  O        -26.1900   11.9650  335.1180 O.2    89  PHE89      -0.2864
     44  CB       -23.2530   13.2970  334.4440 C.3    89  PHE89       0.0560
     45  CG       -24.2540   14.1230  333.7180 C.ar   89  PHE89      -0.0200
     46  CD1      -24.7370   15.2940  334.2830 C.ar   89  PHE89      -0.0042
     47  CD2      -24.8020   13.6840  332.5300 C.ar   89  PHE89      -0.0042
     48  CE1      -25.7040   16.0200  333.6610 C.ar   89  PHE89      -0.0003
     49  CE2      -25.8110   14.4390  331.8860 C.ar   89  PHE89      -0.0003
     50  CZ       -26.2480   15.5970  332.4540 C.ar   89  PHE89      -0.0000
     51  N        -31.8550   11.2140  336.6780 N.3    93  GLU93      -0.1245
     52  CA       -32.0030   12.6710  336.6300 C.3    93  GLU93       0.1567
     53  C        -31.2450   13.2820  335.4670 C.2    93  GLU93       0.2260
     54  O        -31.7980   14.0940  334.7160 O.2    93  GLU93      -0.2867
     55  CB       -31.5330   13.3010  337.9440 C.3    93  GLU93       0.0388
     56  CG       -32.4260   12.9110  339.1520 C.3    93  GLU93       0.1160
     57  CD       -32.0140   11.5840  339.7340 C.2    93  GLU93       0.3649
     58  OE1      -32.6330   11.1240  340.7260 O.co2  93  GLU93      -0.2457
     59  OE2      -31.0280   11.0180  339.1940 O.co2  93  GLU93      -0.2457
     60  N        -32.6170   15.4390  332.3190 N.3    97  LEU97      -0.1245
     61  CA       -32.0780   16.7670  332.0320 C.3    97  LEU97       0.1561
     62  C        -31.5810   16.8790  330.6050 C.2    97  LEU97       0.2260
     63  O        -31.8780   17.8470  329.9000 O.2    97  LEU97      -0.2867
     64  CB       -30.9370   17.0790  333.0150 C.3    97  LEU97       0.0270
     65  CG       -30.1170   18.3950  332.9800 C.3    97  LEU97       0.0019
     66  CD1      -28.9470   18.4420  331.9720 C.3    97  LEU97       0.0001
     67  CD2      -31.0590   19.5670  332.6900 C.3    97  LEU97       0.0001
     68  N        -32.7380   19.6210  327.8480 N.3   101  VAL101     -0.1245
     69  CA       -31.8140   20.5250  327.1930 C.3   101  VAL101      0.1561
     70  C        -31.8430   20.2940  325.7020 C.2   101  VAL101      0.2260
     71  O        -31.8860   21.2460  324.9140 O.2   101  VAL101     -0.2867
     72  CB       -30.3950   20.3530  327.7660 C.3   101  VAL101      0.0252
     73  CG1      -29.4730   21.2560  327.0130 C.3   101  VAL101      0.0019
     74  CG2      -30.3740   20.6600  329.2760 C.3   101  VAL101      0.0019
     75  N        -32.7390   23.0120  322.6220 N.3   105  LEU105     -0.1245
     76  CA       -31.8720   23.3250  321.4860 C.3   105  LEU105      0.1561
     77  C        -32.5520   23.0210  320.1560 C.2   105  LEU105      0.2260
     78  O        -32.4200   23.7870  319.1970 O.2   105  LEU105     -0.2867
     79  CB       -30.5760   22.5350  321.6070 C.3   105  LEU105      0.0270
     80  CG       -29.8000   22.8260  322.8810 C.3   105  LEU105      0.0019
     81  CD1      -28.8030   21.7250  323.1500 C.3   105  LEU105      0.0001
     82  CD2      -29.1260   24.1050  322.7420 C.3   105  LEU105      0.0001
     83  N        -34.9230   25.7660  319.1800 N.3   108  LEU108     -0.1245
     84  CA       -34.3060   26.9390  318.5770 C.3   108  LEU108      0.1561
     85  C        -33.8750   26.6470  317.1490 C.2   108  LEU108      0.2260
     86  O        -34.0860   27.4900  316.2640 O.2   108  LEU108     -0.2867
     87  CB       -33.1400   27.4260  319.4300 C.3   108  LEU108      0.0270
     88  CG       -33.5860   27.9120  320.8070 C.3   108  LEU108      0.0019
     89  CD1      -32.3300   28.0710  321.6500 C.3   108  LEU108      0.0001
     90  CD2      -34.3650   29.1920  320.7740 C.3   108  LEU108      0.0001
@<TRIPOS>BOND
     1    86    85    2
     2    85    84    1
     3    84    83    1
     4    84    87    1
     5    78    77    2
     6    87    88    1
     7    77    76    1
     8    90    88    1
     9    88    89    1
    10    76    79    1
    11    76    75    1
    12    79    80    1
    13    82    80    1
    14    80    81    1
    15    71    70    2
    16    70    69    1
    17    73    72    1
    18    69    72    1
    19    69    68    1
    20    72    74    1
    21    63    62    2
    22    62    61    1
    23    49    50   ar
    24    49    47   ar
    25    66    65    1
    26    61    60    1
    27    61    64    1
    28    50    48   ar
    29    47    45   ar
    30    67    65    1
    31    65    64    1
    32    48    46   ar
    33    45    46   ar
    34    45    44    1
    35    44    41    1
    36    54    53    2
    37    42    43    2
    38    42    41    1
    39    53    52    1
    40    41    40    1
    41    40    38   am
    42    52    51    1
    43    52    55    1
    44    12    14   ar
    45    12    10   ar
    46    32    31    2
    47    14    13   ar
    48    38    39    2
    49    38    37    1
    50    55    56    1
    51    37    36    1
    52    10     9   ar
    53    10     8   ar
    54    13    11   ar
    55    31    36   am
    56    31    30    1
    57     9     7   ar
    58    33    30    1
    59    33    34    1
    60    56    57    1
    61    59    57   ar
    62    30    29    1
    63     8    11   ar
    64     8     6   ar
    65    57    58   ar
    66     7     6   ar
    67    34    35    1
    68     6     5    1
    69    29    35    1
    70    29    23   am
    71    24    23    2
    72     1     2    1
    73    23    22    1
    74     5     2    1
    75    28    26   ar
    76     2     3    1
    77    26    25    1
    78    26    27   ar
    79    22    25    1
    80    22    21    1
    81     3    15   am
    82     3     4    2
    83    15    16    1
    84    20    19    1
    85    16    19    1
    86    16    17    1
    87    17    18    2
