@<TRIPOS>MOLECULE
tmp/6dhpV13.pdb
 138 133 0 0 0
SMALL
GASTEIGER

@<TRIPOS>ATOM
      1  N        -25.6510    5.1520  305.5230 N.3   143  PHE143     -0.1241
      2  CA       -24.2740    5.1500  306.0180 C.3   143  PHE143      0.1605
      3  C        -24.2350    5.5420  307.4860 C.2   143  PHE143      0.2264
      4  O        -23.6000    4.8610  308.2940 O.2   143  PHE143     -0.2867
      5  CB       -23.4060    6.0950  305.1820 C.3   143  PHE143      0.0534
      6  CG       -21.9370    6.0910  305.5810 C.ar  143  PHE143     -0.0203
      7  CD1      -21.1220    5.0080  305.2760 C.ar  143  PHE143     -0.0042
      8  CD2      -21.3860    7.1720  306.2580 C.ar  143  PHE143     -0.0042
      9  CE1      -19.7720    4.9920  305.6440 C.ar  143  PHE143     -0.0003
     10  CE2      -20.0190    7.1700  306.6310 C.ar  143  PHE143     -0.0003
     11  CZ       -19.2180    6.0810  306.3180 C.ar  143  PHE143     -0.0000
     12  N        -23.1940    3.2320  310.7780 N.3   147  LEU147     -0.1245
     13  CA       -22.1390    3.5960  311.7220 C.3   147  LEU147      0.1561
     14  C        -22.6430    3.5670  313.1620 C.2   147  LEU147      0.2260
     15  O        -21.9850    3.0060  314.0520 O.2   147  LEU147     -0.2867
     16  CB       -21.6060    4.9850  311.3950 C.3   147  LEU147      0.0270
     17  CG       -20.5370    5.0250  310.3220 C.3   147  LEU147      0.0019
     18  CD1      -20.0890    6.4460  310.0940 C.3   147  LEU147      0.0001
     19  CD2      -19.3900    4.1430  310.7700 C.3   147  LEU147      0.0001
     20  N        -23.4200    0.0870  314.3320 N.3   150  PHE150     -0.1241
     21  CA       -22.1620   -0.6090  314.6430 C.3   150  PHE150      0.1605
     22  C        -21.5970   -0.1440  315.9790 C.2   150  PHE150      0.2264
     23  O        -21.3500   -0.9400  316.8900 O.2   150  PHE150     -0.2867
     24  CB       -21.1330   -0.3770  313.5360 C.3   150  PHE150      0.0534
     25  CG       -19.7510   -0.9060  313.8840 C.ar  150  PHE150     -0.0203
     26  CD1      -19.4800   -2.2510  313.8280 C.ar  150  PHE150     -0.0042
     27  CD2      -18.7480   -0.0510  314.3060 C.ar  150  PHE150     -0.0042
     28  CE1      -18.2570   -2.7420  314.1450 C.ar  150  PHE150     -0.0003
     29  CE2      -17.5050   -0.5290  314.6180 C.ar  150  PHE150     -0.0003
     30  CZ       -17.2540   -1.8870  314.5390 C.ar  150  PHE150     -0.0000
     31  N        -20.7250   -2.4170  319.0820 N.3   154  ALA154     -0.1231
     32  CA       -19.2970   -2.6940  319.3190 C.3   154  ALA154      0.1694
     33  C        -18.8240   -2.1230  320.6480 C.2   154  ALA154      0.2592
     34  O        -17.9670   -2.7260  321.2940 O.2   154  ALA154     -0.2718
     35  CB       -18.4020   -2.1710  318.1800 C.3   154  ALA154      0.0304
     36  N        -19.4080   -1.0120  321.1130 N.am  155  PHE155     -0.1976
     37  CA       -18.8830   -0.2940  322.2750 C.3   155  PHE155      0.1639
     38  C        -19.8360   -0.2690  323.4490 C.2   155  PHE155      0.2290
     39  O        -19.4510   -0.6700  324.5590 O.2   155  PHE155     -0.2864
     40  CB       -18.5520    1.1390  321.9120 C.3   155  PHE155      0.0560
     41  CG       -17.4930    1.2130  320.9320 C.ar  155  PHE155     -0.0200
     42  CD1      -16.2220    0.8030  321.2720 C.ar  155  PHE155     -0.0042
     43  CD2      -17.7630    1.5760  319.6450 C.ar  155  PHE155     -0.0042
     44  CE1      -15.2510    0.8250  320.3700 C.ar  155  PHE155     -0.0003
     45  CE2      -16.7860    1.5820  318.7470 C.ar  155  PHE155     -0.0003
     46  CZ       -15.5200    1.2010  319.1090 C.ar  155  PHE155     -0.0000
     47  N        -21.0420   -4.2690  324.1650 N.3   158  THR158     -0.1203
     48  CA       -19.8910   -5.1030  324.5410 C.3   158  THR158      0.1994
     49  C        -19.2460   -4.6060  325.8150 C.2   158  THR158      0.2618
     50  O        -18.6330   -5.3950  326.5490 O.2   158  THR158     -0.2717
     51  CB       -18.8070   -5.1280  323.4810 C.3   158  THR158      0.1784
     52  OG1      -18.3200   -3.7910  323.3200 O.3   158  THR158     -0.2211
     53  CG2      -19.2810   -5.7060  322.1420 C.3   158  THR158      0.0376
     54  N        -19.3940   -3.3150  326.1060 N.am  159  GLY159     -0.1942
     55  CA       -18.7250   -2.7260  327.2600 C.3   159  GLY159      0.2014
     56  C        -17.2760   -2.3200  327.0400 C.2   159  GLY159      0.2638
     57  O        -16.5780   -2.0120  328.0190 O.2   159  GLY159     -0.2714
     58  N        -16.7940   -2.3580  325.7950 N.am  160  LEU160     -0.1977
     59  CA       -15.4820   -1.8170  325.4840 C.3   160  LEU160      0.1596
     60  C        -15.4090   -0.3550  325.8750 C.2   160  LEU160      0.2287
     61  O        -14.3750    0.1280  326.3570 O.2   160  LEU160     -0.2864
     62  CB       -15.1990   -1.9700  323.9950 C.3   160  LEU160      0.0297
     63  CG       -14.9480   -3.3990  323.5500 C.3   160  LEU160      0.0022
     64  CD1      -14.6200   -3.3720  322.0750 C.3   160  LEU160      0.0001
     65  CD2      -13.8010   -4.0300  324.3530 C.3   160  LEU160      0.0001
     66  N        -21.5910   -6.1410  330.6970 N.3   179  PRO179     -0.2116
     67  CA       -21.1600   -6.2150  329.2970 C.3   179  PRO179      0.1372
     68  C        -21.5850   -7.5610  328.7460 C.2   179  PRO179      0.2244
     69  O        -21.6760   -8.5430  329.4710 O.2   179  PRO179     -0.2868
     70  CB       -19.6310   -6.0860  329.3670 C.3   179  PRO179      0.0268
     71  CG       -19.3700   -5.4290  330.6830 C.3   179  PRO179      0.0207
     72  CD       -20.4570   -5.8690  331.6050 C.3   179  PRO179      0.0892
     73  N        -20.8270  -10.1700  325.4920 N.3   181  ALA181     -0.1231
     74  CA       -20.0320  -10.6020  324.3570 C.3   181  ALA181      0.1679
     75  C        -20.9490  -11.0280  323.2120 C.2   181  ALA181      0.2434
     76  O        -22.0060  -11.6360  323.4440 O.2   181  ALA181     -0.2733
     77  CB       -19.1360  -11.7680  324.7630 C.3   181  ALA181      0.0304
     78  N        -20.5740  -10.7510  321.9740 N.am  182  PRO182     -0.2729
     79  CA       -21.4290  -11.1950  320.8670 C.3   182  PRO182      0.1401
     80  C        -21.4090  -12.7140  320.7110 C.2   182  PRO182      0.2269
     81  O        -20.4480  -13.4060  321.0710 O.2   182  PRO182     -0.2865
     82  CB       -20.8380  -10.4850  319.6360 C.3   182  PRO182      0.0296
     83  CG       -19.4980   -9.6960  320.1700 C.3   182  PRO182      0.0237
     84  CD       -19.2430  -10.2630  321.5220 C.3   182  PRO182      0.0939
     85  N        -21.8400  -15.4100  317.8190 N.3   184  TRP184     -0.1241
     86  CA       -21.6950  -15.4160  316.3780 C.3   184  TRP184      0.1605
     87  C        -22.3210  -16.6390  315.7630 C.2   184  TRP184      0.2264
     88  O        -22.5130  -16.6920  314.5410 O.2   184  TRP184     -0.2867
     89  CB       -20.2070  -15.3430  316.0280 C.3   184  TRP184      0.0550
     90  CG       -19.6790  -14.0230  316.3200 C.ar  184  TRP184      0.0003
     91  CD1      -18.7490  -13.6840  317.2570 C.ar  184  TRP184      0.0946
     92  CD2      -20.0920  -12.8180  315.6980 C.ar  184  TRP184      0.0152
     93  NE1      -18.5510  -12.3290  317.2440 N.ar  184  TRP184     -0.2442
     94  CE2      -19.3540  -11.7730  316.2820 C.ar  184  TRP184      0.0810
     95  CE3      -21.0180  -12.5200  314.6920 C.ar  184  TRP184      0.0012
     96  CZ2      -19.4970  -10.4490  315.8850 C.ar  184  TRP184      0.0191
     97  CZ3      -21.1620  -11.2040  314.3030 C.ar  184  TRP184      0.0001
     98  CH2      -20.4080  -10.1840  314.8990 C.ar  184  TRP184      0.0015
     99  N        -23.4080   -5.3890  315.4880 N.3   202  ILE202     -0.1245
    100  CA       -22.1210   -5.3410  314.7770 C.3   202  ILE202      0.1561
    101  C        -22.3080   -5.7190  313.3110 C.2   202  ILE202      0.2260
    102  O        -22.0150   -4.9390  312.3950 O.2   202  ILE202     -0.2867
    103  CB       -21.1060   -6.2510  315.4830 C.3   202  ILE202      0.0252
    104  CG1      -20.8090   -5.6840  316.8720 C.3   202  ILE202      0.0019
    105  CG2      -19.7960   -6.4050  314.6530 C.3   202  ILE202      0.0019
    106  CD1      -20.2860   -6.7450  317.8320 C.3   202  ILE202      0.0001
    107  N        -22.1730   -3.1220  310.0730 N.3   206  ILE206     -0.1245
    108  CA       -21.2670   -3.1810  308.9300 C.3   206  ILE206      0.1561
    109  C        -22.0600   -3.1720  307.6300 C.2   206  ILE206      0.2260
    110  O        -21.8100   -2.3660  306.7280 O.2   206  ILE206     -0.2867
    111  CB       -20.3650   -4.4210  309.0260 C.3   206  ILE206      0.0252
    112  CG1      -19.2030   -4.1390  309.9620 C.3   206  ILE206      0.0019
    113  CG2      -19.8730   -4.7830  307.6400 C.3   206  ILE206      0.0019
    114  CD1      -18.6920   -5.3590  310.7130 C.3   206  ILE206      0.0001
    115  N        -23.2230    0.0940  306.9220 N.3   209  ILE209     -0.1231
    116  CA       -22.1340    0.9190  306.3870 C.3   209  ILE209      0.1692
    117  C        -21.9220    0.6050  304.9090 C.2   209  ILE209      0.2591
    118  O        -21.8770    1.5050  304.0640 O.2   209  ILE209     -0.2718
    119  CB       -20.8300    0.7340  307.1900 C.3   209  ILE209      0.0266
    120  CG1      -20.9950    1.2680  308.6050 C.3   209  ILE209      0.0019
    121  CG2      -19.6200    1.5090  306.4860 C.3   209  ILE209      0.0020
    122  CD1      -20.2010    0.4770  309.6570 C.3   209  ILE209      0.0001
    123  N        -21.8680   -0.6770  304.5540 N.am  210  ILE210     -0.1980
    124  CA       -21.5680   -0.9890  303.1670 C.3   210  ILE210      0.1595
    125  C        -22.7160   -0.6250  302.2610 C.2   210  ILE210      0.2287
    126  O        -22.5040   -0.2170  301.1130 O.2   210  ILE210     -0.2864
    127  CB       -21.2070   -2.4640  303.0100 C.3   210  ILE210      0.0276
    128  CG1      -19.8400   -2.7020  303.6230 C.3   210  ILE210      0.0022
    129  CG2      -21.3240   -2.8300  301.5200 C.3   210  ILE210      0.0022
    130  CD1      -19.6630   -4.1050  304.0900 C.3   210  ILE210      0.0001
    131  N        -22.6860    3.0510  301.6110 N.3   213  LEU213     -0.1245
    132  CA       -21.6910    3.3510  300.5880 C.3   213  LEU213      0.1561
    133  C        -22.2410    3.0900  299.1950 C.2   213  LEU213      0.2260
    134  O        -22.1280    3.9440  298.3080 O.2   213  LEU213     -0.2867
    135  CB       -20.4040    2.5340  300.8460 C.3   213  LEU213      0.0270
    136  CG       -19.5930    3.0780  302.0200 C.3   213  LEU213      0.0019
    137  CD1      -18.6610    2.0120  302.5750 C.3   213  LEU213      0.0001
    138  CD2      -18.8220    4.2880  301.5970 C.3   213  LEU213      0.0001
@<TRIPOS>BOND
     1   134   133    2
     2   133   132    1
     3   132   135    1
     4   132   131    1
     5   135   136    1
     6   126   125    2
     7   129   127    1
     8   138   136    1
     9   136   137    1
    10   125   124    1
    11   127   124    1
    12   127   128    1
    13   124   123    1
    14   128   130    1
    15   118   117    2
    16   123   117   am
    17   117   116    1
    18     5     6    1
    19     5     2    1
    20     7     6   ar
    21     7     9   ar
    22     1     2    1
    23     6     8   ar
    24     9    11   ar
    25     2     3    1
    26     8    10   ar
    27    11    10   ar
    28   116   115    1
    29   116   119    1
    30   121   119    1
    31   110   109    2
    32   119   120    1
    33     3     4    2
    34   109   108    1
    35   113   111    1
    36   120   122    1
    37   108   111    1
    38   108   107    1
    39   111   112    1
    40   112   114    1
    41    18    17    1
    42    17    19    1
    43    17    16    1
    44    12    13    1
    45    16    13    1
    46    13    14    1
    47   102   101    2
    48    14    15    2
    49   101   100    1
    50    24    25    1
    51    24    21    1
    52    26    25   ar
    53    26    28   ar
    54    25    27   ar
    55    28    30   ar
    56    97    95   ar
    57    97    98   ar
    58    27    29   ar
    59    20    21    1
    60    30    29   ar
    61    88    87    2
    62    21    22    1
    63   105   103    1
    64    95    92   ar
    65   100   103    1
    66   100    99    1
    67    98    96   ar
    68   103   104    1
    69    92    94   ar
    70    92    90   ar
    71    87    86    1
    72    96    94   ar
    73    22    23    2
    74    89    90    1
    75    89    86    1
    76    94    93   ar
    77    90    91   ar
    78    86    85    1
    79   104   106    1
    80    93    91   ar
    81    35    32    1
    82    45    46   ar
    83    45    43   ar
    84    31    32    1
    85    46    44   ar
    86    32    33    1
    87    82    83    1
    88    82    79    1
    89    43    41   ar
    90    83    84    1
    91    44    42   ar
    92    33    36   am
    93    33    34    2
    94    80    79    1
    95    80    81    2
    96    79    78    1
    97    41    42   ar
    98    41    40    1
    99    36    37    1
   100    84    78    1
   101    40    37    1
   102    78    75   am
   103    64    63    1
   104    53    51    1
   105    37    38    1
   106    75    76    2
   107    75    74    1
   108    52    51    1
   109    38    39    2
   110    51    48    1
   111    63    62    1
   112    63    65    1
   113    62    59    1
   114    47    48    1
   115    74    77    1
   116    74    73    1
   117    48    49    1
   118    59    58    1
   119    59    60    1
   120    58    56   am
   121    49    54   am
   122    49    50    2
   123    60    61    2
   124    54    55    1
   125    56    55    1
   126    56    57    2
   127    68    67    1
   128    68    69    2
   129    67    70    1
   130    67    66    1
   131    70    71    1
   132    71    72    1
   133    66    72    1
