@<TRIPOS>MOLECULE
tmp/6dhqC00.pdb
 114 104 0 0 0
SMALL
GASTEIGER

@<TRIPOS>ATOM
      1  N        -12.1600   40.9630   25.3460 N.3    90  LYS90      -0.1231
      2  CA       -12.7760   40.1190   24.3440 C.3    90  LYS90       0.1693
      3  C        -12.3640   40.6270   22.9720 C.2    90  LYS90       0.2593
      4  O        -12.3010   41.8390   22.7380 O.2    90  LYS90      -0.2718
      5  CB       -14.3170   40.1050   24.4880 C.3    90  LYS90       0.0285
      6  CG       -15.0260   38.9480   23.7820 C.3    90  LYS90       0.0035
      7  CD       -15.0610   37.7200   24.6660 C.3    90  LYS90       0.0206
      8  CE       -15.4260   36.4650   23.8820 C.3    90  LYS90       0.1093
      9  NZ       -14.6050   36.3030   22.6680 N.3    90  LYS90      -0.1314
     10  N        -12.0670   39.6990   22.0790 N.am   91  GLY91      -0.1942
     11  CA       -11.7670   40.0370   20.7030 C.3    91  GLY91       0.2014
     12  C        -11.1130   38.8820   19.9810 C.2    91  GLY91       0.2639
     13  O        -10.4530   38.0250   20.5750 O.2    91  GLY91      -0.2714
     14  N        -11.2800   38.8790   18.6600 N.am   92  GLY92      -0.1954
     15  CA       -10.8830   37.7460   17.8470 C.3    92  GLY92       0.1869
     16  C         -9.4030   37.6860   17.4890 C.2    92  GLY92       0.2309
     17  O         -8.5790   38.5140   17.8990 O.2    92  GLY92      -0.2863
     18  N        -13.5420   46.9050   19.3750 N.3   111  MET111     -0.1245
     19  CA       -14.1820   45.8880   20.2050 C.3   111  MET111      0.1570
     20  C        -14.7120   46.4940   21.5050 C.2   111  MET111      0.2261
     21  O        -15.8080   46.1450   21.9580 O.2   111  MET111     -0.2867
     22  CB       -13.2090   44.7490   20.5020 C.3   111  MET111      0.0387
     23  CG       -12.9840   43.7910   19.3600 C.3   111  MET111      0.0595
     24  SD       -14.4490   42.8910   18.8640 S.3   111  MET111     -0.1393
     25  CE       -15.1060   42.3660   20.4580 C.3   111  MET111      0.0692
     26  N        -17.8520   48.5780   20.4750 N.3   114  LYS114     -0.1245
     27  CA       -18.9240   47.7030   20.0200 C.3   114  LYS114      0.1561
     28  C        -19.5670   46.9750   21.1910 C.2   114  LYS114      0.2260
     29  O        -20.7980   46.8520   21.2520 O.2   114  LYS114     -0.2867
     30  CB       -18.3750   46.7190   18.9900 C.3   114  LYS114      0.0271
     31  CG       -19.0060   45.3530   19.0010 C.3   114  LYS114      0.0035
     32  CD       -18.4930   44.4710   17.8650 C.3   114  LYS114      0.0206
     33  CE       -17.0230   44.7330   17.5190 C.3   114  LYS114      0.1093
     34  NZ       -16.5860   43.9940   16.2790 N.3   114  LYS114     -0.1314
     35  N         -7.8490   42.3640   20.7530 N.3   126  LYS126     -0.1245
     36  CA        -7.7570   41.7680   19.4270 C.3   126  LYS126      0.1561
     37  C         -6.3540   41.2090   19.2340 C.2   126  LYS126      0.2260
     38  O         -5.3770   41.8130   19.6840 O.2   126  LYS126     -0.2867
     39  CB        -8.0690   42.7870   18.3370 C.3   126  LYS126      0.0271
     40  CG        -7.9550   42.2370   16.9180 C.3   126  LYS126      0.0035
     41  CD        -9.1570   41.3700   16.5830 C.3   126  LYS126      0.0206
     42  CE       -10.4430   42.1390   16.7760 C.3   126  LYS126      0.1093
     43  NZ       -11.6060   41.4260   16.1470 N.3   126  LYS126     -0.1314
     44  N        -11.4950   34.6580   20.0980 N.3   166  ALA166     -0.1231
     45  CA       -12.6260   34.2750   19.2580 C.3   166  ALA166      0.1679
     46  C        -12.1670   34.2450   17.8040 C.2   166  ALA166      0.2434
     47  O        -11.0220   34.6280   17.5200 O.2   166  ALA166     -0.2733
     48  CB       -13.7780   35.2710   19.4540 C.3   166  ALA166      0.0304
     49  N        -12.9910   33.7780   16.8680 N.am  167  PRO167     -0.2718
     50  CA       -12.5810   33.7970   15.4570 C.3   167  PRO167      0.1535
     51  C        -12.5650   35.2050   14.8780 C.2   167  PRO167      0.2598
     52  O        -13.2550   36.1110   15.3540 O.2   167  PRO167     -0.2715
     53  CB       -13.6460   32.9470   14.7540 C.3   167  PRO167      0.0310
     54  CG       -14.2540   32.1260   15.8180 C.3   167  PRO167      0.0237
     55  CD       -14.2010   32.9720   17.0630 C.3   167  PRO167      0.0939
     56  N        -11.7360   35.3800   13.8340 N.am  168  ASP168     -0.1972
     57  CA       -11.7500   36.5530   12.9580 C.3   168  ASP168      0.1709
     58  C        -11.3620   36.0840   11.5560 C.2   168  ASP168      0.2293
     59  O        -11.5950   34.9140   11.2240 O.2   168  ASP168     -0.2864
     60  CB       -10.8250   37.6550   13.4550 C.3   168  ASP168      0.1436
     61  CG       -11.1700   39.0070   12.8700 C.2   168  ASP168      0.3671
     62  OD1      -12.3200   39.4260   13.0220 O.co2 168  ASP168     -0.2456
     63  OD2      -10.3260   39.6640   12.2440 O.co2 168  ASP168     -0.2456
     64  N        -23.1440   30.1480   16.9480 N.3   211  ARG211     -0.1241
     65  CA       -22.0230   31.0990   16.9390 C.3   211  ARG211      0.1606
     66  C        -21.4810   31.2980   15.5360 C.2   211  ARG211      0.2264
     67  O        -21.1650   32.4260   15.1350 O.2   211  ARG211     -0.2867
     68  CB       -20.8760   30.6530   17.8370 C.3   211  ARG211      0.0562
     69  CG       -20.4380   31.6850   18.8670 C.2   211  ARG211      0.0159
     70  CD       -19.6280   32.9910   18.5690 C.2   211  ARG211      0.1886
     71  NE       -19.4610   33.4530   17.2220 N.pl3 211  ARG211     -0.0578
     72  CZ       -18.6830   34.4470   16.7840 C.cat 211  ARG211      0.5393
     73  NH1      -17.9030   35.1990   17.5600 N.pl3 211  ARG211      0.1358
     74  NH2      -18.6900   34.6720   15.4850 N.pl3 211  ARG211      0.1358
     75  N        -22.7660   36.2480   13.4140 N.3   215  THR215     -0.1218
     76  CA       -22.4650   37.6170   12.9620 C.3   215  THR215      0.1862
     77  C        -23.3550   38.0050   11.8130 C.2   215  THR215      0.2287
     78  O        -23.7930   39.1620   11.7190 O.2   215  THR215     -0.2866
     79  CB       -21.0070   37.7440   12.5290 C.3   215  THR215      0.1770
     80  OG1      -20.1740   37.1170   13.5560 O.3   215  THR215     -0.2211
     81  CG2      -20.6020   39.1890   12.4440 C.3   215  THR215      0.0375
     82  N        -15.2510   45.0130    9.9130 N.3   349  ASN349     -0.1240
     83  CA       -14.7300   46.0620   10.7690 C.3   349  ASN349      0.1653
     84  C        -13.9600   47.0990    9.9850 C.2   349  ASN349      0.2266
     85  O        -13.0440   46.7740    9.1970 O.2   349  ASN349     -0.2867
     86  CB       -13.8620   45.4960   11.8740 C.3   349  ASN349      0.1155
     87  CG       -14.6840   44.9780   13.0660 C.2   349  ASN349      0.2627
     88  OD1      -15.8300   45.3060   13.2450 O.2   349  ASN349     -0.2716
     89  ND2      -14.0650   44.1750   13.9000 N.am  349  ASN349     -0.0877
     90  N        -22.0660   44.5490   13.2970 N.3   374  ASN374     -0.1240
     91  CA       -21.4510   43.2250   13.3610 C.3   374  ASN374      0.1653
     92  C        -21.3430   42.6800   14.7910 C.2   374  ASN374      0.2266
     93  O        -20.8610   41.5510   14.9700 O.2   374  ASN374     -0.2867
     94  CB       -20.0730   43.2020   12.6460 C.3   374  ASN374      0.1155
     95  CG       -19.0260   44.0730   13.3230 C.2   374  ASN374      0.2627
     96  OD1      -18.9340   44.1510   14.5500 O.2   374  ASN374     -0.2716
     97  ND2      -18.2070   44.7110   12.5180 N.am  374  ASN374     -0.0877
     98  N        -21.6790   38.7540   16.6480 N.3   377  GLY377     -0.1210
     99  CA       -20.7290   37.7130   16.9920 C.3   377  GLY377      0.1956
    100  C        -20.2950   37.7960   18.4390 C.2   377  GLY377      0.2611
    101  O        -20.2100   36.7760   19.1350 O.2   377  GLY377     -0.2717
    102  N        -20.0230   39.0100   18.9200 N.am  378  VAL378     -0.1979
    103  CA       -19.5880   39.1470   20.3020 C.3   378  VAL378      0.1595
    104  C        -20.7470   38.9380   21.2560 C.2   378  VAL378      0.2287
    105  O        -20.5430   38.4810   22.3860 O.2   378  VAL378     -0.2864
    106  CB       -18.9080   40.5060   20.5190 C.3   378  VAL378      0.0276
    107  CG1      -19.9500   41.6460   20.5550 C.3   378  VAL378      0.0022
    108  CG2      -18.0730   40.4690   21.7980 C.3   378  VAL378      0.0022
    109  N        -20.9650   35.1890   21.4400 N.3   381  SER381     -0.1217
    110  CA       -19.7850   34.7560   22.1830 C.3   381  SER381      0.1889
    111  C        -19.9850   34.9740   23.6790 C.2   381  SER381      0.2288
    112  O        -19.5440   34.1660   24.4990 O.2   381  SER381     -0.2866
    113  CB       -18.5440   35.5240   21.7140 C.3   381  SER381      0.2089
    114  OG       -17.9150   34.8900   20.6160 O.3   381  SER381     -0.2183
@<TRIPOS>BOND
     1    85    84    2
     2    82    83    1
     3    84    83    1
     4    83    86    1
     5    59    58    2
     6    58    57    1
     7    78    77    2
     8    77    76    1
     9    86    87    1
    10    63    61   ar
    11    81    79    1
    12    97    95   am
    13    79    76    1
    14    79    80    1
    15    94    95    1
    16    94    91    1
    17    61    62   ar
    18    61    60    1
    19    57    60    1
    20    57    56    1
    21    76    75    1
    22    87    88    2
    23    87    89   am
    24    90    91    1
    25    95    96    2
    26    91    92    1
    27    56    51   am
    28    53    50    1
    29    53    54    1
    30    92    93    2
    31    51    52    2
    32    51    50    1
    33    67    66    2
    34    50    49    1
    35    74    72    1
    36    66    65    1
    37    54    55    1
    38    43    42    1
    39    34    33    1
    40    41    42    1
    41    41    40    1
    42    98    99    1
    43    72    71    2
    44    72    73    1
    45    49    55    1
    46    49    46   am
    47    40    39    1
    48    65    64    1
    49    65    68    1
    50    99   100    1
    51    71    70    1
    52    16    15    1
    53    16    17    2
    54    33    32    1
    55    47    46    2
    56    46    45    1
    57    68    69    1
    58    15    14    1
    59    32    31    1
    60    39    36    1
    61   100   102   am
    62   100   101    2
    63    70    69    2
    64    14    12   am
    65    24    23    1
    66    24    25    1
    67   102   103    1
    68    30    31    1
    69    30    27    1
    70    37    36    1
    71    37    38    2
    72    45    48    1
    73    45    44    1
    74    23    22    1
    75    18    19    1
    76    36    35    1
    77    12    13    2
    78    12    11    1
    79    27    26    1
    80    27    28    1
    81    19    22    1
    82    19    20    1
    83   103   106    1
    84   103   104    1
    85   106   107    1
    86   106   108    1
    87   114   113    1
    88    11    10    1
    89    28    29    2
    90   104   105    2
    91   109   110    1
    92    20    21    2
    93   113   110    1
    94    10     3   am
    95   110   111    1
    96     9     8    1
    97     4     3    2
    98     3     2    1
    99   111   112    2
   100     6     5    1
   101     6     7    1
   102     8     7    1
   103     2     5    1
   104     2     1    1
