@<TRIPOS>MOLECULE
tmp/6dhqC02.pdb
 128 122 0 0 0
SMALL
GASTEIGER

@<TRIPOS>ATOM
      1  N        -24.8210   26.8680   20.1450 N.3   209  HIS209     -0.1226
      2  CA       -25.5990   26.8610   18.9190 C.3   209  HIS209      0.1752
      3  C        -25.5480   28.2220   18.2450 C.2   209  HIS209      0.2596
      4  O        -25.7560   29.2530   18.8860 O.2   209  HIS209     -0.2718
      5  CB       -27.0500   26.4920   19.2280 C.3   209  HIS209      0.0759
      6  CG       -27.9320   26.4870   18.0260 C.ar  209  HIS209      0.0818
      7  ND1      -28.4040   25.3230   17.4600 N.ar  209  HIS209     -0.2268
      8  CD2      -28.4040   27.5000   17.2630 C.ar  209  HIS209      0.1154
      9  CE1      -29.1480   25.6200   16.4110 C.ar  209  HIS209      0.1986
     10  NE2      -29.1570   26.9340   16.2650 N.ar  209  HIS209     -0.2212
     11  N        -25.2880   28.2320   16.9500 N.am  210  GLY210     -0.1957
     12  CA       -25.4090   29.4590   16.1870 C.3   210  GLY210      0.1869
     13  C        -24.2410   30.4290   16.2230 C.2   210  GLY210      0.2309
     14  O        -24.3410   31.4820   15.5840 O.2   210  GLY210     -0.2863
     15  N        -21.3660   30.2110   14.7770 N.3   212  ILE212     -0.1231
     16  CA       -20.8200   30.3110   13.4280 C.3   212  ILE212      0.1692
     17  C        -21.5860   31.3280   12.6000 C.2   212  ILE212      0.2592
     18  O        -20.9850   32.2180   11.9880 O.2   212  ILE212     -0.2718
     19  CB       -20.7750   28.9440   12.7280 C.3   212  ILE212      0.0266
     20  CG1      -19.5540   28.1750   13.1820 C.3   212  ILE212      0.0019
     21  CG2      -20.6320   29.1450   11.2140 C.3   212  ILE212      0.0020
     22  CD1      -19.3360   26.9290   12.4030 C.3   212  ILE212      0.0001
     23  N        -22.9090   31.2050   12.5560 N.am  213  SER213     -0.1952
     24  CA       -23.7480   32.1110   11.7800 C.3   213  SER213      0.1924
     25  C        -24.1440   33.3810   12.5410 C.2   213  SER213      0.2314
     26  O        -24.9250   34.1830   12.0250 O.2   213  SER213     -0.2863
     27  CB       -25.0100   31.3890   11.2920 C.3   213  SER213      0.2116
     28  OG       -25.5100   30.4730   12.2770 O.3   213  SER213     -0.2180
     29  N        -26.4300   36.5990   11.1790 N.3   217  ARG217     -0.1245
     30  CA       -27.7670   36.7060   11.7430 C.3   217  ARG217      0.1563
     31  C        -27.9790   38.0620   12.4050 C.2   217  ARG217      0.2260
     32  O        -29.0930   38.6010   12.3770 O.2   217  ARG217     -0.2867
     33  CB       -27.9710   35.5560   12.7340 C.3   217  ARG217      0.0307
     34  CG       -29.2490   35.6350   13.5370 C.3   217  ARG217      0.0489
     35  CD       -29.5800   34.3430   14.2330 C.3   217  ARG217      0.2205
     36  NE       -30.9970   34.0690   14.1920 N.pl3 217  ARG217     -0.0865
     37  CZ       -31.5250   32.9600   13.6950 C.cat 217  ARG217      0.5346
     38  NH1      -30.7490   32.0210   13.1740 N.pl3 217  ARG217      0.1354
     39  NH2      -32.8400   32.8000   13.7020 N.pl3 217  ARG217      0.1354
     40  N        -21.2400   34.9410    4.0150 N.3   257  LEU257     -0.1231
     41  CA       -22.1200   33.8560    3.5940 C.3   257  LEU257      0.1693
     42  C        -23.4200   33.8550    4.4080 C.2   257  LEU257      0.2592
     43  O        -24.5150   33.7000    3.8520 O.2   257  LEU257     -0.2718
     44  CB       -21.4100   32.5100    3.7350 C.3   257  LEU257      0.0284
     45  CG       -22.3560   31.3160    3.5990 C.3   257  LEU257      0.0019
     46  CD1      -21.7560   30.2750    2.7130 C.3   257  LEU257      0.0001
     47  CD2      -22.7060   30.7480    4.9610 C.3   257  LEU257      0.0001
     48  N        -23.3200   34.0290    5.7340 N.am  258  HIS258     -0.1976
     49  CA       -24.5230   33.9470    6.5770 C.3   258  HIS258      0.1656
     50  C        -25.3740   35.1920    6.4600 C.2   258  HIS258      0.2291
     51  O        -26.6130   35.0840    6.5570 O.2   258  HIS258     -0.2864
     52  CB       -24.1060   33.6550    8.0210 C.3   258  HIS258      0.0771
     53  CG       -23.4930   32.3190    8.1860 C.ar  258  HIS258      0.0820
     54  ND1      -24.1860   31.1570    7.9700 N.ar  258  HIS258     -0.2267
     55  CD2      -22.2150   31.9420    8.3780 C.ar  258  HIS258      0.1154
     56  CE1      -23.3820   30.1150    8.1250 C.ar  258  HIS258      0.1986
     57  NE2      -22.1720   30.5660    8.3670 N.ar  258  HIS258     -0.2212
     58  N        -27.2710   34.3420    3.5030 N.3   261  ARG261     -0.1231
     59  CA       -28.2680   33.3130    3.7870 C.3   261  ARG261      0.1694
     60  C        -29.5260   33.9150    4.4020 C.2   261  ARG261      0.2592
     61  O        -30.6430   33.5700    4.0030 O.2   261  ARG261     -0.2718
     62  CB       -27.6810   32.2460    4.7090 C.3   261  ARG261      0.0321
     63  CG       -26.8080   31.2240    4.0030 C.3   261  ARG261      0.0489
     64  CD       -26.2070   30.2370    4.9890 C.3   261  ARG261      0.2205
     65  NE       -27.2260   29.3760    5.5530 N.pl3 261  ARG261     -0.0865
     66  CZ       -27.6820   29.4040    6.8010 C.cat 261  ARG261      0.5346
     67  NH1      -27.2140   30.2620    7.6970 N.pl3 261  ARG261      0.1354
     68  NH2      -28.6330   28.5530    7.1410 N.pl3 261  ARG261      0.1354
     69  N        -29.3690   34.8260    5.3630 N.am  262  TYR262     -0.1976
     70  CA       -30.5310   35.3060    6.1020 C.3   262  TYR262      0.1639
     71  C        -31.3240   36.3300    5.3040 C.2   262  TYR262      0.2290
     72  O        -32.5550   36.3250    5.3520 O.2   262  TYR262     -0.2864
     73  CB       -30.0870   35.8690    7.4590 C.3   262  TYR262      0.0560
     74  CG       -29.6070   34.7870    8.4100 C.ar  262  TYR262     -0.0198
     75  CD1      -28.2640   34.6790    8.7490 C.ar  262  TYR262     -0.0009
     76  CD2      -30.4940   33.8790    8.9880 C.ar  262  TYR262     -0.0009
     77  CE1      -27.8060   33.6980    9.5900 C.ar  262  TYR262      0.0417
     78  CE2      -30.0450   32.8850    9.8540 C.ar  262  TYR262      0.0417
     79  CZ       -28.7020   32.8100   10.1490 C.ar  262  TYR262      0.1957
     80  OH       -28.2630   31.8230   11.0190 O.3   262  TYR262     -0.2866
     81  N        -33.4160   34.6060    2.8550 N.3   265  ARG265     -0.1245
     82  CA       -34.5280   33.9170    3.4930 C.3   265  ARG265      0.1563
     83  C        -35.7440   34.8210    3.6140 C.2   265  ARG265      0.2260
     84  O        -36.8770   34.3560    3.4680 O.2   265  ARG265     -0.2867
     85  CB       -34.1010   33.4000    4.8690 C.3   265  ARG265      0.0307
     86  CG       -35.2570   32.8760    5.7130 C.3   265  ARG265      0.0489
     87  CD       -34.7640   32.2920    7.0160 C.3   265  ARG265      0.2205
     88  NE       -33.7690   31.2470    6.8100 N.pl3 265  ARG265     -0.0865
     89  CZ       -33.1390   30.6210    7.8000 C.cat 265  ARG265      0.5346
     90  NH1      -33.4000   30.9400    9.0590 N.pl3 265  ARG265      0.1354
     91  NH2      -32.2480   29.6770    7.5390 N.pl3 265  ARG265      0.1354
     92  N        -27.2960   28.6770   -0.9970 N.3   289  LYS289     -0.1245
     93  CA       -27.0520   27.2680   -0.8140 C.3   289  LYS289      0.1561
     94  C        -26.1930   26.6850   -1.9460 C.2   289  LYS289      0.2260
     95  O        -25.1800   26.0140   -1.6980 O.2   289  LYS289     -0.2867
     96  CB       -28.4370   26.6700   -0.7880 C.3   289  LYS289      0.0271
     97  CG       -28.6090   25.3370   -0.4720 C.3   289  LYS289      0.0035
     98  CD       -27.6280   24.7990    0.3010 C.3   289  LYS289      0.0206
     99  CE       -28.0410   23.5630    0.7800 C.3   289  LYS289      0.1093
    100  NZ       -26.7380   23.0140    0.9620 N.3   289  LYS289     -0.1314
    101  N        -22.6510   28.1680   -2.0190 N.3   292  GLU292     -0.1245
    102  CA       -21.7930   27.5770   -1.0030 C.3   292  GLU292      0.1567
    103  C        -21.3090   26.2000   -1.4360 C.2   292  GLU292      0.2260
    104  O        -20.1270   25.8740   -1.2980 O.2   292  GLU292     -0.2867
    105  CB       -22.5350   27.4950    0.3300 C.3   292  GLU292      0.0388
    106  CG       -21.6270   27.1320    1.4990 C.3   292  GLU292      0.1160
    107  CD       -22.3770   26.5870    2.6990 C.2   292  GLU292      0.3649
    108  OE1      -21.7310   25.9490    3.5480 O.co2 292  GLU292     -0.2457
    109  OE2      -23.6060   26.7900    2.8080 O.co2 292  GLU292     -0.2457
    110  N        -30.7280   27.0200   21.8340 N.3   446  LYS446     -0.1245
    111  CA       -30.9900   27.6230   20.5350 C.3   446  LYS446      0.1561
    112  C        -32.0320   28.7560   20.6360 C.2   446  LYS446      0.2260
    113  O        -31.8730   29.8000   19.9910 O.2   446  LYS446     -0.2867
    114  CB       -31.4180   26.5270   19.5580 C.3   446  LYS446      0.0271
    115  CG       -31.9180   27.0330   18.2470 C.3   446  LYS446      0.0035
    116  CD       -32.8750   26.0210   17.7260 C.3   446  LYS446      0.0206
    117  CE       -33.8190   26.5760   16.7320 C.3   446  LYS446      0.1093
    118  NZ       -34.8430   25.5320   16.4090 N.3   446  LYS446     -0.1314
    119  N        -31.2200   32.7790   19.7440 N.3   450  HIS450     -0.1241
    120  CA       -32.0160   33.4800   18.7420 C.3   450  HIS450      0.1621
    121  C        -32.6800   34.7150   19.3300 C.2   450  HIS450      0.2264
    122  O        -32.5010   35.8290   18.8270 O.2   450  HIS450     -0.2867
    123  CB       -33.0660   32.5420   18.1500 C.3   450  HIS450      0.0745
    124  CG       -32.5010   31.5200   17.2160 C.ar  450  HIS450      0.0817
    125  ND1      -31.1680   31.5040   16.8410 N.ar  450  HIS450     -0.2268
    126  CD2      -33.0830   30.4660   16.5930 C.ar  450  HIS450      0.1154
    127  CE1      -30.9570   30.4880   16.0230 C.ar  450  HIS450      0.1986
    128  NE2      -32.1020   29.8430   15.8560 N.ar  450  HIS450     -0.2212
@<TRIPOS>BOND
     1   101   102    1
     2    94    95    2
     3    94    93    1
     4   103   104    2
     5   103   102    1
     6   102   105    1
     7    92    93    1
     8    93    96    1
     9    96    97    1
    10    97    98    1
    11    98    99    1
    12   105   106    1
    13    99   100    1
    14   106   107    1
    15   107   109   ar
    16   107   108   ar
    17    46    45    1
    18    81    82    1
    19    84    83    2
    20    82    83    1
    21    82    85    1
    22    58    59    1
    23    41    44    1
    24    41    40    1
    25    41    42    1
    26    45    44    1
    27    45    47    1
    28    59    60    1
    29    59    62    1
    30    43    42    2
    31    63    62    1
    32    63    64    1
    33    61    60    2
    34    60    69   am
    35    42    48   am
    36    85    86    1
    37    64    65    1
    38    71    72    2
    39    71    70    1
    40    69    70    1
    41    65    66    2
    42    86    87    1
    43    48    49    1
    44    70    73    1
    45    50    51    2
    46    50    49    1
    47    49    52    1
    48    66    68    1
    49    66    67    1
    50    88    87    1
    51    88    89    2
    52    73    74    1
    53    91    89    1
    54    89    90    1
    55    54    56   ar
    56    54    53   ar
    57    52    53    1
    58    56    57   ar
    59    53    55   ar
    60    57    55   ar
    61    74    75   ar
    62    74    76   ar
    63    75    77   ar
    64    76    78   ar
    65    77    79   ar
    66    78    79   ar
    67    79    80    1
    68    29    30    1
    69    21    19    1
    70    27    24    1
    71    27    28    1
    72    30    31    1
    73    30    33    1
    74    24    25    1
    75    24    23    1
    76    18    17    2
    77    26    25    2
    78    32    31    2
    79    22    20    1
    80    23    17   am
    81    17    16    1
    82    19    20    1
    83    19    16    1
    84    33    34    1
    85    38    37    1
    86    16    15    1
    87    34    35    1
    88    37    39    1
    89    37    36    2
    90    36    35    1
    91    14    13    2
    92   128   127   ar
    93   128   126   ar
    94   127   125   ar
    95    12    13    1
    96    12    11    1
    97    10     9   ar
    98    10     8   ar
    99   118   117    1
   100     9     7   ar
   101   126   124   ar
   102   117   116    1
   103   125   124   ar
   104    11     3   am
   105   124   123    1
   106     8     6   ar
   107     7     6   ar
   108   116   115    1
   109     6     5    1
   110   123   120    1
   111     3     4    2
   112     3     2    1
   113   115   114    1
   114   120   121    1
   115   120   119    1
   116   122   121    2
   117     2     5    1
   118     2     1    1
   119   114   111    1
   120   113   112    2
   121   111   112    1
   122   111   110    1
