@<TRIPOS>MOLECULE
tmp/6di0A00.pdb
 124 115 0 0 0
SMALL
GASTEIGER

@<TRIPOS>ATOM
      1  N         25.4700    1.4090   -0.8120 N.3    20  LEU20      -0.1231
      2  CA        24.9610    2.7040   -1.2740 C.3    20  LEU20       0.1693
      3  C         25.8860    3.8490   -0.8800 C.2    20  LEU20       0.2593
      4  O         25.8960    4.8970   -1.5190 O.2    20  LEU20      -0.2718
      5  CB        23.5650    2.9680   -0.7160 C.3    20  LEU20       0.0284
      6  CG        22.4950    1.9600   -1.1280 C.3    20  LEU20       0.0019
      7  CD1       21.1550    2.3070   -0.5090 C.3    20  LEU20       0.0001
      8  CD2       22.3830    1.8750   -2.6400 C.3    20  LEU20       0.0001
      9  N         26.6490    3.6550    0.1830 N.am   21  GLY21      -0.1942
     10  CA        27.5860    4.6770    0.6240 C.3    21  GLY21       0.2014
     11  C         27.7870    4.6290    2.1180 C.2    21  GLY21       0.2640
     12  O         27.2260    3.7780    2.8030 O.2    21  GLY21      -0.2714
     13  N         28.5980    5.5490    2.6230 N.am   22  THR22      -0.1936
     14  CA        28.8760    5.6310    4.0400 C.3    22  THR22       0.2028
     15  C         28.5900    7.0310    4.5480 C.2    22  THR22       0.2642
     16  O         29.0070    8.0220    3.9470 O.2    22  THR22      -0.2714
     17  CB        30.3410    5.3020    4.3310 C.3    22  THR22       0.1808
     18  OG1       30.6310    3.9810    3.8660 O.3    22  THR22      -0.2208
     19  CG2       30.6290    5.3990    5.8210 C.3    22  THR22       0.0379
     20  N         27.8680    7.1060    5.6560 N.am   23  GLY23      -0.1954
     21  CA        27.5780    8.3770    6.2830 C.3    23  GLY23       0.1869
     22  C         28.0360    8.3940    7.7230 C.2    23  GLY23       0.2309
     23  O         28.8960    7.6100    8.1340 O.2    23  GLY23      -0.2863
     24  N         25.5380    2.2090    4.4760 N.3    28  VAL28      -0.1245
     25  CA        24.1430    2.0050    4.1220 C.3    28  VAL28       0.1561
     26  C         24.1340    1.0760    2.9190 C.2    28  VAL28       0.2260
     27  O         24.8770    1.2870    1.9560 O.2    28  VAL28      -0.2867
     28  CB        23.4620    3.3370    3.7630 C.3    28  VAL28       0.0252
     29  CG1       21.9770    3.1400    3.5270 C.3    28  VAL28       0.0019
     30  CG2       23.6950    4.3700    4.8660 C.3    28  VAL28       0.0019
     31  N         16.4050   -0.2660    2.5420 N.3    40  ALA40      -0.1245
     32  CA        17.7490    0.2060    2.8560 C.3    40  ALA40       0.1562
     33  C         18.1000   -0.2640    4.2590 C.2    40  ALA40       0.2260
     34  O         17.2490   -0.3130    5.1410 O.2    40  ALA40      -0.2867
     35  CB        17.8490    1.7320    2.7790 C.3    40  ALA40       0.0290
     36  N         20.7130    0.5270    7.2370 N.3    42  LYS42      -0.1245
     37  CA        21.6920    1.4430    7.8250 C.3    42  LYS42       0.1561
     38  C         22.4230    0.7200    8.9410 C.2    42  LYS42       0.2260
     39  O         21.8130    0.3540    9.9390 O.2    42  LYS42      -0.2867
     40  CB        21.0010    2.6840    8.4070 C.3    42  LYS42       0.0271
     41  CG        20.1590    3.4700    7.4240 C.3    42  LYS42       0.0035
     42  CD        19.1960    4.4270    8.1410 C.3    42  LYS42       0.0206
     43  CE        19.9250    5.5710    8.8330 C.3    42  LYS42       0.1093
     44  NZ        20.4430    6.5820    7.8570 N.3    42  LYS42      -0.1314
     45  N         10.5290    9.2180    4.5800 N.3    70  VAL70      -0.1245
     46  CA        11.1590    7.9130    4.3970 C.3    70  VAL70       0.1561
     47  C         10.6970    6.9990    5.5360 C.2    70  VAL70       0.2260
     48  O         10.9050    7.3040    6.7100 O.2    70  VAL70      -0.2867
     49  CB        12.6960    8.0250    4.3700 C.3    70  VAL70       0.0252
     50  CG1       13.3460    6.6290    4.3100 C.3    70  VAL70       0.0019
     51  CG2       13.1260    8.8930    3.2200 C.3    70  VAL70       0.0019
     52  N         14.8310    0.7950    6.4710 N.3    86  THR86      -0.1203
     53  CA        13.9500    1.8370    5.9630 C.3    86  THR86       0.1994
     54  C         13.5380    1.5760    4.5280 C.2    86  THR86       0.2618
     55  O         14.0390    0.6740    3.8380 O.2    86  THR86      -0.2717
     56  CB        14.5930    3.2480    5.9980 C.3    86  THR86       0.1784
     57  OG1       15.5610    3.3680    4.9450 O.3    86  THR86      -0.2211
     58  CG2       15.2690    3.5100    7.3160 C.3    86  THR86       0.0376
     59  N         12.5980    2.3950    4.0810 N.am   87  GLU87      -0.1965
     60  CA        12.2230    2.4960    2.7000 C.3    87  GLU87       0.1733
     61  C         13.4560    2.7300    1.8320 C.2    87  GLU87       0.2616
     62  O         14.3750    3.4380    2.2420 O.2    87  GLU87      -0.2715
     63  CB        11.2710    3.6850    2.6070 C.3    87  GLU87       0.0429
     64  CG        10.7790    3.9970    1.2540 C.3    87  GLU87       0.1163
     65  CD         9.6880    5.0480    1.2590 C.2    87  GLU87       0.3649
     66  OE1        9.3610    5.6080    2.3270 O.co2  87  GLU87      -0.2457
     67  OE2        9.1530    5.2910    0.1810 O.co2  87  GLU87      -0.2457
     68  N         13.4600    2.1320    0.6430 N.am   88  TYR88      -0.1960
     69  CA        14.5370    2.2700   -0.3160 C.3    88  TYR88       0.1771
     70  C         14.2650    3.4290   -1.2650 C.2    88  TYR88       0.2619
     71  O         13.1670    3.5760   -1.7950 O.2    88  TYR88      -0.2715
     72  CB        14.7040    0.9650   -1.1000 C.3    88  TYR88       0.0574
     73  CG        15.7230    0.9970   -2.2130 C.ar   88  TYR88      -0.0198
     74  CD1       17.0280    1.3760   -1.9790 C.ar   88  TYR88      -0.0009
     75  CD2       15.3730    0.6340   -3.5000 C.ar   88  TYR88      -0.0009
     76  CE1       17.9500    1.4120   -2.9970 C.ar   88  TYR88       0.0417
     77  CE2       16.2990    0.6410   -4.5190 C.ar   88  TYR88       0.0417
     78  CZ        17.5840    1.0370   -4.2600 C.ar   88  TYR88       0.1957
     79  OH        18.5160    1.0620   -5.2720 O.3    88  TYR88      -0.2866
     80  N         15.2990    4.2320   -1.4700 N.am   89  MET89      -0.1977
     81  CA        15.2210    5.4490   -2.2680 C.3    89  MET89       0.1605
     82  C         16.3080    5.3840   -3.3440 C.2    89  MET89       0.2287
     83  O         17.4740    5.7130   -3.1100 O.2    89  MET89      -0.2864
     84  CB        15.4220    6.6500   -1.3490 C.3    89  MET89       0.0413
     85  CG        14.4040    6.7390   -0.2380 C.3    89  MET89       0.0598
     86  SD        12.7330    7.1080   -0.7820 S.3    89  MET89      -0.1393
     87  CE        12.9320    8.8080   -1.2990 C.3    89  MET89       0.0692
     88  N         18.9630    8.1580   -4.3570 N.3    92  GLY92      -0.1210
     89  CA        19.9770    8.5940   -3.4060 C.3    92  GLY92       0.1956
     90  C         19.7430    9.9570   -2.7800 C.2    92  GLY92       0.2612
     91  O         18.6380   10.4750   -2.7640 O.2    92  GLY92      -0.2717
     92  N         20.8280   10.5480   -2.3080 N.am   93  CYS93      -0.1970
     93  CA        20.7820   11.8010   -1.5740 C.3    93  CYS93       0.1712
     94  C         20.3330   12.9780   -2.4600 C.2    93  CYS93       0.2296
     95  O         20.8190   13.1390   -3.5810 O.2    93  CYS93      -0.2864
     96  CB        22.1740   12.0700   -1.0030 C.3    93  CYS93       0.0983
     97  SG        22.2780   13.5750   -0.0370 S.3    93  CYS93      -0.0798
     98  N         23.2440   15.3860   -3.7900 N.3    96  ASN96      -0.1240
     99  CA        23.9690   14.8600   -4.9460 C.3    96  ASN96       0.1653
    100  C         23.1350   14.9430   -6.2160 C.2    96  ASN96       0.2266
    101  O         23.6530   15.2710   -7.2830 O.2    96  ASN96      -0.2867
    102  CB        24.4020   13.4080   -4.7110 C.3    96  ASN96       0.1155
    103  CG        25.3210   13.2570   -3.5180 C.2    96  ASN96       0.2627
    104  OD1       24.8930   13.3650   -2.3690 O.2    96  ASN96      -0.2716
    105  ND2       26.6000   12.9880   -3.7890 N.am   96  ASN96      -0.0877
    106  N         21.0370   17.3470    2.4740 N.3   137  ARG137     -0.1245
    107  CA        21.8390   16.1540    2.7430 C.3   137  ARG137      0.1563
    108  C         21.0340   15.1040    3.5160 C.2   137  ARG137      0.2260
    109  O         21.4500   13.9400    3.5990 O.2   137  ARG137     -0.2867
    110  CB        23.1060   16.5190    3.5230 C.3   137  ARG137      0.0307
    111  CG        22.8290   16.9400    4.9410 C.3   137  ARG137      0.0489
    112  CD        24.0960   17.2840    5.7330 C.3   137  ARG137      0.2205
    113  NE        23.7230   18.0220    6.9360 N.pl3 137  ARG137     -0.0865
    114  CZ        23.4970   19.3350    6.9770 C.cat 137  ARG137      0.5346
    115  NH1       23.6440   20.0860    5.8960 N.pl3 137  ARG137      0.1354
    116  NH2       23.1260   19.8970    8.1150 N.pl3 137  ARG137      0.1354
    117  N         16.1150   12.3190    0.5340 N.3   140  LEU140     -0.1245
    118  CA        16.4190   11.2670   -0.4300 C.3   140  LEU140      0.1561
    119  C         15.4410   11.3210   -1.5960 C.2   140  LEU140      0.2260
    120  O         14.3640   11.9150   -1.4870 O.2   140  LEU140     -0.2867
    121  CB        16.3530    9.8960    0.2670 C.3   140  LEU140      0.0270
    122  CG        17.4570    9.5810    1.2900 C.3   140  LEU140      0.0019
    123  CD1       17.0730    8.4310    2.2140 C.3   140  LEU140      0.0001
    124  CD2       18.7790    9.2760    0.5860 C.3   140  LEU140      0.0001
@<TRIPOS>BOND
     1   101   100    2
     2   100    99    1
     3    79    78    1
     4    99   102    1
     5    99    98    1
     6   102   103    1
     7    77    78   ar
     8    77    75   ar
     9    88    89    1
    10    78    76   ar
    11   105   103   am
    12    95    94    2
    13   103   104    2
    14    75    73   ar
    15    89    90    1
    16    82    83    2
    17    82    81    1
    18    76    74   ar
    19    90    91    2
    20    90    92   am
    21     8     6    1
    22    94    93    1
    23    92    93    1
    24    81    80    1
    25    81    84    1
    26    73    74   ar
    27    73    72    1
    28    71    70    2
    29   119   120    2
    30   119   118    1
    31    93    96    1
    32     4     3    2
    33    80    70   am
    34    84    85    1
    35    87    86    1
    36     2     3    1
    37     2     1    1
    38     2     5    1
    39    70    69    1
    40     6     5    1
    41     6     7    1
    42    72    69    1
    43    96    97    1
    44     3     9   am
    45    86    85    1
    46   118   121    1
    47   118   117    1
    48    69    68    1
    49    67    65   ar
    50     9    10    1
    51   121   122    1
    52   124   122    1
    53    10    11    1
    54    68    61   am
    55    64    65    1
    56    64    63    1
    57    65    66   ar
    58   122   123    1
    59    61    62    2
    60    61    60    1
    61    27    26    2
    62    11    13   am
    63    11    12    2
    64   106   107    1
    65    31    32    1
    66    63    60    1
    67    13    14    1
    68    60    59    1
    69   107   108    1
    70   107   110    1
    71    35    32    1
    72    32    33    1
    73    26    25    1
    74    51    49    1
    75   108   109    2
    76   110   111    1
    77    29    28    1
    78    28    25    1
    79    28    30    1
    80    55    54    2
    81    18    17    1
    82    16    15    2
    83    14    17    1
    84    14    15    1
    85    59    54   am
    86    25    24    1
    87    33    34    2
    88    50    49    1
    89    17    19    1
    90    49    46    1
    91    46    45    1
    92    46    47    1
    93    54    53    1
    94    15    20   am
    95   111   112    1
    96    57    56    1
    97    47    48    2
    98    20    21    1
    99   112   113    1
   100   115   114    1
   101    53    56    1
   102    53    52    1
   103    56    58    1
   104    21    22    1
   105   113   114    2
   106   114   116    1
   107    36    37    1
   108    41    42    1
   109    41    40    1
   110    22    23    2
   111    37    40    1
   112    37    38    1
   113    44    43    1
   114    42    43    1
   115    38    39    2
