@<TRIPOS>MOLECULE
tmp/6di1A00.pdb
 145 135 0 0 0
SMALL
GASTEIGER

@<TRIPOS>ATOM
      1  N        -11.0880   -1.5750    0.6850 N.3    20  LEU20      -0.1231
      2  CA       -11.7780   -2.8280    1.0330 C.3    20  LEU20       0.1693
      3  C        -10.9700   -4.0360    0.6090 C.2    20  LEU20       0.2593
      4  O        -11.2420   -5.1780    1.0700 O.2    20  LEU20      -0.2718
      5  CB       -13.1400   -2.9330    0.3820 C.3    20  LEU20       0.0284
      6  CG       -14.1210   -1.9080    0.9230 C.3    20  LEU20       0.0019
      7  CD1      -15.3970   -1.9540    0.1900 C.3    20  LEU20       0.0001
      8  CD2      -14.3590   -2.0920    2.3890 C.3    20  LEU20       0.0001
      9  N         -9.9880   -3.8380   -0.2400 N.am   21  GLY21      -0.1942
     10  CA        -9.1410   -4.9570   -0.6710 C.3    21  GLY21       0.2014
     11  C         -8.9610   -4.9000   -2.1620 C.2    21  GLY21       0.2640
     12  O         -9.2020   -3.8640   -2.8120 O.2    21  GLY21      -0.2714
     13  N         -8.4690   -5.9970   -2.7460 N.am   22  THR22      -0.1936
     14  CA        -8.0580   -6.0330   -4.1410 C.3    22  THR22       0.2028
     15  C         -8.5160   -7.3890   -4.6820 C.2    22  THR22       0.2642
     16  O         -8.3560   -8.3810   -3.9730 O.2    22  THR22      -0.2714
     17  CB        -6.5370   -5.8740   -4.2730 C.3    22  THR22       0.1808
     18  OG1       -6.1540   -5.8910   -5.6380 O.3    22  THR22      -0.2208
     19  CG2       -5.8470   -7.0370   -3.6140 C.3    22  THR22       0.0379
     20  N         -9.1010   -7.4110   -5.8750 N.am   23  GLY23      -0.1954
     21  CA        -9.6360   -8.6390   -6.4780 C.3    23  GLY23       0.1869
     22  C         -9.2370   -8.7060   -7.9350 C.2    23  GLY23       0.2309
     23  O         -8.2360   -8.1340   -8.3040 O.2    23  GLY23      -0.2863
     24  N        -10.7940   -2.1730   -4.6260 N.3    28  VAL28      -0.1245
     25  CA       -12.1350   -1.8890   -4.2300 C.3    28  VAL28       0.1561
     26  C        -12.1230   -0.9830   -3.0290 C.2    28  VAL28       0.2260
     27  O        -11.3530   -1.2340   -2.0950 O.2    28  VAL28      -0.2867
     28  CB       -13.0020   -3.1780   -4.0150 C.3    28  VAL28       0.0252
     29  CG1      -14.4500   -2.8300   -3.7910 C.3    28  VAL28       0.0019
     30  CG2      -12.8630   -4.1260   -5.2410 C.3    28  VAL28       0.0019
     31  N        -19.7940    0.3020   -2.6130 N.3    40  ALA40      -0.1245
     32  CA       -18.4980   -0.1680   -2.9280 C.3    40  ALA40       0.1562
     33  C        -18.1600    0.2960   -4.3670 C.2    40  ALA40       0.2260
     34  O        -19.0140    0.3310   -5.2280 O.2    40  ALA40      -0.2867
     35  CB       -18.3820   -1.7030   -2.8610 C.3    40  ALA40       0.0290
     36  N        -15.5100   -0.4450   -7.3060 N.3    42  LYS42      -0.1245
     37  CA       -14.5070   -1.3110   -7.8930 C.3    42  LYS42       0.1561
     38  C        -13.7950   -0.5660   -9.0150 C.2    42  LYS42       0.2260
     39  O        -14.4370   -0.1740   -9.9960 O.2    42  LYS42      -0.2867
     40  CB       -15.1310   -2.6020   -8.4920 C.3    42  LYS42       0.0271
     41  CG       -16.0180   -3.3870   -7.6010 C.3    42  LYS42       0.0035
     42  CD       -17.1100   -4.1580   -8.3820 C.3    42  LYS42       0.0206
     43  CE       -17.1790   -5.5760   -7.9790 C.3    42  LYS42       0.1093
     44  NZ       -15.9460   -6.3000   -8.3940 N.3    42  LYS42      -0.1314
     45  N        -25.6840   -9.1850   -4.5800 N.3    70  VAL70      -0.1245
     46  CA       -25.0500   -7.8710   -4.4100 C.3    70  VAL70       0.1561
     47  C        -25.5440   -6.9500   -5.5510 C.2    70  VAL70       0.2260
     48  O        -25.5010   -7.2880   -6.7450 O.2    70  VAL70      -0.2867
     49  CB       -23.5480   -7.9850   -4.3610 C.3    70  VAL70       0.0252
     50  CG1      -22.8860   -6.6180   -4.3550 C.3    70  VAL70       0.0019
     51  CG2      -23.0960   -8.8130   -3.1710 C.3    70  VAL70       0.0019
     52  N        -21.4070   -0.7520   -6.5590 N.3    86  THR86      -0.1203
     53  CA       -22.2970   -1.8100   -6.0730 C.3    86  THR86       0.1994
     54  C        -22.6890   -1.5580   -4.6360 C.2    86  THR86       0.2618
     55  O        -22.1500   -0.6760   -3.9020 O.2    86  THR86      -0.2717
     56  CB       -21.6490   -3.2140   -6.1210 C.3    86  THR86       0.1784
     57  OG1      -20.6830   -3.3370   -5.0680 O.3    86  THR86      -0.2211
     58  CG2      -20.9380   -3.4520   -7.4220 C.3    86  THR86       0.0376
     59  N        -23.6390   -2.3790   -4.1660 N.am   87  GLU87      -0.1965
     60  CA       -23.9800   -2.4670   -2.7880 C.3    87  GLU87       0.1733
     61  C        -22.7510   -2.7200   -1.9170 C.2    87  GLU87       0.2616
     62  O        -21.8810   -3.4660   -2.2810 O.2    87  GLU87      -0.2715
     63  CB       -24.9370   -3.6550   -2.6900 C.3    87  GLU87       0.0429
     64  CG       -25.4460   -3.9490   -1.2850 C.3    87  GLU87       0.1163
     65  CD       -26.5580   -4.9960   -1.2990 C.2    87  GLU87       0.3649
     66  OE1      -26.9100   -5.5620   -2.3720 O.co2  87  GLU87      -0.2457
     67  OE2      -27.0510   -5.2630   -0.1940 O.co2  87  GLU87      -0.2457
     68  N        -22.6930   -2.0880   -0.7610 N.am   88  TYR88      -0.1960
     69  CA       -21.6280   -2.2210    0.1820 C.3    88  TYR88       0.1771
     70  C        -21.8980   -3.3840    1.1690 C.2    88  TYR88       0.2619
     71  O        -22.9450   -3.4850    1.6890 O.2    88  TYR88      -0.2715
     72  CB       -21.4930   -0.9270    0.9850 C.3    88  TYR88       0.0574
     73  CG       -20.4690   -0.9470    2.0650 C.ar   88  TYR88      -0.0198
     74  CD1      -19.2350   -1.3040    1.8070 C.ar   88  TYR88      -0.0009
     75  CD2      -20.7490   -0.5730    3.3680 C.ar   88  TYR88      -0.0009
     76  CE1      -18.2390   -1.3860    2.7940 C.ar   88  TYR88       0.0417
     77  CE2      -19.7470   -0.5980    4.3620 C.ar   88  TYR88       0.0417
     78  CZ       -18.5550   -0.9660    4.0490 C.ar   88  TYR88       0.1957
     79  OH       -17.5250   -1.0030    4.9840 O.3    88  TYR88      -0.2866
     80  N        -20.8720   -4.2050    1.3330 N.am   89  MET89      -0.1963
     81  CA       -20.9460   -5.4490    2.1490 C.3    89  MET89       0.1736
     82  C        -19.7930   -5.3430    3.2120 C.2    89  MET89       0.2616
     83  O        -18.6880   -5.6480    2.9770 O.2    89  MET89      -0.2715
     84  CB       -20.7450   -6.6630    1.2560 C.3    89  MET89       0.0427
     85  CG       -21.7680   -6.7510    0.1660 C.3    89  MET89       0.0599
     86  SD       -23.4640   -7.0850    0.7310 S.3    89  MET89      -0.1393
     87  CE       -23.2420   -8.7480    1.1980 C.3    89  MET89       0.0692
     88  N        -20.1790   -4.8310    4.3860 N.am   90  ALA90      -0.1977
     89  CA       -19.1910   -4.3720    5.3440 C.3    90  ALA90       0.1597
     90  C        -18.3320   -5.4490    5.8880 C.2    90  ALA90       0.2287
     91  O        -17.2250   -5.1630    6.4000 O.2    90  ALA90      -0.2864
     92  CB       -19.8100   -3.6300    6.5030 C.3    90  ALA90       0.0319
     93  N        -17.1240   -8.0490    4.1970 N.3    92  GLY92      -0.1210
     94  CA       -16.1260   -8.5690    3.2460 C.3    92  GLY92       0.1956
     95  C        -16.3860   -9.9520    2.6590 C.2    92  GLY92       0.2612
     96  O        -17.5240  -10.4450    2.6810 O.2    92  GLY92      -0.2717
     97  N        -15.3530  -10.5590    2.1100 N.am   93  CYS93      -0.1970
     98  CA       -15.5960  -11.8160    1.3840 C.3    93  CYS93       0.1712
     99  C        -15.8520  -12.9620    2.3660 C.2    93  CYS93       0.2296
    100  O        -15.3210  -13.0820    3.4640 O.2    93  CYS93      -0.2864
    101  CB       -14.4690  -12.2100    0.4170 C.3    93  CYS93       0.0983
    102  SG       -12.9750  -12.5760    1.2500 S.3    93  CYS93      -0.0798
    103  N        -15.0890  -16.0880    2.1590 N.3    95  LEU95      -0.1231
    104  CA       -14.0160  -17.0280    2.4320 C.3    95  LEU95       0.1693
    105  C        -13.2700  -16.5910    3.6440 C.2    95  LEU95       0.2592
    106  O        -12.9630  -17.3830    4.5750 O.2    95  LEU95      -0.2718
    107  CB       -13.0850  -17.1030    1.2360 C.3    95  LEU95       0.0284
    108  CG       -11.9090  -18.0710    1.3330 C.3    95  LEU95       0.0019
    109  CD1      -12.4470  -19.5040    1.6180 C.3    95  LEU95       0.0001
    110  CD2      -11.1150  -18.0700    0.0190 C.3    95  LEU95       0.0001
    111  N        -12.9050  -15.3010    3.7090 N.am   96  ASN96      -0.1974
    112  CA       -12.1670  -14.8360    4.8400 C.3    96  ASN96       0.1688
    113  C        -12.9890  -14.8500    6.1340 C.2    96  ASN96       0.2292
    114  O        -12.4580  -15.1140    7.2320 O.2    96  ASN96      -0.2864
    115  CB       -11.6040  -13.4450    4.5770 C.3    96  ASN96       0.1181
    116  CG       -10.5370  -13.4530    3.5350 C.2    96  ASN96       0.2629
    117  OD1      -10.0740  -14.4910    3.0930 O.2    96  ASN96      -0.2716
    118  ND2      -10.0750  -12.2410    3.1470 N.am   96  ASN96      -0.0877
    119  N        -15.0270  -17.2540   -2.4120 N.3   137  ARG137     -0.1245
    120  CA       -14.2630  -16.0400   -2.6130 C.3   137  ARG137      0.1563
    121  C        -15.1490  -14.9760   -3.3480 C.2   137  ARG137      0.2260
    122  O        -14.7490  -13.7810   -3.2420 O.2   137  ARG137     -0.2867
    123  CB       -12.9650  -16.3070   -3.3750 C.3   137  ARG137      0.0307
    124  CG       -13.2360  -16.8440   -4.7000 C.3   137  ARG137      0.0489
    125  CD       -11.9320  -17.1470   -5.5700 C.3   137  ARG137      0.2205
    126  NE       -12.3170  -17.8090   -6.8290 N.pl3 137  ARG137     -0.0865
    127  CZ       -12.6310  -19.1260   -6.9590 C.cat 137  ARG137      0.5346
    128  NH1      -12.4550  -19.9530   -5.9560 N.pl3 137  ARG137      0.1354
    129  NH2      -13.0850  -19.6930   -8.0490 N.pl3 137  ARG137      0.1354
    130  N        -20.0440  -12.3000   -0.5540 N.3   140  LEU140     -0.1245
    131  CA       -19.7450  -11.2200    0.3840 C.3   140  LEU140      0.1561
    132  C        -20.7040  -11.2790    1.5410 C.2   140  LEU140      0.2260
    133  O        -21.7870  -11.8630    1.4440 O.2   140  LEU140     -0.2867
    134  CB       -19.7970   -9.8760   -0.3590 C.3   140  LEU140      0.0270
    135  CG       -18.7970   -9.6160   -1.4530 C.3   140  LEU140      0.0019
    136  CD1      -19.1070   -8.4100   -2.2640 C.3   140  LEU140      0.0001
    137  CD2      -17.4360   -9.3580   -0.7950 C.3   140  LEU140      0.0001
    138  N        -20.3410  -10.5820   -8.2540 N.3   151  ASP151     -0.1239
    139  CA       -19.5070  -10.7510   -9.4540 C.3   151  ASP151      0.1674
    140  C        -20.0580  -11.7520  -10.4260 C.2   151  ASP151      0.2266
    141  O        -19.3190  -12.3360  -11.2440 O.2   151  ASP151     -0.2867
    142  CB       -18.0630  -11.0300   -9.0690 C.3   151  ASP151      0.1410
    143  CG       -17.3530   -9.7480   -8.5580 C.2   151  ASP151      0.3668
    144  OD1      -17.9510   -8.6570   -8.6680 O.co2 151  ASP151     -0.2456
    145  OD2      -16.2210   -9.9320   -8.0850 O.co2 151  ASP151     -0.2456
@<TRIPOS>BOND
     1   141   140    2
     2   140   139    1
     3    39    38    2
     4   139   142    1
     5   139   138    1
     6   142   143    1
     7    38    37    1
     8   144   143   ar
     9   143   145   ar
    10    40    37    1
    11    40    41    1
    12    44    43    1
    13    42    43    1
    14    42    41    1
    15    23    22    2
    16   129   127    1
    17    22    21    1
    18    37    36    1
    19    58    56    1
    20   127   126    2
    21   127   128    1
    22   126   125    1
    23    48    47    2
    24    52    53    1
    25    21    20    1
    26    56    53    1
    27    56    57    1
    28    53    54    1
    29    20    15   am
    30    18    17    1
    31   125   124    1
    32    47    46    1
    33    30    28    1
    34    34    33    2
    35   124   123    1
    36    15    14    1
    37    15    16    2
    38    54    59   am
    39    54    55    2
    40    24    25    1
    41    45    46    1
    42    46    49    1
    43    33    32    1
    44    49    50    1
    45    49    51    1
    46    17    14    1
    47    17    19    1
    48    25    28    1
    49    25    26    1
    50    59    60    1
    51    14    13    1
    52    28    29    1
    53   123   120    1
    54   121   122    2
    55   121   120    1
    56    26    27    2
    57    32    35    1
    58    32    31    1
    59    12    11    2
    60    60    63    1
    61    60    61    1
    62    13    11   am
    63    63    64    1
    64   120   119    1
    65    66    65   ar
    66    62    61    2
    67   136   135    1
    68    11    10    1
    69    61    68   am
    70   135   137    1
    71   135   134    1
    72    65    64    1
    73    65    67   ar
    74    68    69    1
    75    10     9    1
    76   130   131    1
    77   134   131    1
    78     9     3   am
    79   110   108    1
    80    85    86    1
    81    85    84    1
    82    69    72    1
    83    69    70    1
    84     7     6    1
    85     5     6    1
    86     5     2    1
    87   131   132    1
    88   101   102    1
    89   101    98    1
    90     3     2    1
    91     3     4    2
    92     1     2    1
    93    86    87    1
    94     6     8    1
    95    72    73    1
    96    70    80   am
    97    70    71    2
    98   107   108    1
    99   107   104    1
   100    84    81    1
   101    80    81    1
   102   108   109    1
   103    98    97    1
   104    98    99    1
   105   133   132    2
   106    74    73   ar
   107    74    76   ar
   108    73    75   ar
   109    97    95   am
   110    81    82    1
   111   103   104    1
   112    99   100    2
   113   104   105    1
   114    95    96    2
   115    95    94    1
   116    76    78   ar
   117    83    82    2
   118   117   116    2
   119   118   116   am
   120    82    88   am
   121    94    93    1
   122    75    77   ar
   123   116   115    1
   124   105   111   am
   125   105   106    2
   126   111   112    1
   127    78    77   ar
   128    78    79    1
   129    88    89    1
   130   115   112    1
   131   112   113    1
   132    89    90    1
   133    89    92    1
   134    90    91    2
   135   113   114    2
