@<TRIPOS>MOLECULE
tmp/6di3A00.pdb
 204 191 0 0 0
SMALL
GASTEIGER

@<TRIPOS>ATOM
      1  N         25.8230    2.6200   -0.5190 N.3    16  LEU16      -0.1231
      2  CA        25.0870    3.8050   -0.9710 C.3    16  LEU16       0.1693
      3  C         25.6170    5.1600   -0.4410 C.2    16  LEU16       0.2592
      4  O         25.0690    6.2150   -0.8010 O.2    16  LEU16      -0.2718
      5  CB        23.5900    3.6800   -0.6110 C.3    16  LEU16       0.0284
      6  CG        22.7300    2.5520   -1.1890 C.3    16  LEU16       0.0019
      7  CD1       21.3400    2.4520   -0.5130 C.3    16  LEU16       0.0001
      8  CD2       22.5470    2.6680   -2.6950 C.3    16  LEU16       0.0001
      9  N         26.6200    5.1500    0.4370 N.am   17  GLY17      -0.1957
     10  CA        27.1150    6.4150    1.0580 C.3    17  GLY17       0.1869
     11  C         27.6810    6.2900    2.4670 C.2    17  GLY17       0.2309
     12  O         27.7980    5.1720    3.0000 O.2    17  GLY17      -0.2863
     13  N         27.7930    9.2580   10.8890 N.3    19  PHE19      -0.1227
     14  CA        26.7430    8.3670   11.4230 C.3    19  PHE19       0.1736
     15  C         27.0520    6.8870   11.1490 C.2    19  PHE19       0.2596
     16  O         26.7250    6.0160   11.9650 O.2    19  PHE19      -0.2718
     17  CB        25.3700    8.7150   10.8240 C.3    19  PHE19       0.0547
     18  CG        24.9240   10.1250   11.0620 C.ar   19  PHE19      -0.0202
     19  CD1       25.1030   10.8210   12.2500 C.ar   19  PHE19      -0.0042
     20  CD2       24.1610   10.7510   10.0680 C.ar   19  PHE19      -0.0042
     21  CE1       24.5920   12.0730   12.4690 C.ar   19  PHE19      -0.0003
     22  CE2       23.6590   11.9970   10.2780 C.ar   19  PHE19      -0.0003
     23  CZ        23.8380   12.6690   11.4840 C.ar   19  PHE19      -0.0000
     24  N         27.6770    6.6200    9.9970 N.am   20  GLY20      -0.1957
     25  CA        28.0260    5.2620    9.5680 C.3    20  GLY20       0.1869
     26  C         27.7060    5.0480    8.0930 C.2    20  GLY20       0.2309
     27  O         27.5330    6.0060    7.3530 O.2    20  GLY20      -0.2863
     28  N         25.5270    3.3310    4.7160 N.3    22  VAL22      -0.1245
     29  CA        24.2570    2.8400    4.2210 C.3    22  VAL22       0.1561
     30  C         24.4760    1.8260    3.1250 C.2    22  VAL22       0.2260
     31  O         25.2920    2.0020    2.2610 O.2    22  VAL22      -0.2867
     32  CB        23.3710    3.9270    3.6150 C.3    22  VAL22       0.0252
     33  CG1       21.9660    3.3580    3.3530 C.3    22  VAL22       0.0019
     34  CG2       23.2990    5.1530    4.5200 C.3    22  VAL22       0.0019
     35  N         17.0680    0.0410    2.2980 N.3    34  ALA34      -0.1245
     36  CA        18.3790    0.5710    2.6600 C.3    34  ALA34       0.1562
     37  C         18.7010    0.2300    4.1200 C.2    34  ALA34       0.2260
     38  O         17.8100    0.1760    4.9620 O.2    34  ALA34      -0.2867
     39  CB        18.4560    2.0780    2.4530 C.3    34  ALA34       0.0290
     40  N         21.2160    1.3360    7.1390 N.3    36  LYS36      -0.1245
     41  CA        22.2050    2.2020    7.7360 C.3    36  LYS36       0.1561
     42  C         22.7210    1.4600    8.9340 C.2    36  LYS36       0.2260
     43  O         21.9480    1.0950    9.8110 O.2    36  LYS36      -0.2867
     44  CB        21.5800    3.5220    8.1390 C.3    36  LYS36       0.0271
     45  CG        22.3560    4.3250    9.1690 C.3    36  LYS36       0.0035
     46  CD        23.1500    5.4640    8.5220 C.3    36  LYS36       0.0206
     47  CE        22.9280    6.7570    9.2630 C.3    36  LYS36       0.1093
     48  NZ        21.6630    7.4640    8.7770 N.3    36  LYS36      -0.1314
     49  N         17.8190    6.0370   21.5250 N.3    48  PHE48      -0.1241
     50  CA        17.3520    5.9710   20.1610 C.3    48  PHE48       0.1605
     51  C         16.3300    4.8440   20.0630 C.2    48  PHE48       0.2264
     52  O         15.2270    5.0150   19.5310 O.2    48  PHE48      -0.2867
     53  CB        18.4770    5.7320   19.1580 C.3    48  PHE48       0.0534
     54  CG        17.9520    5.4370   17.7860 C.ar   48  PHE48      -0.0203
     55  CD1       17.3570    6.4350   17.0390 C.ar   48  PHE48      -0.0042
     56  CD2       17.9410    4.1560   17.2980 C.ar   48  PHE48      -0.0042
     57  CE1       16.8220    6.1660   15.8020 C.ar   48  PHE48      -0.0003
     58  CE2       17.4080    3.8990   16.0580 C.ar   48  PHE48      -0.0003
     59  CZ        16.8300    4.8960   15.3290 C.ar   48  PHE48      -0.0000
     60  N          8.8200    6.8390   16.3050 N.3    55  MET55      -0.1245
     61  CA         9.0610    7.0120   14.8790 C.3    55  MET55       0.1570
     62  C          8.3360    5.9720   14.0190 C.2    55  MET55       0.2261
     63  O          7.8110    6.2930   12.9530 O.2    55  MET55      -0.2867
     64  CB        10.5390    6.9340   14.6010 C.3    55  MET55       0.0387
     65  CG        11.2760    8.0870   15.1660 C.3    55  MET55       0.0595
     66  SD        13.0200    7.7270   15.2200 S.3    55  MET55      -0.1393
     67  CE        13.4100    7.8070   13.4780 C.3    55  MET55       0.0692
     68  N         10.4030    9.3490    4.6520 N.3    64  VAL64      -0.1245
     69  CA        11.0280    8.0840    4.4220 C.3    64  VAL64       0.1561
     70  C         10.5390    6.9930    5.4470 C.2    64  VAL64       0.2260
     71  O         10.6690    7.1650    6.6390 O.2    64  VAL64      -0.2867
     72  CB        12.5360    8.2410    4.5820 C.3    64  VAL64       0.0252
     73  CG1       13.1950    6.8820    4.7390 C.3    64  VAL64       0.0019
     74  CG2       13.1220    9.0530    3.4140 C.3    64  VAL64       0.0019
     75  N         10.3500    4.0550    7.8010 N.3    66  LEU66      -0.1245
     76  CA        11.2180    3.2540    8.6190 C.3    66  LEU66       0.1561
     77  C         10.5640    1.8460    8.6380 C.2    66  LEU66       0.2260
     78  O          9.3400    1.7160    8.6730 O.2    66  LEU66      -0.2867
     79  CB        11.3400    3.9000   10.0100 C.3    66  LEU66       0.0270
     80  CG        12.1310    3.1690   11.1250 C.3    66  LEU66       0.0019
     81  CD1       13.6280    3.1800   10.8340 C.3    66  LEU66       0.0001
     82  CD2       11.8630    3.7370   12.5730 C.3    66  LEU66       0.0001
     83  N         19.4790    0.5070   11.1300 N.3    78  ILE78      -0.1245
     84  CA        18.2060    1.1460   10.8580 C.3    78  ILE78       0.1561
     85  C         17.7900    0.8190    9.4150 C.2    78  ILE78       0.2260
     86  O         18.5620    1.0060    8.4710 O.2    78  ILE78      -0.2867
     87  CB        18.2650    2.6820   11.0890 C.3    78  ILE78       0.0252
     88  CG1       18.5480    3.0290   12.5710 C.3    78  ILE78       0.0019
     89  CG2       16.9920    3.3680   10.5950 C.3    78  ILE78       0.0019
     90  CD1       19.7030    3.9610   12.6980 C.3    78  ILE78       0.0001
     91  N         15.1630    1.2420    6.3070 N.3    80  THR80      -0.1203
     92  CA        14.1300    2.0530    5.6200 C.3    80  THR80       0.1994
     93  C         13.8510    1.6150    4.2080 C.2    80  THR80       0.2618
     94  O         14.5750    0.7850    3.6250 O.2    80  THR80      -0.2717
     95  CB        14.6070    3.4830    5.4350 C.3    80  THR80       0.1784
     96  OG1       15.6370    3.4780    4.4450 O.3    80  THR80      -0.2211
     97  CG2       15.1840    3.9950    6.7070 C.3    80  THR80       0.0376
     98  N         12.8190    2.2150    3.6190 N.am   81  GLU81      -0.1965
     99  CA        12.5920    2.0240    2.1820 C.3    81  GLU81       0.1733
    100  C         13.8080    2.5280    1.4040 C.2    81  GLU81       0.2616
    101  O         14.5510    3.4050    1.8450 O.2    81  GLU81      -0.2715
    102  CB        11.3330    2.7520    1.6940 C.3    81  GLU81       0.0429
    103  CG        11.5610    4.2270    1.5480 C.3    81  GLU81       0.1163
    104  CD        10.2770    5.0010    1.2090 C.2    81  GLU81       0.3649
    105  OE1        9.7890    5.8150    2.0240 O.co2  81  GLU81      -0.2457
    106  OE2        9.7620    4.7890    0.1240 O.co2  81  GLU81      -0.2457
    107  N         13.9830    1.9860    0.2240 N.am   82  TYR82      -0.1960
    108  CA        15.1390    2.3060   -0.6180 C.3    82  TYR82       0.1771
    109  C         14.7950    3.5310   -1.4380 C.2    82  TYR82       0.2619
    110  O         13.7460    3.5870   -2.0210 O.2    82  TYR82      -0.2715
    111  CB        15.3850    1.1050   -1.5480 C.3    82  TYR82       0.0574
    112  CG        16.4030    1.2980   -2.6400 C.ar   82  TYR82      -0.0198
    113  CD1       17.6890    1.6920   -2.3600 C.ar   82  TYR82      -0.0009
    114  CD2       16.0620    1.0740   -3.9510 C.ar   82  TYR82      -0.0009
    115  CE1       18.5860    1.8860   -3.3680 C.ar   82  TYR82       0.0417
    116  CE2       16.9460    1.2540   -4.9590 C.ar   82  TYR82       0.0417
    117  CZ        18.2030    1.6570   -4.6740 C.ar   82  TYR82       0.1957
    118  OH        19.0770    1.8120   -5.7220 O.3    82  TYR82      -0.2866
    119  N         15.6880    4.4900   -1.5160 N.am   83  MET83      -0.1977
    120  CA        15.3900    5.6860   -2.2760 C.3    83  MET83       0.1605
    121  C         16.4150    5.7430   -3.3750 C.2    83  MET83       0.2287
    122  O         17.5590    6.1080   -3.0920 O.2    83  MET83      -0.2864
    123  CB        15.5130    6.9040   -1.3580 C.3    83  MET83       0.0413
    124  CG        14.5490    6.8910   -0.1800 C.3    83  MET83       0.0598
    125  SD        12.8910    7.1600   -0.7990 S.3    83  MET83      -0.1393
    126  CE        13.0230    8.9430   -1.1190 C.3    83  MET83       0.0692
    127  N         18.9610    8.6980   -4.2600 N.3    86  GLY86      -0.1210
    128  CA        19.8660    9.1220   -3.2140 C.3    86  GLY86       0.1956
    129  C         19.5370   10.4930   -2.6040 C.2    86  GLY86       0.2612
    130  O         18.3930   10.9370   -2.6090 O.2    86  GLY86      -0.2717
    131  N         20.5530   11.1890   -2.1320 N.am   87  CYS87      -0.1970
    132  CA        20.2690   12.3940   -1.3760 C.3    87  CYS87       0.1712
    133  C         19.9740   13.5460   -2.2960 C.2    87  CYS87       0.2296
    134  O         20.5560   13.6820   -3.3760 O.2    87  CYS87      -0.2864
    135  CB        21.3090   12.7140   -0.3230 C.3    87  CYS87       0.0983
    136  SG        22.5730   13.7260   -0.7800 S.3    87  CYS87      -0.0798
    137  N         20.5780   16.6810   -2.0520 N.3    89  LEU89      -0.1231
    138  CA        21.6020   17.6780   -2.3070 C.3    89  LEU89       0.1693
    139  C         22.4090   17.2980   -3.5550 C.2    89  LEU89       0.2592
    140  O         22.6180   18.1000   -4.4450 O.2    89  LEU89      -0.2718
    141  CB        22.5130   17.8240   -1.0900 C.3    89  LEU89       0.0284
    142  CG        23.6130   18.8960   -1.2270 C.3    89  LEU89       0.0019
    143  CD1       23.0610   20.2590   -1.6200 C.3    89  LEU89       0.0001
    144  CD2       24.3700   18.9850    0.0900 C.3    89  LEU89       0.0001
    145  N         22.8700   16.0540   -3.6160 N.am   90  ASN90      -0.1974
    146  CA        23.5820   15.5320   -4.7900 C.3    90  ASN90       0.1688
    147  C         22.7360   15.5630   -6.0570 C.2    90  ASN90       0.2292
    148  O         23.2050   15.9370   -7.1280 O.2    90  ASN90      -0.2864
    149  CB        24.0000   14.0850   -4.4960 C.3    90  ASN90       0.1181
    150  CG        25.2400   14.0210   -3.6470 C.2    90  ASN90       0.2629
    151  OD1       25.8710   15.0500   -3.3590 O.2    90  ASN90      -0.2716
    152  ND2       25.5880   12.8240   -3.2070 N.am   90  ASN90      -0.0877
    153  N         20.6300   17.9080    2.5020 N.3   131  ARG131     -0.1245
    154  CA        21.4870   16.7240    2.7780 C.3   131  ARG131      0.1563
    155  C         20.7760   15.6100    3.4510 C.2   131  ARG131      0.2260
    156  O         21.2280   14.4700    3.3710 O.2   131  ARG131     -0.2867
    157  CB        22.7250   17.0470    3.6100 C.3   131  ARG131      0.0307
    158  CG        22.4100   17.6290    4.9950 C.3   131  ARG131      0.0489
    159  CD        23.6670   18.0390    5.8590 C.3   131  ARG131      0.2205
    160  NE        23.1470   18.6680    7.0950 N.pl3 131  ARG131     -0.0865
    161  CZ        22.9660   19.9770    7.2440 C.cat 131  ARG131      0.5346
    162  NH1       23.3300   20.7910    6.2640 N.pl3 131  ARG131      0.1354
    163  NH2       22.4570   20.4770    8.3600 N.pl3 131  ARG131      0.1354
    164  N         15.8350   12.6720    0.6640 N.3   134  LEU134     -0.1245
    165  CA        16.1590   11.6130   -0.2760 C.3   134  LEU134      0.1561
    166  C         15.1650   11.6460   -1.4070 C.2   134  LEU134      0.2260
    167  O         13.9990   12.1330   -1.2470 O.2   134  LEU134     -0.2867
    168  CB        16.0950   10.2110    0.3990 C.3   134  LEU134      0.0270
    169  CG        17.0840    9.9470    1.5340 C.3   134  LEU134      0.0019
    170  CD1       16.8260    8.5970    2.2250 C.3   134  LEU134      0.0001
    171  CD2       18.5010    9.9890    0.9250 C.3   134  LEU134      0.0001
    172  N         14.1000   12.6950    5.5080 N.3   144  SER144     -0.1202
    173  CA        14.7450   11.6580    6.1570 C.3   144  SER144      0.2020
    174  C         15.4450   12.1780    7.4450 C.2   144  SER144      0.2619
    175  O         15.5020   13.3840    7.7350 O.2   144  SER144     -0.2717
    176  CB        15.8060   11.1190    5.1820 C.3   144  SER144      0.2103
    177  OG        16.4480    9.9740    5.6420 O.3   144  SER144     -0.2182
    178  N         15.9700   11.2230    8.1890 N.am  145  ASP145     -0.1959
    179  CA        16.6630   11.4580    9.4600 C.3   145  ASP145      0.1840
    180  C         15.8890   12.3100   10.4060 C.2   145  ASP145      0.2622
    181  O         16.4800   13.1160   11.0930 O.2   145  ASP145     -0.2715
    182  CB        18.0130   12.0940    9.2130 C.3   145  ASP145      0.1450
    183  CG        19.0130   11.0840    8.6960 C.2   145  ASP145      0.3671
    184  OD1       18.6580    9.8740    8.6600 O.co2 145  ASP145     -0.2456
    185  OD2       20.1560   11.4710    8.3680 O.co2 145  ASP145     -0.2456
    186  N         14.5890   12.1310   10.4810 N.am  146  PHE146     -0.1974
    187  CA        13.8560   13.0780   11.2690 C.3   146  PHE146      0.1639
    188  C         14.1290   12.7700   12.7680 C.2   146  PHE146      0.2290
    189  O         14.0740   11.5820   13.1880 O.2   146  PHE146     -0.2864
    190  CB        12.3730   13.0120   10.9550 C.3   146  PHE146      0.0560
    191  CG        11.8810   11.6560   10.5460 C.ar  146  PHE146     -0.0200
    192  CD1       11.9420   11.2690    9.2210 C.ar  146  PHE146     -0.0042
    193  CD2       11.2570   10.8190   11.4640 C.ar  146  PHE146     -0.0042
    194  CE1       11.4410   10.0170    8.8070 C.ar  146  PHE146     -0.0003
    195  CE2       10.7160    9.5990   11.0640 C.ar  146  PHE146     -0.0003
    196  CZ        10.8300    9.1770    9.7370 C.ar  146  PHE146     -0.0000
    197  N         16.8020   12.6180   14.4500 N.3   148  LEU148     -0.1245
    198  CA        17.9950   11.7590   14.7140 C.3   148  LEU148      0.1561
    199  C         19.1600   12.4620   15.3990 C.2   148  LEU148      0.2260
    200  O         19.9810   11.8070   16.0800 O.2   148  LEU148     -0.2867
    201  CB        18.5370   11.1690   13.4100 C.3   148  LEU148      0.0270
    202  CG        19.4420    9.9430   13.6140 C.3   148  LEU148      0.0019
    203  CD1       18.5480    8.7710   14.0670 C.3   148  LEU148      0.0001
    204  CD2       20.2440    9.5930   12.3370 C.3   148  LEU148      0.0001
@<TRIPOS>BOND
     1   148   147    2
     2   147   146    1
     3   118   117    1
     4   116   117   ar
     5   116   114   ar
     6   146   149    1
     7   146   145    1
     8   117   115   ar
     9   149   150    1
    10   140   139    2
    11   127   128    1
    12   114   112   ar
    13   150   151    2
    14   150   152   am
    15   145   139   am
    16   139   138    1
    17   134   133    2
    18   121   122    2
    19   121   120    1
    20   115   113   ar
    21   128   129    1
    22     8     6    1
    23   112   113   ar
    24   112   111    1
    25   130   129    2
    26   129   131   am
    27   138   137    1
    28   138   141    1
    29   133   132    1
    30   120   119    1
    31   120   123    1
    32   131   132    1
    33   110   109    2
    34   143   142    1
    35   111   108    1
    36   119   109   am
    37   109   108    1
    38   166   167    2
    39   166   165    1
    40   132   135    1
    41   123   124    1
    42   142   141    1
    43   142   144    1
    44     6     5    1
    45     6     7    1
    46   126   125    1
    47     2     5    1
    48     2     1    1
    49     2     3    1
    50     4     3    2
    51   125   124    1
    52   136   135    1
    53   108   107    1
    54     3     9   am
    55   165   168    1
    56   165   164    1
    57   106   104   ar
    58   107   100   am
    59   168   169    1
    60     9    10    1
    61   171   169    1
    62    10    11    1
    63   104   103    1
    64   104   105   ar
    65   100   101    2
    66   100    99    1
    67   169   170    1
    68   103   102    1
    69   102    99    1
    70    99    98    1
    71    31    30    2
    72    35    36    1
    73    39    36    1
    74    11    12    2
    75   153   154    1
    76    36    37    1
    77   154   155    1
    78   154   157    1
    79    30    29    1
    80    33    32    1
    81   156   155    2
    82    74    72    1
    83   157   158    1
    84    32    29    1
    85    32    34    1
    86    98    93   am
    87    94    93    2
    88    37    38    2
    89    93    92    1
    90    29    28    1
    91    69    72    1
    92    69    68    1
    93    69    70    1
    94    96    95    1
    95    72    73    1
    96   158   159    1
    97   176   177    1
    98   176   173    1
    99    95    92    1
   100    95    97    1
   101    70    71    2
   102   172   173    1
   103    92    91    1
   104   159   160    1
   105   173   174    1
   106   162   161    1
   107   160   161    2
   108    40    41    1
   109   161   163    1
   110    27    26    2
   111   174   175    2
   112   174   178   am
   113    41    44    1
   114    41    42    1
   115    75    76    1
   116    26    25    1
   117    44    45    1
   118   178   179    1
   119   185   183   ar
   120    86    85    2
   121    46    45    1
   122    46    47    1
   123    76    77    1
   124    76    79    1
   125    77    78    2
   126   184   183   ar
   127   183   182    1
   128    48    47    1
   129   194   192   ar
   130   194   196   ar
   131    42    43    2
   132   182   179    1
   133   192   191   ar
   134    85    84    1
   135   179   180    1
   136    25    24    1
   137   196   195   ar
   138    24    15   am
   139    79    80    1
   140    20    22   ar
   141    20    18   ar
   142    22    23   ar
   143   180   186   am
   144   180   181    2
   145   186   187    1
   146   191   190    1
   147   191   193   ar
   148    89    87    1
   149    17    18    1
   150    17    14    1
   151    81    80    1
   152    84    87    1
   153    84    83    1
   154    13    14    1
   155   190   187    1
   156    18    19   ar
   157   195   193   ar
   158    87    88    1
   159    80    82    1
   160    15    14    1
   161    15    16    2
   162   187   188    1
   163    23    21   ar
   164    19    21   ar
   165   204   202    1
   166    88    90    1
   167   188   189    2
   168    63    62    2
   169   201   202    1
   170   201   198    1
   171    67    66    1
   172   202   203    1
   173    62    61    1
   174   197   198    1
   175    64    61    1
   176    64    65    1
   177   198   199    1
   178    61    60    1
   179    65    66    1
   180    59    57   ar
   181    59    58   ar
   182   199   200    2
   183    57    55   ar
   184    58    56   ar
   185    55    54   ar
   186    56    54   ar
   187    54    53    1
   188    53    50    1
   189    52    51    2
   190    51    50    1
   191    50    49    1
