@<TRIPOS>MOLECULE
tmp/6di4C02.pdb
 87 82 0 0 0
SMALL
GASTEIGER

@<TRIPOS>ATOM
      1  N          7.6990   -9.3550  -15.9320 N.3     1  VAL1       -0.1231
      2  CA         6.5590  -10.2520  -16.0350 C.3     1  VAL1        0.1692
      3  C          5.3090   -9.5560  -15.5000 C.2     1  VAL1        0.2591
      4  O          5.2800   -9.1180  -14.3520 O.2     1  VAL1       -0.2718
      5  CB         6.7630  -11.5640  -15.2400 C.3     1  VAL1        0.0266
      6  CG1        5.6580  -12.5530  -15.5960 C.3     1  VAL1        0.0020
      7  CG2        8.1400  -12.1650  -15.5440 C.3     1  VAL1        0.0020
      8  N          4.2770   -9.4640  -16.3310 N.am    2  LEU2       -0.1980
      9  CA         3.0480   -8.7850  -15.9300 C.3     2  LEU2        0.1596
     10  C          1.9830   -9.6960  -15.3250 C.2     2  LEU2        0.2287
     11  O          1.7560  -10.8110  -15.7950 O.2     2  LEU2       -0.2864
     12  CB         2.4500   -8.0370  -17.1240 C.3     2  LEU2        0.0297
     13  CG         3.3320   -7.0140  -17.8490 C.3     2  LEU2        0.0022
     14  CD1        2.4700   -6.2310  -18.8270 C.3     2  LEU2        0.0001
     15  CD2        3.9780   -6.0680  -16.8580 C.3     2  LEU2        0.0001
     16  N          0.1030   -8.1020  -25.4620 N.3    73  VAL73      -0.1231
     17  CA         0.8550   -8.1350  -24.2160 C.3    73  VAL73       0.1692
     18  C          1.2750   -9.5530  -23.8220 C.2    73  VAL73       0.2592
     19  O          2.1550   -9.7330  -22.9850 O.2    73  VAL73      -0.2718
     20  CB         0.0480   -7.4810  -23.0630 C.3    73  VAL73       0.0266
     21  CG1       -1.1180   -8.3740  -22.6510 C.3    73  VAL73       0.0020
     22  CG2        0.9660   -7.1980  -21.8900 C.3    73  VAL73       0.0020
     23  N          0.6570  -10.5570  -24.4370 N.am   74  ASP74      -0.1974
     24  CA         0.9780  -11.9570  -24.1480 C.3    74  ASP74       0.1709
     25  C          1.8280  -12.5750  -25.2540 C.2    74  ASP74       0.2293
     26  O          2.1330  -13.7700  -25.2270 O.2    74  ASP74      -0.2864
     27  CB        -0.3080  -12.7750  -24.0020 C.3    74  ASP74       0.1436
     28  CG        -1.0480  -12.4750  -22.7180 C.2    74  ASP74       0.3671
     29  OD1       -2.2810  -12.6710  -22.6830 O.co2  74  ASP74      -0.2456
     30  OD2       -0.3960  -12.0580  -21.7400 O.co2  74  ASP74      -0.2456
     31  N          4.4140  -10.3210  -27.0280 N.3    76  MET76      -0.1231
     32  CA         5.2230   -9.1870  -27.4510 C.3    76  MET76       0.1687
     33  C          6.4650   -9.5160  -28.2680 C.2    76  MET76       0.2434
     34  O          6.6890   -8.9120  -29.3100 O.2    76  MET76      -0.2733
     35  CB         5.6120   -8.3280  -26.2440 C.3    76  MET76       0.0400
     36  CG         4.4330   -7.5940  -25.6200 C.3    76  MET76       0.0596
     37  SD         4.9120   -6.2910  -24.4570 S.3    76  MET76      -0.1393
     38  CE         5.1280   -7.2330  -22.9800 C.3    76  MET76       0.0692
     39  N          7.2950  -10.4700  -27.8110 N.am   77  PRO77      -0.2729
     40  CA         8.4930  -10.7850  -28.5970 C.3    77  PRO77       0.1401
     41  C          8.2050  -10.9600  -30.0870 C.2    77  PRO77       0.2269
     42  O          8.8980  -10.3990  -30.9310 O.2    77  PRO77      -0.2865
     43  CB         9.0030  -12.0590  -27.9370 C.3    77  PRO77       0.0296
     44  CG         8.6710  -11.8240  -26.5020 C.3    77  PRO77       0.0237
     45  CD         7.2460  -11.2860  -26.5850 C.3    77  PRO77       0.0939
     46  N          4.3640    1.1460  -15.5870 N.3   126  ASP126     -0.1225
     47  CA         5.8190    1.1480  -15.4980 C.3   126  ASP126      0.1805
     48  C          6.3690   -0.2290  -15.8680 C.2   126  ASP126      0.2597
     49  O          7.3260   -0.3360  -16.6320 O.2   126  ASP126     -0.2718
     50  CB         6.2790    1.5210  -14.0930 C.3   126  ASP126      0.1424
     51  CG         7.7880    1.6100  -13.9840 C.2   126  ASP126      0.3668
     52  OD1        8.3750    2.5780  -14.5090 O.co2 126  ASP126     -0.2456
     53  OD2        8.3890    0.7020  -13.3790 O.co2 126  ASP126     -0.2456
     54  N          5.7640   -1.2830  -15.3300 N.am  127  LYS127     -0.1979
     55  CA         6.2210   -2.6390  -15.6270 C.3   127  LYS127      0.1596
     56  C          6.0480   -2.9390  -17.1100 C.2   127  LYS127      0.2287
     57  O          6.9220   -3.5330  -17.7420 O.2   127  LYS127     -0.2864
     58  CB         5.4390   -3.6650  -14.8010 C.3   127  LYS127      0.0298
     59  CG         5.6940   -3.6070  -13.3110 C.3   127  LYS127      0.0038
     60  CD         4.8430   -4.6430  -12.5650 C.3   127  LYS127      0.0206
     61  CE         5.1930   -6.0740  -12.9810 C.3   127  LYS127      0.1093
     62  NZ         4.3840   -7.0960  -12.2620 N.3   127  LYS127     -0.1314
     63  N          8.6710   -1.1860  -19.0800 N.3   130  ALA130     -0.1231
     64  CA         9.9670   -1.8150  -18.8310 C.3   130  ALA130      0.1694
     65  C         10.0240   -3.1080  -19.6440 C.2   130  ALA130      0.2592
     66  O         11.0730   -3.4900  -20.1690 O.2   130  ALA130     -0.2718
     67  CB        10.1320   -2.1180  -17.3510 C.3   130  ALA130      0.0304
     68  N          8.8830   -3.7800  -19.7460 N.am  131  SER131     -0.1952
     69  CA         8.8010   -5.0270  -20.5010 C.3   131  SER131      0.1924
     70  C          9.0300   -4.7450  -21.9840 C.2   131  SER131      0.2314
     71  O          9.8060   -5.4370  -22.6460 O.2   131  SER131     -0.2863
     72  CB         7.4320   -5.6800  -20.2950 C.3   131  SER131      0.2116
     73  OG         7.3030   -6.8310  -21.1100 O.3   131  SER131     -0.2180
     74  N         12.5980   -3.9650  -22.6860 N.3   134  THR134     -0.1203
     75  CA        13.4120   -5.1650  -22.6600 C.3   134  THR134      0.1994
     76  C         13.3540   -5.8580  -24.0120 C.2   134  THR134      0.2617
     77  O         14.3820   -6.2530  -24.5670 O.2   134  THR134     -0.2717
     78  CB        12.9310   -6.1170  -21.5520 C.3   134  THR134      0.1784
     79  OG1       13.3210   -5.5890  -20.2810 O.3   134  THR134     -0.2211
     80  CG2       13.5250   -7.5080  -21.7350 C.3   134  THR134      0.0376
     81  N         12.1510   -5.9830  -24.5550 N.am  135  VAL135     -0.1979
     82  CA        11.9820   -6.6320  -25.8390 C.3   135  VAL135      0.1595
     83  C         12.7160   -5.8710  -26.9440 C.2   135  VAL135      0.2287
     84  O         13.4100   -6.4770  -27.7580 O.2   135  VAL135     -0.2864
     85  CB        10.4840   -6.7640  -26.2100 C.3   135  VAL135      0.0276
     86  CG1       10.3430   -7.3870  -27.5830 C.3   135  VAL135      0.0022
     87  CG2        9.7650   -7.6140  -25.1770 C.3   135  VAL135      0.0022
@<TRIPOS>BOND
     1    42    41    2
     2    41    40    1
     3    34    33    2
     4    40    43    1
     5    40    39    1
     6    33    39   am
     7    33    32    1
     8    43    44    1
     9    39    45    1
    10    84    83    2
    11    86    85    1
    12    32    31    1
    13    32    35    1
    14    83    82    1
    15    45    44    1
    16    35    36    1
    17    85    82    1
    18    85    87    1
    19    82    81    1
    20    36    37    1
    21    16    17    1
    22    25    26    2
    23    25    24    1
    24    77    76    2
    25    81    76   am
    26    37    38    1
    27    23    24    1
    28    23    18   am
    29    17    18    1
    30    17    20    1
    31    24    27    1
    32    76    75    1
    33    27    28    1
    34    18    19    2
    35    20    21    1
    36    20    22    1
    37    28    29   ar
    38    28    30   ar
    39    74    75    1
    40    75    78    1
    41    71    70    2
    42    70    69    1
    43    80    78    1
    44    78    79    1
    45    73    72    1
    46    69    72    1
    47    69    68    1
    48    66    65    2
    49    68    65   am
    50    65    64    1
    51    63    64    1
    52    64    67    1
    53    14    13    1
    54    13    12    1
    55    13    15    1
    56    57    56    2
    57    12     9    1
    58    56    55    1
    59    49    48    2
    60     8     9    1
    61     8     3   am
    62     2     1    1
    63     2     3    1
    64     2     5    1
    65     9    10    1
    66    48    47    1
    67    48    54   am
    68    11    10    2
    69    55    54    1
    70    55    58    1
    71     6     5    1
    72    46    47    1
    73     7     5    1
    74     3     4    2
    75    47    50    1
    76    58    59    1
    77    52    51   ar
    78    50    51    1
    79    51    53   ar
    80    59    60    1
    81    61    60    1
    82    61    62    1
