@<TRIPOS>MOLECULE
tmp/6di5A00.pdb
 196 183 0 0 0
SMALL
GASTEIGER

@<TRIPOS>ATOM
      1  N        -11.2210    1.8880   -0.8680 N.3    20  LEU20      -0.1231
      2  CA       -11.8580    3.1660   -1.2710 C.3    20  LEU20       0.1693
      3  C        -11.1560    4.4190   -0.7380 C.2    20  LEU20       0.2593
      4  O        -11.4200    5.5210   -1.2500 O.2    20  LEU20      -0.2718
      5  CB       -13.3180    3.2370   -0.7970 C.3    20  LEU20       0.0284
      6  CG       -14.3130    2.1870   -1.2990 C.3    20  LEU20       0.0019
      7  CD1      -15.6600    2.3400   -0.5990 C.3    20  LEU20       0.0001
      8  CD2      -14.4480    2.2470   -2.8300 C.3    20  LEU20       0.0001
      9  N        -10.3310    4.2720    0.3020 N.am   21  GLY21      -0.1942
     10  CA        -9.6380    5.4160    0.9360 C.3    21  GLY21       0.2014
     11  C         -8.9340    5.0740    2.2520 C.2    21  GLY21       0.2639
     12  O         -9.2800    4.0920    2.9290 O.2    21  GLY21      -0.2714
     13  N         -7.9450    5.8880    2.6270 N.am   22  THR22      -0.1950
     14  CA        -7.0530    5.5730    3.7590 C.3    22  THR22       0.1897
     15  C         -6.4620    6.8370    4.4080 C.2    22  THR22       0.2313
     16  O         -6.0320    7.7600    3.7090 O.2    22  THR22      -0.2863
     17  CB        -5.8870    4.6820    3.3080 C.3    22  THR22       0.1794
     18  OG1       -5.1340    4.2020    4.4330 O.3    22  THR22      -0.2208
     19  CG2       -4.9320    5.3480    2.3670 C.3    22  THR22       0.0378
     20  N        -11.0830    2.6160    4.6260 N.3    28  VAL28      -0.1245
     21  CA       -12.4610    2.2700    4.1740 C.3    28  VAL28       0.1561
     22  C        -12.3900    1.2750    2.9790 C.2    28  VAL28       0.2260
     23  O        -11.6570    1.5080    2.0030 O.2    28  VAL28      -0.2867
     24  CB       -13.3070    3.5370    3.7420 C.3    28  VAL28       0.0252
     25  CG1      -14.6920    3.1330    3.2990 C.3    28  VAL28       0.0019
     26  CG2      -13.4140    4.5770    4.8860 C.3    28  VAL28       0.0019
     27  N        -20.2660   -0.3480    2.4860 N.3    40  ALA40      -0.1245
     28  CA       -18.9350    0.2140    2.8540 C.3    40  ALA40       0.1562
     29  C        -18.5580   -0.1560    4.3170 C.2    40  ALA40       0.2260
     30  O        -19.4220   -0.1540    5.2210 O.2    40  ALA40      -0.2867
     31  CB       -18.8790    1.7720    2.6550 C.3    40  ALA40       0.0290
     32  N        -15.8160    0.8230    7.3560 N.3    42  LYS42      -0.1245
     33  CA       -14.7670    1.7060    7.9700 C.3    42  LYS42       0.1561
     34  C        -14.0970    0.9990    9.1650 C.2    42  LYS42       0.2260
     35  O        -14.7820    0.6610   10.1440 O.2    42  LYS42      -0.2867
     36  CB       -15.3260    3.1020    8.3740 C.3    42  LYS42       0.0271
     37  CG       -14.2810    4.1010    8.9580 C.3    42  LYS42       0.0035
     38  CD       -14.9080    5.4560    9.3790 C.3    42  LYS42       0.0206
     39  CE       -14.8910    6.5210    8.2840 C.3    42  LYS42       0.1093
     40  NZ       -15.1570    7.8910    8.8610 N.3    42  LYS42      -0.1314
     41  N        -18.9640    5.8030   21.9870 N.3    54  PHE54      -0.1241
     42  CA       -19.5010    5.7060   20.6130 C.3    54  PHE54       0.1605
     43  C        -20.5790    4.5930   20.4230 C.2    54  PHE54       0.2264
     44  O        -21.5970    4.8130   19.7600 O.2    54  PHE54      -0.2867
     45  CB       -18.4000    5.5150   19.5330 C.3    54  PHE54       0.0534
     46  CG       -18.9690    5.3760   18.1320 C.ar   54  PHE54      -0.0203
     47  CD1      -19.4440    6.4900   17.4550 C.ar   54  PHE54      -0.0042
     48  CD2      -19.0670    4.1330   17.4940 C.ar   54  PHE54      -0.0042
     49  CE1      -19.9950    6.3870   16.1520 C.ar   54  PHE54      -0.0003
     50  CE2      -19.6220    4.0480   16.1670 C.ar   54  PHE54      -0.0003
     51  CZ       -20.0860    5.1560   15.5430 C.ar   54  PHE54      -0.0000
     52  N        -28.2880    6.5310   16.6480 N.3    61  MET61      -0.1245
     53  CA       -28.0450    6.8110   15.2160 C.3    61  MET61       0.1570
     54  C        -28.7890    5.8230   14.2740 C.2    61  MET61       0.2261
     55  O        -29.1480    6.2050   13.1350 O.2    61  MET61      -0.2867
     56  CB       -26.5300    6.8620   14.9290 C.3    61  MET61       0.0387
     57  CG       -25.7120    8.0070   15.6390 C.3    61  MET61       0.0595
     58  SD       -23.9040    7.7090   15.6810 S.3    61  MET61      -0.1393
     59  CE       -23.4640    7.9470   13.9600 C.3    61  MET61       0.0692
     60  N        -26.5830    9.6340    4.9100 N.3    70  VAL70      -0.1245
     61  CA       -25.9590    8.2790    4.7950 C.3    70  VAL70       0.1561
     62  C        -26.5000    7.2960    5.9340 C.2    70  VAL70       0.2260
     63  O        -26.4580    7.6220    7.1420 O.2    70  VAL70      -0.2867
     64  CB       -24.3840    8.3460    4.8530 C.3    70  VAL70       0.0252
     65  CG1      -23.7550    6.9400    5.0480 C.3    70  VAL70       0.0019
     66  CG2      -23.8550    9.0690    3.6250 C.3    70  VAL70       0.0019
     67  N        -26.7240    4.2630    8.5470 N.3    72  LEU72      -0.1245
     68  CA       -25.9240    3.3170    9.3940 C.3    72  LEU72       0.1561
     69  C        -26.6100    1.9160    9.4240 C.2    72  LEU72       0.2260
     70  O        -27.8070    1.8220    9.7820 O.2    72  LEU72      -0.2867
     71  CB       -25.7380    3.8500   10.8330 C.3    72  LEU72       0.0270
     72  CG       -24.9450    2.9610   11.8260 C.3    72  LEU72       0.0019
     73  CD1      -23.4780    2.8300   11.4490 C.3    72  LEU72       0.0001
     74  CD2      -25.0560    3.4770   13.2790 C.3    72  LEU72       0.0001
     75  N        -17.4190    0.1230   11.4090 N.3    84  ILE84      -0.1245
     76  CA       -18.6930    0.8590   11.1570 C.3    84  ILE84       0.1561
     77  C        -19.1870    0.5490    9.7230 C.2    84  ILE84       0.2260
     78  O        -18.4310    0.7780    8.7510 O.2    84  ILE84      -0.2867
     79  CB       -18.5320    2.4330   11.3200 C.3    84  ILE84       0.0252
     80  CG1      -17.8980    2.7780   12.6860 C.3    84  ILE84       0.0019
     81  CG2      -19.8800    3.1380   11.0880 C.3    84  ILE84       0.0019
     82  CD1      -17.5970    4.3370   12.8690 C.3    84  ILE84       0.0001
     83  N        -21.9780    0.9140    6.5420 N.3    86  THR86      -0.1203
     84  CA       -22.9450    1.8800    5.9320 C.3    86  THR86       0.1994
     85  C        -23.3640    1.5080    4.4900 C.2    86  THR86       0.2621
     86  O        -22.7680    0.6160    3.8240 O.2    86  THR86      -0.2717
     87  CB       -22.3880    3.3730    5.9190 C.3    86  THR86       0.1784
     88  OG1      -21.4270    3.5210    4.8570 O.3    86  THR86      -0.2211
     89  CG2      -21.7920    3.7590    7.2500 C.3    86  THR86       0.0376
     90  N        -24.3770    2.2250    3.9730 N.am   87  GLU87      -0.1919
     91  CA       -24.7240    2.1450    2.5360 C.3    87  GLU87       0.1949
     92  C        -23.5140    2.5510    1.6450 C.2    87  GLU87       0.2659
     93  O        -22.6630    3.3410    2.0690 O.2    87  GLU87      -0.2711
     94  CB       -26.0020    2.9690    2.2010 C.2    87  GLU87       0.0111
     95  CG       -25.8090    4.4730    2.1320 C.2    87  GLU87       0.0838
     96  CD       -27.0940    5.3010    1.7530 C.2    87  GLU87       0.3877
     97  OE1      -27.6510    5.9530    2.6590 O.co2  87  GLU87      -0.2406
     98  OE2      -27.5810    5.2670    0.6090 O.co2  87  GLU87      -0.2406
     99  N        -23.4480    1.9880    0.4420 N.am   88  TYR88      -0.1957
    100  CA       -22.3560    2.2130   -0.5490 C.3    88  TYR88       0.1771
    101  C        -22.6090    3.4790   -1.4330 C.2    88  TYR88       0.2619
    102  O        -23.7310    3.6430   -1.9860 O.2    88  TYR88      -0.2715
    103  CB       -22.1820    0.9610   -1.4270 C.3    88  TYR88       0.0574
    104  CG       -21.1170    1.0220   -2.5190 C.ar   88  TYR88      -0.0198
    105  CD1      -19.8160    1.4380   -2.2380 C.ar   88  TYR88      -0.0009
    106  CD2      -21.3960    0.6260   -3.8280 C.ar   88  TYR88      -0.0009
    107  CE1      -18.8470    1.5160   -3.2110 C.ar   88  TYR88       0.0417
    108  CE2      -20.4070    0.6730   -4.8210 C.ar   88  TYR88       0.0417
    109  CZ       -19.1310    1.1150   -4.5030 C.ar   88  TYR88       0.1957
    110  OH       -18.1390    1.1570   -5.4660 O.3    88  TYR88      -0.2866
    111  N        -21.5710    4.3320   -1.5420 N.am   89  MET89      -0.1977
    112  CA       -21.5830    5.6360   -2.3090 C.3    89  MET89       0.1605
    113  C        -20.4640    5.6280   -3.4190 C.2    89  MET89       0.2287
    114  O        -19.3040    6.0110   -3.1820 O.2    89  MET89      -0.2864
    115  CB       -21.4650    6.8400   -1.3290 C.3    89  MET89       0.0413
    116  CG       -22.5500    6.9020   -0.2270 C.3    89  MET89       0.0598
    117  SD       -24.2330    7.2990   -0.7940 S.3    89  MET89      -0.1393
    118  CE       -24.0630    9.0420   -1.1880 C.3    89  MET89       0.0692
    119  N        -17.7870    8.5550   -4.3730 N.3    92  GLY92      -0.1210
    120  CA       -16.7850    9.0030   -3.3710 C.3    92  GLY92       0.1956
    121  C        -17.0050   10.3910   -2.7110 C.2    92  GLY92       0.2612
    122  O        -18.1160   10.9030   -2.6630 O.2    92  GLY92      -0.2717
    123  N        -15.9450   10.9660   -2.1540 N.am   93  CYS93      -0.1970
    124  CA       -15.9560   12.2500   -1.4250 C.3    93  CYS93       0.1712
    125  C        -16.3670   13.4640   -2.3090 C.2    93  CYS93       0.2296
    126  O        -15.8420   13.6120   -3.4260 O.2    93  CYS93      -0.2864
    127  CB       -14.5540   12.4660   -0.8370 C.3    93  CYS93       0.0983
    128  SG       -14.4150   13.9300    0.1500 S.3    93  CYS93      -0.0798
    129  N        -15.6310   16.7420   -2.0600 N.3    95  LEU95      -0.1231
    130  CA       -14.4970   17.6790   -2.3450 C.3    95  LEU95       0.1693
    131  C        -13.6810   17.2390   -3.6080 C.2    95  LEU95       0.2592
    132  O        -13.4140   18.0780   -4.5000 O.2    95  LEU95      -0.2718
    133  CB       -13.5740   17.8540   -1.1100 C.3    95  LEU95       0.0284
    134  CG       -12.4310   18.8730   -1.2520 C.3    95  LEU95       0.0019
    135  CD1      -12.9880   20.2700   -1.5450 C.3    95  LEU95       0.0001
    136  CD2      -11.6070   18.8970    0.0570 C.3    95  LEU95       0.0001
    137  N        -13.3170   15.9470   -3.6730 N.am   96  ASN96      -0.1974
    138  CA       -12.5480   15.4190   -4.8440 C.3    96  ASN96       0.1688
    139  C        -13.3810   15.4890   -6.1710 C.2    96  ASN96       0.2292
    140  O        -12.8310   15.8010   -7.2670 O.2    96  ASN96      -0.2864
    141  CB       -12.0620   13.9890   -4.5690 C.3    96  ASN96       0.1181
    142  CG       -10.9890   13.9200   -3.4730 C.2    96  ASN96       0.2629
    143  OD1      -10.5090   14.9520   -2.9700 O.2    96  ASN96      -0.2716
    144  ND2      -10.5720   12.7050   -3.1340 N.am   96  ASN96      -0.0877
    145  N        -15.5920   18.0230    2.5600 N.3   137  ARG137     -0.1245
    146  CA       -14.7970   16.7990    2.8720 C.3   137  ARG137      0.1563
    147  C        -15.5780   15.7060    3.6530 C.2   137  ARG137      0.2260
    148  O        -15.1170   14.5440    3.6640 O.2   137  ARG137     -0.2867
    149  CB       -13.4670   17.1430    3.6220 C.3   137  ARG137      0.0307
    150  CG       -13.6940   17.7200    5.0040 C.3   137  ARG137      0.0489
    151  CD       -12.4140   18.1120    5.8260 C.3   137  ARG137      0.2205
    152  NE       -12.8420   18.7620    7.0880 N.pl3 137  ARG137     -0.0865
    153  CZ       -13.1000   20.0470    7.2100 C.cat 137  ARG137      0.5346
    154  NH1      -12.9060   20.8420    6.1640 N.pl3 137  ARG137      0.1354
    155  NH2      -13.5400   20.5800    8.3610 N.pl3 137  ARG137      0.1354
    156  N        -20.7220   12.7670    0.7150 N.3   140  LEU140     -0.1245
    157  CA       -20.4700   11.6460   -0.2470 C.3   140  LEU140      0.1561
    158  C        -21.4210   11.7360   -1.4930 C.2   140  LEU140      0.2260
    159  O        -22.5030   12.3480   -1.3980 O.2   140  LEU140     -0.2867
    160  CB       -20.5810   10.2350    0.4520 C.3   140  LEU140      0.0270
    161  CG       -19.5350    9.9310    1.5510 C.3   140  LEU140      0.0019
    162  CD1      -19.8430    8.7090    2.4310 C.3   140  LEU140      0.0001
    163  CD2      -18.1010    9.7640    0.9850 C.3   140  LEU140      0.0001
    164  N        -22.5410   12.8740    5.7060 N.3   150  SER150     -0.1202
    165  CA       -21.8060   11.7750    6.4120 C.3   150  SER150      0.2020
    166  C        -21.0740   12.2750    7.7070 C.2   150  SER150      0.2619
    167  O        -20.9980   13.4930    7.9680 O.2   150  SER150     -0.2717
    168  CB       -20.8190   11.0940    5.4180 C.3   150  SER150      0.2103
    169  OG       -20.2900    9.8660    5.9330 O.3   150  SER150     -0.2182
    170  N        -20.5730   11.3330    8.5250 N.am  151  ASP151     -0.1959
    171  CA       -19.7280   11.6090    9.7400 C.3   151  ASP151      0.1840
    172  C        -20.4620   12.4940   10.7730 C.2   151  ASP151      0.2622
    173  O        -19.8300   13.2100   11.5910 O.2   151  ASP151     -0.2715
    174  CB       -18.3390   12.1970    9.3390 C.3   151  ASP151      0.1450
    175  CG       -17.3270   11.1370    8.8630 C.2   151  ASP151      0.3671
    176  OD1      -17.5910    9.9090    8.9090 O.co2 151  ASP151     -0.2456
    177  OD2      -16.1900   11.5600    8.5490 O.co2 151  ASP151     -0.2456
    178  N        -21.8060   12.4620   10.7860 N.am  152  PHE152     -0.1974
    179  CA       -22.6470   13.3470   11.6700 C.3   152  PHE152      0.1639
    180  C        -22.4380   13.0600   13.1930 C.2   152  PHE152      0.2290
    181  O        -22.5790   11.9040   13.6430 O.2   152  PHE152     -0.2864
    182  CB       -24.1580   13.3380   11.2600 C.3   152  PHE152      0.0560
    183  CG       -24.7200   11.9610   10.8870 C.ar  152  PHE152     -0.0200
    184  CD1      -24.6710   11.4890    9.5520 C.ar  152  PHE152     -0.0042
    185  CD2      -25.3640   11.1490   11.8340 C.ar  152  PHE152     -0.0042
    186  CE1      -25.1990   10.2120    9.2050 C.ar  152  PHE152     -0.0003
    187  CE2      -25.9040    9.9050   11.4760 C.ar  152  PHE152     -0.0003
    188  CZ       -25.8070    9.4330   10.1390 C.ar  152  PHE152     -0.0000
    189  N        -19.6290   12.7400   14.8490 N.3   154  LEU154     -0.1245
    190  CA       -18.4790   11.8400   15.1160 C.3   154  LEU154      0.1561
    191  C        -17.3260   12.5010   15.9080 C.2   154  LEU154      0.2260
    192  O        -16.6490   11.7930   16.6770 O.2   154  LEU154     -0.2867
    193  CB       -17.9530   11.2060   13.7790 C.3   154  LEU154      0.0270
    194  CG       -16.8500   10.1430   13.8400 C.3   154  LEU154      0.0019
    195  CD1      -17.3580    8.8990   14.5280 C.3   154  LEU154      0.0001
    196  CD2      -16.3480    9.8360   12.4030 C.3   154  LEU154      0.0001
@<TRIPOS>BOND
     1   140   139    2
     2   139   138    1
     3   110   109    1
     4   138   141    1
     5   138   137    1
     6   108   109   ar
     7   108   106   ar
     8   141   142    1
     9   109   107   ar
    10   132   131    2
    11   119   120    1
    12   106   104   ar
    13   137   131   am
    14   131   130    1
    15   142   144   am
    16   142   143    2
    17   126   125    2
    18   113   114    2
    19   113   112    1
    20   120   121    1
    21   107   105   ar
    22     8     6    1
    23   121   122    2
    24   121   123   am
    25   104   105   ar
    26   104   103    1
    27   130   129    1
    28   130   133    1
    29   125   124    1
    30   112   111    1
    31   112   115    1
    32   123   124    1
    33   102   101    2
    34   135   134    1
    35   111   101   am
    36   158   159    2
    37   158   157    1
    38   101   100    1
    39   103   100    1
    40   124   127    1
    41   115   116    1
    42     6     5    1
    43     6     7    1
    44     2     1    1
    45     2     5    1
    46     2     3    1
    47   134   133    1
    48   134   136    1
    49     4     3    2
    50   118   117    1
    51   127   128    1
    52   117   116    1
    53     3     9   am
    54   100    99    1
    55   157   160    1
    56   157   156    1
    57     9    10    1
    58    99    92   am
    59   160   161    1
    60    98    96   ar
    61    10    11    1
    62   163   161    1
    63   161   162    1
    64    92    93    2
    65    92    91    1
    66    96    95    1
    67    96    97   ar
    68    23    22    2
    69    95    94    2
    70    94    91    1
    71    11    13   am
    72    11    12    2
    73    19    17    1
    74    27    28    1
    75    91    90    1
    76   145   146    1
    77    13    14    1
    78    31    28    1
    79    28    29    1
    80   146   149    1
    81   146   147    1
    82    22    21    1
    83    25    24    1
    84    17    14    1
    85    17    18    1
    86   149   150    1
    87    66    64    1
    88   147   148    2
    89    16    15    2
    90    24    21    1
    91    24    26    1
    92    14    15    1
    93    86    85    2
    94    90    85   am
    95    21    20    1
    96    29    30    2
    97    85    84    1
    98    61    64    1
    99    61    60    1
   100    61    62    1
   101    64    65    1
   102    88    87    1
   103   150   151    1
   104   168   169    1
   105   168   165    1
   106   164   165    1
   107   151   152    1
   108    87    84    1
   109    87    89    1
   110    84    83    1
   111    62    63    2
   112   154   153    1
   113   165   166    1
   114   152   153    2
   115   153   155    1
   116    32    33    1
   117   166   167    2
   118   166   170   am
   119    33    36    1
   120    33    34    1
   121    39    40    1
   122    39    38    1
   123    36    37    1
   124   170   171    1
   125    67    68    1
   126   177   175   ar
   127    78    77    2
   128   175   176   ar
   129   175   174    1
   130    37    38    1
   131    34    35    2
   132   186   184   ar
   133   186   188   ar
   134   174   171    1
   135    68    69    1
   136    68    71    1
   137    69    70    2
   138   184   183   ar
   139    77    76    1
   140   171   172    1
   141   188   187   ar
   142   172   178   am
   143   172   173    2
   144   178   179    1
   145    71    72    1
   146   183   182    1
   147   183   185   ar
   148    81    79    1
   149    76    79    1
   150    76    75    1
   151   182   179    1
   152    79    80    1
   153    73    72    1
   154   187   185   ar
   155   179   180    1
   156    72    74    1
   157   196   194    1
   158    80    82    1
   159    55    54    2
   160   180   181    2
   161   193   194    1
   162   193   190    1
   163   194   195    1
   164    59    58    1
   165    54    53    1
   166   189   190    1
   167    56    53    1
   168    56    57    1
   169   190   191    1
   170    53    52    1
   171    51    49   ar
   172    51    50   ar
   173    57    58    1
   174   191   192    2
   175    49    47   ar
   176    50    48   ar
   177    47    46   ar
   178    48    46   ar
   179    46    45    1
   180    45    42    1
   181    44    43    2
   182    43    42    1
   183    42    41    1
