@<TRIPOS>MOLECULE
tmp/6di6A00.pdb
 97 94 0 0 0
SMALL
GASTEIGER

@<TRIPOS>ATOM
      1  N          8.1260   27.8580    9.6710 N.3    19  PRO19      -0.2116
      2  CA         7.6590   27.1930    8.4450 C.3    19  PRO19       0.1372
      3  C          6.1530   27.0120    8.4930 C.2    19  PRO19       0.2244
      4  O          5.4990   27.2330    9.5250 O.2    19  PRO19      -0.2868
      5  CB         8.3900   25.8560    8.4580 C.3    19  PRO19       0.0268
      6  CG         8.5350   25.5620    9.9000 C.3    19  PRO19       0.0207
      7  CD         8.8280   26.9170   10.5690 C.3    19  PRO19       0.0892
      8  N         11.0820   16.6940    9.7780 N.3   102  CYS102     -0.1235
      9  CA        10.0050   16.6170    8.7900 C.3   102  CYS102      0.1677
     10  C          9.5840   15.1730    8.5320 C.2   102  CYS102      0.2270
     11  O          8.3870   14.8830    8.3940 O.2   102  CYS102     -0.2867
     12  CB        10.4210   17.2620    7.4730 C.3   102  CYS102      0.0956
     13  SG        10.7850   19.0360    7.6640 S.3   102  CYS102     -0.0801
     14  N          9.2760   18.4080    1.3580 N.3   156  THR156     -0.1218
     15  CA        10.3780   19.1890    1.9100 C.3   156  THR156      0.1862
     16  C         11.0480   20.0450    0.8430 C.2   156  THR156      0.2287
     17  O         11.5860   21.1090    1.1670 O.2   156  THR156     -0.2866
     18  CB        11.3820   18.3060    2.6350 C.3   156  THR156      0.1770
     19  OG1       11.9850   17.4030    1.6850 O.3   156  THR156     -0.2211
     20  CG2       10.7080   17.5100    3.7360 C.3   156  THR156      0.0375
     21  N          8.7840   23.0760    0.6620 N.3   159  CYS159     -0.1221
     22  CA         9.0750   23.9540    1.7900 C.3   159  CYS159      0.1808
     23  C         10.3780   24.7140    1.5640 C.2   159  CYS159      0.2601
     24  O         10.4830   25.9110    1.8810 O.2   159  CYS159     -0.2717
     25  CB         9.1340   23.0640    3.0210 C.3   159  CYS159      0.0970
     26  SG         9.2680   23.9640    4.6000 S.3   159  CYS159     -0.0800
     27  N         11.3940   24.0320    1.0140 N.am  160  THR160     -0.1953
     28  CA        12.6540   24.7000    0.7070 C.3   160  THR160      0.1897
     29  C         12.4630   25.7960   -0.3330 C.2   160  THR160      0.2313
     30  O         13.0380   26.8850   -0.2060 O.2   160  THR160     -0.2863
     31  CB        13.6760   23.6780    0.1990 C.3   160  THR160      0.1794
     32  OG1       13.8850   22.6890    1.2080 O.3   160  THR160     -0.2208
     33  CG2       14.9910   24.3600   -0.0600 C.3   160  THR160      0.0378
     34  N         10.9980   28.7370    1.4450 N.3   163  PHE163     -0.1241
     35  CA        12.0530   29.4640    2.1460 C.3   163  PHE163      0.1605
     36  C         12.8380   30.3640    1.1860 C.2   163  PHE163      0.2264
     37  O         13.0540   31.5470    1.4610 O.2   163  PHE163     -0.2867
     38  CB        13.0030   28.4780    2.8260 C.3   163  PHE163      0.0534
     39  CG        14.0510   29.1400    3.6470 C.ar  163  PHE163     -0.0203
     40  CD1       15.1520   29.7620    3.0620 C.ar  163  PHE163     -0.0042
     41  CD2       13.9340   29.1720    5.0300 C.ar  163  PHE163     -0.0042
     42  CE1       16.0900   30.4240    3.8230 C.ar  163  PHE163     -0.0003
     43  CE2       14.8820   29.8140    5.7960 C.ar  163  PHE163     -0.0003
     44  CZ        15.9680   30.4320    5.1910 C.ar  163  PHE163     -0.0000
     45  N         15.9730   17.5540    6.7460 N.3   169  ALA169     -0.1231
     46  CA        14.8030   18.4210    6.7130 C.3   169  ALA169      0.1694
     47  C         14.1880   18.5270    8.1060 C.2   169  ALA169      0.2592
     48  O         13.8160   17.5140    8.7320 O.2   169  ALA169     -0.2718
     49  CB        13.7850   17.7940    5.7650 C.3   169  ALA169      0.0304
     50  N         14.0240   19.7570    8.5820 N.am  170  HIS170     -0.1962
     51  CA        13.6190   19.9360    9.9830 C.3   170  HIS170      0.1772
     52  C         12.9880   21.3050   10.1780 C.2   170  HIS170      0.2462
     53  O         13.5980   22.3280    9.8120 O.2   170  HIS170     -0.2730
     54  CB        14.8710   19.8350   10.8730 C.3   170  HIS170      0.0785
     55  CG        14.5880   19.4940   12.2990 C.ar  170  HIS170      0.0821
     56  ND1       13.7330   20.2340   13.1090 N.ar  170  HIS170     -0.2267
     57  CD2       15.0500   18.4710   13.0640 C.ar  170  HIS170      0.1154
     58  CE1       13.6870   19.6720   14.3030 C.ar  170  HIS170      0.1986
     59  NE2       14.4890   18.6180   14.3080 N.ar  170  HIS170     -0.2212
     60  N         11.7730   21.3820   10.7570 N.am  171  PRO171     -0.2727
     61  CA        11.1840   22.7060   11.0170 C.3   171  PRO171      0.1402
     62  C         12.0780   23.6360   11.8220 C.2   171  PRO171      0.2269
     63  O         12.0910   24.8570   11.6010 O.2   171  PRO171     -0.2865
     64  CB         9.8960   22.3940   11.7850 C.3   171  PRO171      0.0296
     65  CG         9.5910   20.9780   11.4380 C.3   171  PRO171      0.0237
     66  CD        10.9180   20.2790   11.2430 C.3   171  PRO171      0.0939
     67  N         15.3270   23.7300   11.7290 N.3   173  LEU173     -0.1231
     68  CA        16.3490   24.2410   10.8180 C.3   173  LEU173      0.1693
     69  C         15.7940   25.3800    9.9710 C.2   173  LEU173      0.2592
     70  O         16.4820   26.3770    9.7450 O.2   173  LEU173     -0.2718
     71  CB        16.8900   23.1060    9.9360 C.3   173  LEU173      0.0284
     72  CG        17.9820   23.4470    8.9100 C.3   173  LEU173      0.0019
     73  CD1       19.2090   23.9740    9.6260 C.3   173  LEU173      0.0001
     74  CD2       18.3260   22.2270    8.0400 C.3   173  LEU173      0.0001
     75  N         14.5480   25.2580    9.5030 N.am  174  TYR174     -0.1976
     76  CA        13.9110   26.3590    8.7900 C.3   174  TYR174      0.1639
     77  C         13.9040   27.6020    9.6610 C.2   174  TYR174      0.2290
     78  O         14.3310   28.6850    9.2460 O.2   174  TYR174     -0.2864
     79  CB        12.4850   25.9530    8.4400 C.3   174  TYR174      0.0560
     80  CG        11.7250   26.8560    7.4820 C.ar  174  TYR174     -0.0198
     81  CD1       11.3080   28.1660    7.8280 C.ar  174  TYR174     -0.0009
     82  CD2       11.3710   26.3700    6.2080 C.ar  174  TYR174     -0.0009
     83  CE1       10.5920   28.9340    6.9200 C.ar  174  TYR174      0.0417
     84  CE2       10.6600   27.1290    5.3290 C.ar  174  TYR174      0.0417
     85  CZ        10.2520   28.3980    5.6720 C.ar  174  TYR174      0.1957
     86  OH         9.5190   29.1170    4.7820 O.3   174  TYR174     -0.2866
     87  N         17.5810   28.9700   10.2290 N.3   177  ARG177     -0.1245
     88  CA        18.1090   29.6060    9.0200 C.3   177  ARG177      0.1563
     89  C         17.4260   30.9480    8.7630 C.2   177  ARG177      0.2260
     90  O         18.0770   31.9440    8.4040 O.2   177  ARG177     -0.2867
     91  CB        17.8990   28.6700    7.8260 C.3   177  ARG177      0.0307
     92  CG        18.8760   27.5110    7.7660 C.3   177  ARG177      0.0489
     93  CD        18.5810   26.5850    6.5850 C.3   177  ARG177      0.2205
     94  NE        19.6750   25.6360    6.3530 N.pl3 177  ARG177     -0.0865
     95  CZ        19.5780   24.5270    5.6150 C.cat 177  ARG177      0.5346
     96  NH1       18.4270   24.2000    5.0340 N.pl3 177  ARG177      0.1354
     97  NH2       20.6410   23.7350    5.4570 N.pl3 177  ARG177      0.1354
@<TRIPOS>BOND
     1    29    30    2
     2    29    28    1
     3    33    31    1
     4    31    28    1
     5    31    32    1
     6    21    22    1
     7    28    27    1
     8    16    17    2
     9    16    15    1
    10    27    23   am
    11    36    37    2
    12    36    35    1
    13    14    15    1
    14    34    35    1
    15    23    22    1
    16    23    24    2
    17    19    18    1
    18    22    25    1
    19    15    18    1
    20    35    38    1
    21    18    20    1
    22    38    39    1
    23    25    26    1
    24    40    39   ar
    25    40    42   ar
    26    39    41   ar
    27    42    44   ar
    28    86    85    1
    29    41    43   ar
    30    96    95    1
    31    44    43   ar
    32    84    85   ar
    33    84    82   ar
    34    97    95    1
    35    95    94    2
    36    85    83   ar
    37    49    46    1
    38    82    80   ar
    39    94    93    1
    40    93    92    1
    41    46    45    1
    42    46    47    1
    43    83    81   ar
    44    12    13    1
    45    12     9    1
    46    80    81   ar
    47    80    79    1
    48    92    91    1
    49    91    88    1
    50    74    72    1
    51    47    50   am
    52    47    48    2
    53    11    10    2
    54    90    89    2
    55    79    76    1
    56     2     5    1
    57     2     3    1
    58     2     1    1
    59     5     6    1
    60     3     4    2
    61    10     9    1
    62    50    51    1
    63    89    88    1
    64    76    75    1
    65    76    77    1
    66     9     8    1
    67    72    73    1
    68    72    71    1
    69    88    87    1
    70    78    77    2
    71    75    69   am
    72     1     7    1
    73    70    69    2
    74    53    52    2
    75     6     7    1
    76    71    68    1
    77    69    68    1
    78    51    52    1
    79    51    54    1
    80    52    60   am
    81    60    61    1
    82    60    66    1
    83    68    67    1
    84    54    55    1
    85    61    64    1
    86    61    62    1
    87    66    65    1
    88    65    64    1
    89    63    62    2
    90    55    57   ar
    91    55    56   ar
    92    57    59   ar
    93    56    58   ar
    94    58    59   ar
