@<TRIPOS>MOLECULE
tmp/6di9A00.pdb
 158 147 0 0 0
SMALL
GASTEIGER

@<TRIPOS>ATOM
      1  N        -23.8870   -4.3180    2.3820 N.3    15  LYS15      -0.1245
      2  CA       -25.0190   -3.4470    2.6980 C.3    15  LYS15       0.1561
      3  C        -25.1950   -2.3150    1.7030 C.2    15  LYS15       0.2260
      4  O        -24.2800   -1.9930    0.9310 O.2    15  LYS15      -0.2867
      5  CB       -24.9070   -2.8770    4.1000 C.3    15  LYS15       0.0271
      6  CG       -23.7180   -2.0080    4.3430 C.3    15  LYS15       0.0035
      7  CD       -23.9860   -1.1120    5.5470 C.3    15  LYS15       0.0206
      8  CE       -22.7150   -0.8060    6.3340 C.3    15  LYS15       0.1093
      9  NZ       -21.7100   -0.0150    5.5630 N.3    15  LYS15      -0.1314
     10  N        -25.6360    1.5030    0.4860 N.3    17  LEU17      -0.1245
     11  CA       -25.1080    2.8060    0.8680 C.3    17  LEU17       0.1561
     12  C        -25.9930    3.8870    0.2730 C.2    17  LEU17       0.2260
     13  O        -26.1380    4.9310    0.8850 O.2    17  LEU17      -0.2867
     14  CB       -23.6660    2.9680    0.4070 C.3    17  LEU17       0.0270
     15  CG       -22.6330    1.9550    0.9220 C.3    17  LEU17       0.0019
     16  CD1      -21.2840    2.2840    0.3420 C.3    17  LEU17       0.0001
     17  CD2      -22.4700    1.9200    2.4250 C.3    17  LEU17       0.0001
     18  N        -25.7000    2.2760   -4.7670 N.3    19  VAL19      -0.1245
     19  CA       -24.3220    2.0680   -4.3180 C.3    19  VAL19       0.1561
     20  C        -24.3360    1.1150   -3.1100 C.2    19  VAL19       0.2260
     21  O        -25.1370    1.2700   -2.2040 O.2    19  VAL19      -0.2867
     22  CB       -23.6340    3.4000   -3.9790 C.3    19  VAL19       0.0252
     23  CG1      -22.1960    3.1380   -3.5500 C.3    19  VAL19       0.0019
     24  CG2      -23.6950    4.3190   -5.1980 C.3    19  VAL19       0.0019
     25  N        -16.5300   -0.1540   -2.5930 N.3    31  ALA31      -0.1245
     26  CA       -17.8630    0.3660   -2.9100 C.3    31  ALA31       0.1562
     27  C        -18.1890   -0.0600   -4.3220 C.2    31  ALA31       0.2260
     28  O        -17.3600   -0.0850   -5.2160 O.2    31  ALA31      -0.2867
     29  CB       -17.8870    1.8990   -2.7820 C.3    31  ALA31       0.0290
     30  N        -20.8880    0.6570   -7.3410 N.3    33  LYS33      -0.1245
     31  CA       -21.9130    1.5090   -7.9660 C.3    33  LYS33       0.1561
     32  C        -22.5530    0.7890   -9.1160 C.2    33  LYS33       0.2260
     33  O        -21.8560    0.3810  -10.0280 O.2    33  LYS33      -0.2867
     34  CB       -21.2950    2.8150   -8.4930 C.3    33  LYS33       0.0271
     35  CG       -20.7530    3.7200   -7.3770 C.3    33  LYS33       0.0035
     36  CD       -20.0830    4.9750   -7.9770 C.3    33  LYS33       0.0206
     37  CE       -19.1380    5.4090   -6.8850 C.3    33  LYS33       0.1093
     38  NZ       -18.3950    6.6440   -7.1770 N.3    33  LYS33      -0.1314
     39  N        -10.4300    9.2970   -4.5950 N.3    61  VAL61      -0.1245
     40  CA       -11.0440    7.9800   -4.4230 C.3    61  VAL61       0.1561
     41  C        -10.5540    7.0430   -5.5740 C.2    61  VAL61       0.2260
     42  O        -10.6130    7.3840   -6.7640 O.2    61  VAL61      -0.2867
     43  CB       -12.5530    8.0770   -4.4040 C.3    61  VAL61       0.0252
     44  CG1      -13.2700    6.6890   -4.4200 C.3    61  VAL61       0.0019
     45  CG2      -13.0540    8.9160   -3.2430 C.3    61  VAL61       0.0019
     46  N        -14.9520    0.9240   -6.5440 N.3    77  THR77      -0.1203
     47  CA       -14.0390    1.9490   -6.0240 C.3    77  THR77       0.1994
     48  C        -13.6890    1.7410   -4.5690 C.2    77  THR77       0.2618
     49  O        -14.2300    0.8710   -3.8430 O.2    77  THR77      -0.2717
     50  CB       -14.6230    3.3590   -6.1460 C.3    77  THR77       0.1784
     51  OG1      -15.7520    3.4490   -5.2590 O.3    77  THR77      -0.2211
     52  CG2      -15.0900    3.6520   -7.4960 C.3    77  THR77       0.0376
     53  N        -12.7320    2.5410   -4.0990 N.am   78  GLU78      -0.1965
     54  CA       -12.3560    2.6180   -2.7080 C.3    78  GLU78       0.1733
     55  C        -13.5500    2.9000   -1.8330 C.2    78  GLU78       0.2616
     56  O        -14.3490    3.7900   -2.1430 O.2    78  GLU78      -0.2715
     57  CB       -11.2890    3.7330   -2.5960 C.3    78  GLU78       0.0429
     58  CG       -10.8090    4.0730   -1.2380 C.3    78  GLU78       0.1163
     59  CD        -9.6950    5.1120   -1.2700 C.2    78  GLU78       0.3649
     60  OE1       -9.3770    5.6200   -2.3520 O.co2  78  GLU78      -0.2457
     61  OE2       -9.1700    5.3530   -0.1540 O.co2  78  GLU78      -0.2457
     62  N        -13.6660    2.1740   -0.7280 N.am   79  TYR79      -0.1960
     63  CA       -14.7430    2.3570    0.2080 C.3    79  TYR79       0.1771
     64  C        -14.4640    3.5210    1.1790 C.2    79  TYR79       0.2619
     65  O        -13.4060    3.5870    1.7640 O.2    79  TYR79      -0.2715
     66  CB       -14.9700    1.0750    0.9800 C.3    79  TYR79       0.0574
     67  CG       -16.0000    1.1250    2.0740 C.ar   79  TYR79      -0.0198
     68  CD1      -17.2920    1.5550    1.8160 C.ar   79  TYR79      -0.0009
     69  CD2      -15.6770    0.7580    3.3440 C.ar   79  TYR79      -0.0009
     70  CE1      -18.2630    1.6230    2.8060 C.ar   79  TYR79       0.0417
     71  CE2      -16.6330    0.7900    4.3460 C.ar   79  TYR79       0.0417
     72  CZ       -17.8810    1.2450    4.0860 C.ar   79  TYR79       0.1957
     73  OH       -18.8510    1.2610    5.0850 O.3    79  TYR79      -0.2866
     74  N        -15.4390    4.4070    1.3210 N.am   80  MET80      -0.1963
     75  CA       -15.3300    5.6280    2.1360 C.3    80  MET80       0.1736
     76  C        -16.4080    5.5980    3.2140 C.2    80  MET80       0.2616
     77  O        -17.5420    5.9720    2.9850 O.2    80  MET80      -0.2715
     78  CB       -15.4940    6.8310    1.2090 C.3    80  MET80       0.0427
     79  CG       -14.3900    6.9060    0.1440 C.3    80  MET80       0.0599
     80  SD       -12.7320    7.2050    0.6770 S.3    80  MET80      -0.1393
     81  CE       -12.8990    8.9100    1.1750 C.3    80  MET80       0.0692
     82  N        -16.0190    5.0870    4.3670 N.am   81  ALA81      -0.1963
     83  CA       -17.0250    4.6240    5.3150 C.3    81  ALA81       0.1728
     84  C        -17.8730    5.7160    5.8910 C.2    81  ALA81       0.2616
     85  O        -18.9470    5.4360    6.4140 O.2    81  ALA81      -0.2715
     86  CB       -16.3580    3.8960    6.4600 C.3    81  ALA81       0.0334
     87  N        -17.4050    6.9850    5.8830 N.am   82  ASN82      -0.1958
     88  CA       -18.1930    8.0590    6.4800 C.3    82  ASN82       0.1819
     89  C        -19.0130    8.8130    5.4710 C.2    82  ASN82       0.2622
     90  O        -19.7030    9.7780    5.8460 O.2    82  ASN82      -0.2715
     91  CB       -17.3360    8.9610    7.3450 C.3    82  ASN82       0.1195
     92  CG       -17.0780    8.3560    8.6860 C.2    82  ASN82       0.2630
     93  OD1      -18.0410    7.8320    9.2640 O.2    82  ASN82      -0.2716
     94  ND2      -15.9000    8.4390    9.2080 N.am   82  ASN82      -0.0877
     95  N        -19.0380    8.3800    4.2400 N.am   83  GLY83      -0.1940
     96  CA       -20.0280    8.8730    3.2950 C.3    83  GLY83       0.2014
     97  C        -19.7640   10.2340    2.6720 C.2    83  GLY83       0.2639
     98  O        -18.6260   10.7080    2.6700 O.2    83  GLY83      -0.2714
     99  N        -20.7630   10.8580    2.1190 N.am   84  CYS84      -0.1967
    100  CA       -20.5230   12.1110    1.3970 C.3    84  CYS84       0.1712
    101  C        -20.2280   13.2610    2.3530 C.2    84  CYS84       0.2296
    102  O        -20.7670   13.4210    3.4430 O.2    84  CYS84      -0.2864
    103  CB       -21.6210   12.5040    0.4180 C.3    84  CYS84       0.0983
    104  SG       -23.0970   13.0730    1.1790 S.3    84  CYS84      -0.0798
    105  N        -20.9210   16.4110    2.1270 N.3    86  LEU86      -0.1231
    106  CA       -22.0350   17.3340    2.3870 C.3    86  LEU86       0.1693
    107  C        -22.8430   16.9320    3.6170 C.2    86  LEU86       0.2592
    108  O        -23.1040   17.7380    4.4970 O.2    86  LEU86      -0.2718
    109  CB       -22.9440   17.4230    1.1620 C.3    86  LEU86       0.0284
    110  CG       -24.0850   18.4290    1.2920 C.3    86  LEU86       0.0019
    111  CD1      -23.5960   19.8430    1.5740 C.3    86  LEU86       0.0001
    112  CD2      -24.9260   18.3540    0.0050 C.3    86  LEU86       0.0001
    113  N        -23.1710   15.6590    3.6860 N.am   87  ASN87      -0.1974
    114  CA       -23.9260   15.1600    4.8100 C.3    87  ASN87       0.1688
    115  C        -23.1320   15.1770    6.0910 C.2    87  ASN87       0.2292
    116  O        -23.6240   15.4830    7.1920 O.2    87  ASN87      -0.2864
    117  CB       -24.4350   13.7400    4.5330 C.3    87  ASN87       0.1181
    118  CG       -25.4640   13.6770    3.4410 C.2    87  ASN87       0.2629
    119  OD1      -26.0840   14.6620    3.0760 O.2    87  ASN87      -0.2716
    120  ND2      -25.6320   12.4690    2.9040 N.am   87  ASN87      -0.0877
    121  N        -23.2490   17.1490   15.4820 N.3    93  ARG93      -0.1245
    122  CA       -22.5320   16.4150   16.5580 C.3    93  ARG93       0.1563
    123  C        -21.0040   16.5090   16.4550 C.2    93  ARG93       0.2260
    124  O        -20.3020   16.4530   17.4630 O.2    93  ARG93      -0.2867
    125  CB       -22.8860   14.9340   16.5940 C.3    93  ARG93       0.0307
    126  CG       -22.5780   14.1300   15.3540 C.3    93  ARG93       0.0489
    127  CD       -23.2080   12.7540   15.4280 C.3    93  ARG93       0.2205
    128  NE       -23.1160   12.0690   14.1590 N.pl3  93  ARG93      -0.0865
    129  CZ       -22.0830   11.3720   13.7670 C.cat  93  ARG93       0.5346
    130  NH1      -21.0410   11.1550   14.5440 N.pl3  93  ARG93       0.1354
    131  NH2      -22.0640   10.7710   12.5660 N.pl3  93  ARG93       0.1354
    132  N        -21.0090   17.5320   -2.3670 N.3   128  ARG128     -0.1245
    133  CA       -21.8140   16.3260   -2.6050 C.3   128  ARG128      0.1563
    134  C        -20.9900   15.2560   -3.3540 C.2   128  ARG128      0.2260
    135  O        -21.4030   14.0820   -3.2440 O.2   128  ARG128     -0.2867
    136  CB       -23.0790   16.6410   -3.3860 C.3   128  ARG128      0.0307
    137  CG       -22.8000   17.1700   -4.7620 C.3   128  ARG128      0.0489
    138  CD       -24.0390   17.5760   -5.5950 C.3   128  ARG128      0.2205
    139  NE       -23.6010   18.2660   -6.8430 N.pl3 128  ARG128     -0.0865
    140  CZ       -23.3480   19.5750   -6.9640 C.cat 128  ARG128      0.5346
    141  NH1      -23.5770   20.3900   -5.9630 N.pl3 128  ARG128      0.1354
    142  NH2      -22.9040   20.0930   -8.0810 N.pl3 128  ARG128      0.1354
    143  N        -16.0100   12.5190   -0.5550 N.3   131  LEU131     -0.1245
    144  CA       -16.3590   11.4500    0.3720 C.3   131  LEU131      0.1561
    145  C        -15.4250   11.5040    1.5390 C.2   131  LEU131      0.2260
    146  O        -14.3160   12.0530    1.4420 O.2   131  LEU131     -0.2867
    147  CB       -16.2950   10.0990   -0.3510 C.3   131  LEU131      0.0270
    148  CG       -17.3410    9.8560   -1.4240 C.3   131  LEU131      0.0019
    149  CD1      -17.0750    8.6790   -2.2950 C.3   131  LEU131      0.0001
    150  CD2      -18.7050    9.5630   -0.7460 C.3   131  LEU131      0.0001
    151  N        -15.9160   10.8680   -8.2730 N.3   142  ASP142     -0.1239
    152  CA       -16.7590   11.1040   -9.4600 C.3   142  ASP142      0.1674
    153  C        -16.1100   12.0860  -10.4230 C.2   142  ASP142      0.2266
    154  O        -16.7960   12.7650  -11.2100 O.2   142  ASP142     -0.2867
    155  CB       -18.2060   11.5290   -9.0960 C.3   142  ASP142      0.1410
    156  CG       -19.0300   10.3910   -8.5510 C.2   142  ASP142      0.3668
    157  OD1      -18.5870    9.2310   -8.5430 O.co2 142  ASP142     -0.2456
    158  OD2      -20.1680   10.7090   -8.1580 O.co2 142  ASP142     -0.2456
@<TRIPOS>BOND
     1   154   153    2
     2   153   152    1
     3    33    32    2
     4   152   155    1
     5   152   151    1
     6    32    31    1
     7   155   156    1
     8   156   157   ar
     9   156   158   ar
    10    34    31    1
    11    34    35    1
    12   142   140    1
    13    36    35    1
    14    36    37    1
    15    31    30    1
    16    52    50    1
    17    38    37    1
    18   140   139    2
    19   140   141    1
    20   139   138    1
    21    42    41    2
    22    46    47    1
    23    50    47    1
    24    50    51    1
    25    47    48    1
    26   138   137    1
    27    41    40    1
    28    28    27    2
    29    24    22    1
    30    18    19    1
    31   137   136    1
    32    39    40    1
    33    48    53   am
    34    48    49    2
    35    40    43    1
    36    44    43    1
    37    43    45    1
    38    27    26    1
    39    19    22    1
    40    19    20    1
    41    53    54    1
    42    22    23    1
    43   136   133    1
    44   134   135    2
    45   134   133    1
    46    20    21    2
    47    26    29    1
    48    26    25    1
    49    54    57    1
    50    54    55    1
    51   133   132    1
    52    57    58    1
    53    60    59   ar
    54   149   148    1
    55    56    55    2
    56    55    62   am
    57   148   150    1
    58   148   147    1
    59    59    58    1
    60    59    61   ar
    61    62    63    1
    62   143   144    1
    63   147   144    1
    64   112   110    1
    65    79    80    1
    66    79    78    1
    67    63    66    1
    68    63    64    1
    69    12    11    1
    70    12    13    2
    71    16    15    1
    72   144   145    1
    73    14    11    1
    74    14    15    1
    75   103   104    1
    76   103   100    1
    77    10    11    1
    78    80    81    1
    79    15    17    1
    80     4     3    2
    81    66    67    1
    82   109   110    1
    83   109   106    1
    84    64    74   am
    85    64    65    2
    86    78    75    1
    87   110   111    1
    88    74    75    1
    89   100    99    1
    90   100   101    1
    91   146   145    2
    92     3     2    1
    93    68    67   ar
    94    68    70   ar
    95    67    69   ar
    96    99    97   am
    97   105   106    1
    98    75    76    1
    99   101   102    2
   100     1     2    1
   101   106   107    1
   102    98    97    2
   103    97    96    1
   104     2     5    1
   105    70    72   ar
   106   120   118   am
   107    77    76    2
   108   119   118    2
   109    76    82   am
   110    96    95    1
   111    69    71   ar
   112   118   117    1
   113   107   113   am
   114   107   108    2
   115   113   114    1
   116    72    71   ar
   117    72    73    1
   118     5     6    1
   119    95    89   am
   120     6     7    1
   121    82    83    1
   122   117   114    1
   123   114   115    1
   124    83    84    1
   125    83    86    1
   126    89    90    2
   127    89    88    1
   128     7     8    1
   129     9     8    1
   130    87    84   am
   131    87    88    1
   132    84    85    2
   133   115   116    2
   134    88    91    1
   135    91    92    1
   136    92    94   am
   137    92    93    2
   138   131   129    1
   139   129   128    2
   140   129   130    1
   141   128   127    1
   142   126   127    1
   143   126   125    1
   144   121   122    1
   145   123   122    1
   146   123   124    2
   147   122   125    1
