@<TRIPOS>MOLECULE
tmp/6diaA00.pdb
 144 134 0 0 0
SMALL
GASTEIGER

@<TRIPOS>ATOM
      1  N         16.4820    3.8260   15.8160 N.3   140  ARG140     -0.1245
      2  CA        15.5420    3.7630   14.7100 C.3   140  ARG140      0.1563
      3  C         16.2970    3.9290   13.3880 C.2   140  ARG140      0.2260
      4  O         17.4930    4.2190   13.3580 O.2   140  ARG140     -0.2867
      5  CB        14.4260    4.7990   14.8810 C.3   140  ARG140      0.0307
      6  CG        13.5220    4.4860   16.0900 C.3   140  ARG140      0.0489
      7  CD        12.1980    5.2570   16.0980 C.3   140  ARG140      0.2205
      8  NE        11.3250    4.9340   14.9700 N.pl3 140  ARG140     -0.0865
      9  CZ        10.5490    3.8540   14.8860 C.cat 140  ARG140      0.5346
     10  NH1       10.5350    2.9550   15.8630 N.pl3 140  ARG140      0.1354
     11  NH2        9.7850    3.6660   13.8160 N.pl3 140  ARG140      0.1354
     12  N          5.3680   -3.0200    6.5470 N.3   170  GLY170     -0.1210
     13  CA         5.3970   -2.2720    7.7890 C.3   170  GLY170      0.1956
     14  C          5.3700   -0.7600    7.6330 C.2   170  GLY170      0.2612
     15  O          4.9250   -0.2330    6.6070 O.2   170  GLY170     -0.2717
     16  N          5.8570   -0.0640    8.6660 N.am  171  SER171     -0.1952
     17  CA         5.7870    1.3940    8.7330 C.3   171  SER171      0.1924
     18  C          6.4230    2.0630    7.5200 C.2   171  SER171      0.2314
     19  O          6.0380    3.1790    7.1590 O.2   171  SER171     -0.2863
     20  CB         6.4750    1.8860   10.0130 C.3   171  SER171      0.2116
     21  OG         7.8770    1.6470    9.9520 O.3   171  SER171     -0.2180
     22  N          3.9460    2.3190    4.6420 N.3   174  ARG174     -0.1245
     23  CA         3.0420    3.4100    4.9980 C.3   174  ARG174      0.1563
     24  C          3.7050    4.7830    4.8950 C.2   174  ARG174      0.2260
     25  O          3.0360    5.7870    5.1540 O.2   174  ARG174     -0.2867
     26  CB         2.4950    3.2060    6.4170 C.3   174  ARG174      0.0307
     27  CG         1.8700    1.8270    6.6560 C.3   174  ARG174      0.0489
     28  CD         0.8500    1.8290    7.8010 C.3   174  ARG174      0.2205
     29  NE         1.4010    2.3320    9.0570 N.pl3 174  ARG174     -0.0865
     30  CZ         2.1630    1.6240    9.8880 C.cat 174  ARG174      0.5346
     31  NH1        2.4830    0.3640    9.6040 N.pl3 174  ARG174      0.1354
     32  NH2        2.6080    2.1780   11.0120 N.pl3 174  ARG174      0.1354
     33  N         11.7900    3.8030   10.5990 N.3   179  SER179     -0.1202
     34  CA        11.3210    2.4540   10.8900 C.3   179  SER179      0.2020
     35  C         12.1720    1.8330   11.9950 C.2   179  SER179      0.2619
     36  O         13.3160    2.2370   12.2320 O.2   179  SER179     -0.2717
     37  CB        11.3640    1.5580    9.6430 C.3   179  SER179      0.2103
     38  OG        10.4960    2.0420    8.6380 O.3   179  SER179     -0.2182
     39  N         11.6020    0.8300   12.6680 N.am  180  GLY180     -0.1942
     40  CA        12.3360    0.1230   13.7040 C.3   180  GLY180      0.2014
     41  C         13.1660   -1.0290   13.1660 C.2   180  GLY180      0.2638
     42  O         14.1580   -1.4260   13.7820 O.2   180  GLY180     -0.2714
     43  N         12.7600   -1.5780   12.0220 N.am  181  ASP181     -0.1971
     44  CA        13.3930   -2.7450   11.4230 C.3   181  ASP181      0.1709
     45  C         12.9330   -2.8040    9.9740 C.2   181  ASP181      0.2293
     46  O         12.1740   -1.9440    9.5190 O.2   181  ASP181     -0.2864
     47  CB        13.0560   -4.0300   12.2010 C.3   181  ASP181      0.1436
     48  CG        11.5560   -4.3100   12.2870 C.2   181  ASP181      0.3671
     49  OD1       10.7540   -3.5760   11.6790 O.co2 181  ASP181     -0.2456
     50  OD2       11.1780   -5.2920   12.9680 O.co2 181  ASP181     -0.2456
     51  N         10.9340   -5.1920    7.1720 N.3   183  ASP183     -0.1239
     52  CA        10.0180   -6.3220    6.9960 C.3   183  ASP183      0.1674
     53  C          9.8660   -6.6310    5.5100 C.2   183  ASP183      0.2266
     54  O          9.2240   -5.8710    4.7770 O.2   183  ASP183     -0.2867
     55  CB         8.6280   -6.0280    7.5720 C.3   183  ASP183      0.1410
     56  CG         8.6650   -5.3150    8.9000 C.2   183  ASP183      0.3668
     57  OD1        9.6220   -5.5200    9.6750 O.co2 183  ASP183     -0.2456
     58  OD2        7.7060   -4.5570    9.1830 O.co2 183  ASP183     -0.2456
     59  N         10.5450  -18.5220    7.0520 N.3   223  LYS223     -0.1245
     60  CA        10.8040  -17.2760    7.7640 C.3   223  LYS223      0.1561
     61  C         12.2730  -17.1590    8.1340 C.2   223  LYS223      0.2260
     62  O         12.8450  -18.0780    8.7300 O.2   223  LYS223     -0.2867
     63  CB         9.9390  -17.1600    9.0230 C.3   223  LYS223      0.0271
     64  CG        10.1920  -15.8620    9.7630 C.3   223  LYS223      0.0035
     65  CD         9.1220  -15.5240   10.7840 C.3   223  LYS223      0.0206
     66  CE         9.2230  -14.0360   11.1250 C.3   223  LYS223      0.1093
     67  NZ         8.1810  -13.5350   12.0490 N.3   223  LYS223     -0.1314
     68  N         13.6410   -9.0110    8.7910 N.3   245  ASP245     -0.1239
     69  CA        12.8890  -10.2480    8.6550 C.3   245  ASP245      0.1674
     70  C         12.5440  -10.4510    7.1870 C.2   245  ASP245      0.2266
     71  O         12.1980   -9.4930    6.4900 O.2   245  ASP245     -0.2867
     72  CB        11.5900  -10.2160    9.4760 C.3   245  ASP245      0.1410
     73  CG        11.8360  -10.1820   10.9860 C.2   245  ASP245      0.3668
     74  OD1       12.9420  -10.5610   11.4310 O.co2 245  ASP245     -0.2456
     75  OD2       10.8960   -9.8010   11.7360 O.co2 245  ASP245     -0.2456
     76  N         10.0790  -13.1580    4.9670 N.3   247  ARG247     -0.1245
     77  CA         9.0950  -14.2330    5.0250 C.3   247  ARG247      0.1563
     78  C          8.7020  -14.6100    3.6080 C.2   247  ARG247      0.2260
     79  O          8.3880  -13.7320    2.7940 O.2   247  ARG247     -0.2867
     80  CB         7.8540  -13.8140    5.8220 C.3   247  ARG247      0.0307
     81  CG         7.6410  -12.3350    5.7530 C.3   247  ARG247      0.0489
     82  CD         6.4790  -11.8980    6.6160 C.3   247  ARG247      0.2205
     83  NE         6.2600  -12.8080    7.7260 N.pl3 247  ARG247     -0.0865
     84  CZ         6.3740  -12.4650    9.0010 C.cat 247  ARG247      0.5346
     85  NH1        6.1270  -13.3620    9.9410 N.pl3 247  ARG247      0.1354
     86  NH2        6.7190  -11.2250    9.3310 N.pl3 247  ARG247      0.1354
     87  N         -1.8920   -7.2960    5.1850 N.3   260  TYR260     -0.1227
     88  CA        -1.7650   -7.4740    6.6280 C.3   260  TYR260      0.1736
     89  C         -0.4860   -6.8330    7.1560 C.2   260  TYR260      0.2595
     90  O         -0.5210   -6.0100    8.0800 O.2   260  TYR260     -0.2718
     91  CB        -1.7890   -8.9600    6.9740 C.3   260  TYR260      0.0548
     92  CG        -1.5340   -9.2440    8.4420 C.ar  260  TYR260     -0.0200
     93  CD1       -2.4580   -8.8630    9.4090 C.ar  260  TYR260     -0.0009
     94  CD2       -0.3850   -9.9110    8.8560 C.ar  260  TYR260     -0.0009
     95  CE1       -2.2450   -9.1230   10.7570 C.ar  260  TYR260      0.0417
     96  CE2       -0.1640  -10.1880   10.2090 C.ar  260  TYR260      0.0417
     97  CZ        -1.0980   -9.7890   11.1480 C.ar  260  TYR260      0.1957
     98  OH        -0.8890  -10.0450   12.4810 O.3   260  TYR260     -0.2866
     99  N          0.6510   -7.1830    6.5700 N.am  261  PHE261     -0.1976
    100  CA         1.9140   -6.7610    7.1550 C.3   261  PHE261      0.1639
    101  C          2.2200   -5.2970    6.9200 C.2   261  PHE261      0.2290
    102  O          3.2160   -4.8050    7.4610 O.2   261  PHE261     -0.2864
    103  CB         3.0430   -7.6370    6.6300 C.3   261  PHE261      0.0560
    104  CG         3.0200   -9.0070    7.2070 C.ar  261  PHE261     -0.0200
    105  CD1        3.2590   -9.1940    8.5650 C.ar  261  PHE261     -0.0042
    106  CD2        2.7280  -10.1030    6.4220 C.ar  261  PHE261     -0.0042
    107  CE1        3.2240  -10.4610    9.1220 C.ar  261  PHE261     -0.0003
    108  CE2        2.6850  -11.3760    6.9750 C.ar  261  PHE261     -0.0003
    109  CZ         2.9390  -11.5540    8.3230 C.ar  261  PHE261     -0.0000
    110  N         -0.3450   -2.9790    7.6100 N.3   263  GLY263     -0.1210
    111  CA        -1.0380   -2.3520    8.6990 C.3   263  GLY263      0.1956
    112  C         -1.6080   -1.0100    8.2630 C.2   263  GLY263      0.2613
    113  O         -1.7790   -0.7310    7.0740 O.2   263  GLY263     -0.2717
    114  N         -1.8790   -0.1600    9.2460 N.am  264  SER264     -0.1938
    115  CA        -1.5510   -0.4000   10.6520 C.3   264  SER264      0.2055
    116  C         -2.4960   -1.3850   11.3550 C.2   264  SER264      0.2643
    117  O         -3.4520   -1.8580   10.7400 O.2   264  SER264     -0.2714
    118  CB        -1.5640    0.9300   11.4010 C.3   264  SER264      0.2130
    119  OG        -2.8790    1.4600   11.4340 O.3   264  SER264     -0.2179
    120  N         -2.2090   -1.6970   12.6290 N.am  265  ASP265     -0.1971
    121  CA        -3.1280   -2.5030   13.4350 C.3   265  ASP265      0.1709
    122  C         -4.5380   -1.9240   13.4020 C.2   265  ASP265      0.2293
    123  O         -5.5170   -2.6500   13.2060 O.2   265  ASP265     -0.2864
    124  CB        -2.6470   -2.6030   14.8920 C.3   265  ASP265      0.1436
    125  CG        -1.4680   -3.5690   15.0650 C.2   265  ASP265      0.3671
    126  OD1       -1.1170   -4.2590   14.0850 O.co2 265  ASP265     -0.2456
    127  OD2       -0.8770   -3.6290   16.1700 O.co2 265  ASP265     -0.2456
    128  N         -6.0410   -2.4460    9.7460 N.3   268  ASN268     -0.1240
    129  CA        -6.4650   -3.8270    9.5350 C.3   268  ASN268      0.1653
    130  C         -7.7800   -4.1000   10.2500 C.2   268  ASN268      0.2266
    131  O         -8.6940   -4.7080    9.6820 O.2   268  ASN268     -0.2867
    132  CB        -5.3860   -4.8060   10.0190 C.3   268  ASN268      0.1155
    133  CG        -4.1200   -4.7740    9.1640 C.2   268  ASN268      0.2627
    134  OD1       -4.1320   -4.2940    8.0260 O.2   268  ASN268     -0.2716
    135  ND2       -3.0180   -5.3090    9.7110 N.am  268  ASN268     -0.0877
    136  N         -4.7950  -12.8640    7.4400 N.3   284  GLU284     -0.1245
    137  CA        -3.5090  -12.5450    6.8250 C.3   284  GLU284      0.1567
    138  C         -3.2510  -13.3490    5.5570 C.2   284  GLU284      0.2260
    139  O         -2.3840  -12.9580    4.7700 O.2   284  GLU284     -0.2867
    140  CB        -2.3740  -12.7480    7.8320 C.3   284  GLU284      0.0388
    141  CG        -1.5300  -14.0030    7.6430 C.3   284  GLU284      0.1160
    142  CD        -0.2130  -13.9690    8.4420 C.2   284  GLU284      0.3649
    143  OE1       -0.2450  -13.5950    9.6360 O.co2 284  GLU284     -0.2457
    144  OE2        0.8490  -14.3230    7.8800 O.co2 284  GLU284     -0.2457
@<TRIPOS>BOND
     1    79    78    2
     2    78    77    1
     3    22    23    1
     4   139   138    2
     5    54    53    2
     6    24    23    1
     7    24    25    2
     8    76    77    1
     9    23    26    1
    10    77    80    1
    11    87    88    1
    12    53    52    1
    13   138   137    1
    14    81    80    1
    15    81    82    1
    16    26    27    1
    17   106   108   ar
    18   106   104   ar
    19    71    70    2
    20    12    13    1
    21    99   100    1
    22    99    89   am
    23    15    14    2
    24    82    83    1
    25    88    91    1
    26    88    89    1
    27   103   100    1
    28   103   104    1
    29    27    28    1
    30   137   136    1
    31   137   140    1
    32   101   100    1
    33   101   102    2
    34    91    92    1
    35   108   109   ar
    36    52    51    1
    37    52    55    1
    38    59    60    1
    39   113   112    2
    40    89    90    2
    41    19    18    2
    42    70    69    1
    43   104   105   ar
    44    18    17    1
    45    55    56    1
    46   110   111    1
    47    14    13    1
    48    14    16   am
    49   141   140    1
    50   141   142    1
    51    83    84    2
    52    60    61    1
    53    60    63    1
    54    28    29    1
    55   144   142   ar
    56   134   133    2
    57    61    62    2
    58   112   111    1
    59   112   114   am
    60   109   107   ar
    61    92    94   ar
    62    92    93   ar
    63   142   143   ar
    64   105   107   ar
    65    38    37    1
    66    69    68    1
    67    69    72    1
    68    16    17    1
    69    17    20    1
    70    94    96   ar
    71    56    58   ar
    72    56    57   ar
    73    84    86    1
    74    84    85    1
    75    63    64    1
    76    29    30    2
    77   133   135   am
    78   133   132    1
    79   114   115    1
    80    93    95   ar
    81    72    73    1
    82    46    45    2
    83   129   128    1
    84   129   132    1
    85   129   130    1
    86    31    30    1
    87    37    34    1
    88   131   130    2
    89    64    65    1
    90    30    32    1
    91    21    20    1
    92    45    44    1
    93    96    97   ar
    94    33    34    1
    95   115   116    1
    96   115   118    1
    97   117   116    2
    98    95    97   ar
    99    65    66    1
   100    34    35    1
   101    73    74   ar
   102    73    75   ar
   103    66    67    1
   104    97    98    1
   105   116   120   am
   106   118   119    1
   107    44    43    1
   108    44    47    1
   109    49    48   ar
   110    35    36    2
   111    35    39   am
   112    43    41   am
   113    47    48    1
   114    48    50   ar
   115   120   121    1
   116    39    40    1
   117    41    40    1
   118    41    42    2
   119   123   122    2
   120     4     3    2
   121     3     2    1
   122   122   121    1
   123   121   124    1
   124    11     9    1
   125   126   125   ar
   126     2     5    1
   127     2     1    1
   128     5     6    1
   129     9     8    2
   130     9    10    1
   131   124   125    1
   132     8     7    1
   133   125   127   ar
   134     6     7    1
