@<TRIPOS>MOLECULE
tmp/6dioA00.pdb
 170 160 0 0 0
SMALL
GASTEIGER

@<TRIPOS>ATOM
      1  N        -52.4560   12.2970  -39.1310 N.3   145  ASP145     -0.1239
      2  CA       -52.5760   12.2270  -37.6670 C.3   145  ASP145      0.1674
      3  C        -54.0460   12.3000  -37.2380 C.2   145  ASP145      0.2266
      4  O        -54.5240   13.3100  -36.7030 O.2   145  ASP145     -0.2867
      5  CB       -51.7640   13.3440  -37.0240 C.3   145  ASP145      0.1410
      6  CG       -51.4070   13.0600  -35.5710 C.2   145  ASP145      0.3668
      7  OD1      -52.2030   12.4110  -34.8610 O.co2 145  ASP145     -0.2456
      8  OD2      -50.3300   13.5060  -35.1270 O.co2 145  ASP145     -0.2456
      9  N        -55.6560   11.0520  -34.7810 N.3   147  VAL147     -0.1231
     10  CA       -55.8950   11.2890  -33.3600 C.3   147  VAL147      0.1692
     11  C        -55.8050   12.7770  -33.0420 C.2   147  VAL147      0.2591
     12  O        -56.6780   13.3370  -32.3680 O.2   147  VAL147     -0.2718
     13  CB       -54.9090   10.4650  -32.5190 C.3   147  VAL147      0.0266
     14  CG1      -54.8780   10.9560  -31.0780 C.3   147  VAL147      0.0020
     15  CG2      -55.2910    9.0130  -32.5790 C.3   147  VAL147      0.0020
     16  N        -54.7470   13.4430  -33.5340 N.am  148  LEU148     -0.1980
     17  CA       -54.5710   14.8730  -33.2690 C.3   148  LEU148      0.1596
     18  C        -55.6870   15.7020  -33.8970 C.2   148  LEU148      0.2287
     19  O        -56.2070   16.6270  -33.2660 O.2   148  LEU148     -0.2864
     20  CB       -53.2030   15.3510  -33.7810 C.3   148  LEU148      0.0297
     21  CG       -52.9440   16.8600  -33.5830 C.3   148  LEU148      0.0022
     22  CD1      -52.7050   17.2180  -32.1130 C.3   148  LEU148      0.0001
     23  CD2      -51.8050   17.3550  -34.4490 C.3   148  LEU148      0.0001
     24  N        -58.9030   15.5220  -32.1130 N.3   151  LEU151     -0.1245
     25  CA       -58.8950   16.3540  -30.9190 C.3   151  LEU151      0.1561
     26  C        -59.0210   17.8380  -31.2350 C.2   151  LEU151      0.2260
     27  O        -59.1360   18.6470  -30.3100 O.2   151  LEU151     -0.2867
     28  CB       -57.6210   16.0980  -30.1140 C.3   151  LEU151      0.0270
     29  CG       -57.5440   14.7540  -29.4050 C.3   151  LEU151      0.0019
     30  CD1      -56.1070   14.4670  -29.0230 C.3   151  LEU151      0.0001
     31  CD2      -58.4370   14.7660  -28.1880 C.3   151  LEU151      0.0001
     32  N        -50.7540   21.3900  -31.6300 N.3   180  VAL180     -0.1231
     33  CA       -50.3280   20.0740  -31.1700 C.3   180  VAL180      0.1692
     34  C        -51.0100   19.6940  -29.8640 C.2   180  VAL180      0.2592
     35  O        -50.5730   18.7620  -29.1870 O.2   180  VAL180     -0.2718
     36  CB       -48.7970   20.0050  -31.0450 C.3   180  VAL180      0.0266
     37  CG1      -48.1650   20.3490  -32.3860 C.3   180  VAL180      0.0020
     38  CG2      -48.3050   20.9740  -29.9650 C.3   180  VAL180      0.0020
     39  N        -52.0730   20.4090  -29.4920 N.am  181  ARG181     -0.1966
     40  CA       -52.8920   20.0960  -28.3330 C.3   181  ARG181      0.1729
     41  C        -52.0600   19.9060  -27.0690 C.2   181  ARG181      0.2616
     42  O        -51.5010   20.8750  -26.5450 O.2   181  ARG181     -0.2715
     43  CB       -53.7570   18.8690  -28.6380 C.3   181  ARG181      0.0348
     44  CG       -54.8030   19.1850  -29.7050 C.3   181  ARG181      0.0492
     45  CD       -55.9420   20.0600  -29.1670 C.3   181  ARG181      0.2205
     46  NE       -55.7130   21.4990  -29.2920 N.pl3 181  ARG181     -0.0865
     47  CZ       -56.4980   22.4310  -28.7440 C.cat 181  ARG181      0.5346
     48  NH1      -56.2340   23.7230  -28.8970 N.pl3 181  ARG181      0.1354
     49  NH2      -57.5530   22.0710  -28.0280 N.pl3 181  ARG181      0.1354
     50  N        -51.9800   18.6760  -26.5630 N.am  182  ASP182     -0.1957
     51  CA       -51.3510   18.4070  -25.2790 C.3   182  ASP182      0.1840
     52  C        -49.9760   17.7800  -25.4180 C.2   182  ASP182      0.2622
     53  O        -49.3890   17.3630  -24.4110 O.2   182  ASP182     -0.2715
     54  CB       -52.2390   17.4940  -24.4370 C.3   182  ASP182      0.1450
     55  CG       -53.5580   18.1350  -24.0940 C.2   182  ASP182      0.3671
     56  OD1      -53.5460   19.2620  -23.5410 O.co2 182  ASP182     -0.2456
     57  OD2      -54.6070   17.5270  -24.4180 O.co2 182  ASP182     -0.2456
     58  N        -49.4580   17.6840  -26.6290 N.am  183  ALA183     -0.1963
     59  CA       -48.1120   17.1820  -26.8290 C.3   183  ALA183      0.1728
     60  C        -47.1160   18.3420  -26.8930 C.2   183  ALA183      0.2616
     61  O        -47.4780   19.4970  -27.1560 O.2   183  ALA183     -0.2715
     62  CB       -48.0400   16.3430  -28.1040 C.3   183  ALA183      0.0334
     63  N        -45.8490   18.0230  -26.6100 N.am  184  MET184     -0.1963
     64  CA       -44.7860   18.9810  -26.8970 C.3   184  MET184      0.1736
     65  C        -44.7430   19.2950  -28.3900 C.2   184  MET184      0.2617
     66  O        -44.6390   20.4610  -28.7850 O.2   184  MET184     -0.2715
     67  CB       -43.4420   18.4390  -26.4050 C.3   184  MET184      0.0427
     68  CG       -42.2670   19.3720  -26.6530 C.3   184  MET184      0.0599
     69  SD       -41.2450   18.7670  -28.0000 S.3   184  MET184     -0.1393
     70  CE       -40.0800   20.1170  -28.2080 C.3   184  MET184      0.0692
     71  N        -44.8140   18.2620  -29.2300 N.am  185  GLY185     -0.1940
     72  CA       -45.1630   18.4110  -30.6270 C.3   185  GLY185      0.2014
     73  C        -44.0470   18.1550  -31.6150 C.2   185  GLY185      0.2639
     74  O        -44.3040   18.1900  -32.8290 O.2   185  GLY185     -0.2714
     75  N        -42.8170   17.9230  -31.1560 N.am  186  ALA186     -0.1963
     76  CA       -41.6950   17.8230  -32.0870 C.3   186  ALA186      0.1728
     77  C        -41.9340   16.7370  -33.1420 C.2   186  ALA186      0.2616
     78  O        -41.9820   17.0230  -34.3460 O.2   186  ALA186     -0.2715
     79  CB       -40.4040   17.5590  -31.3120 C.3   186  ALA186      0.0334
     80  N        -42.0770   15.4770  -32.7030 N.am  187  ASN187     -0.1958
     81  CA       -42.2710   14.3770  -33.6500 C.3   187  ASN187      0.1819
     82  C        -43.5330   14.5800  -34.4660 C.2   187  ASN187      0.2621
     83  O        -43.5430   14.3210  -35.6770 O.2   187  ASN187     -0.2715
     84  CB       -42.3380   13.0360  -32.9220 C.3   187  ASN187      0.1195
     85  CG       -40.9880   12.5850  -32.4110 C.2   187  ASN187      0.2630
     86  OD1      -39.9580   12.7830  -33.0670 O.2   187  ASN187     -0.2716
     87  ND2      -40.9800   11.9850  -31.2180 N.am  187  ASN187     -0.0877
     88  N        -44.6010   15.0480  -33.8100 N.am  188  THR188     -0.1951
     89  CA       -45.8870   15.3140  -34.4550 C.3   188  THR188      0.1897
     90  C        -45.7220   16.2130  -35.6710 C.2   188  THR188      0.2313
     91  O        -46.2920   15.9760  -36.7450 O.2   188  THR188     -0.2863
     92  CB       -46.8100   15.9920  -33.4400 C.3   188  THR188      0.1794
     93  OG1      -46.8480   15.2200  -32.2310 O.3   188  THR188     -0.2208
     94  CG2      -48.1810   16.1600  -34.0040 C.3   188  THR188      0.0378
     95  N        -42.7030   17.2150  -37.1450 N.3   190  ASN190     -0.1240
     96  CA       -41.7080   16.7140  -38.0900 C.3   190  ASN190      0.1653
     97  C        -42.3570   15.8510  -39.1670 C.2   190  ASN190      0.2266
     98  O        -42.0220   15.9630  -40.3570 O.2   190  ASN190     -0.2867
     99  CB       -40.6320   15.9150  -37.3440 C.3   190  ASN190      0.1155
    100  CG       -39.6960   16.8010  -36.5480 C.2   190  ASN190      0.2627
    101  OD1      -39.7150   18.0140  -36.6920 O.2   190  ASN190     -0.2716
    102  ND2      -38.8590   16.1950  -35.7160 N.am  190  ASN190     -0.0877
    103  N        -38.1770   19.9660  -40.2030 N.3   212  ILE212     -0.1231
    104  CA       -37.8290   19.9610  -38.7830 C.3   212  ILE212      0.1692
    105  C        -38.5790   21.0730  -38.0660 C.2   212  ILE212      0.2591
    106  O        -38.7480   22.1690  -38.6040 O.2   212  ILE212     -0.2718
    107  CB       -36.2930   20.0880  -38.6020 C.3   212  ILE212      0.0266
    108  CG1      -35.8770   19.7450  -37.1630 C.3   212  ILE212      0.0019
    109  CG2      -35.8150   21.4760  -39.0360 C.3   212  ILE212      0.0020
    110  CD1      -36.2130   18.3160  -36.7230 C.3   212  ILE212      0.0001
    111  N        -39.0220   20.7830  -36.8360 N.am  213  LEU213     -0.1980
    112  CA       -39.6480   21.8030  -36.0090 C.3   213  LEU213      0.1596
    113  C        -38.6510   22.9070  -35.7100 C.2   213  LEU213      0.2287
    114  O        -37.4380   22.7280  -35.8270 O.2   213  LEU213     -0.2864
    115  CB       -40.1410   21.2310  -34.6830 C.3   213  LEU213      0.0297
    116  CG       -39.1120   21.0800  -33.5540 C.3   213  LEU213      0.0022
    117  CD1      -39.7710   21.1130  -32.2050 C.3   213  LEU213      0.0001
    118  CD2      -38.3020   19.8040  -33.7060 C.3   213  LEU213      0.0001
    119  N        -37.4210   25.0240  -32.4980 N.3   215  ASN215     -0.1240
    120  CA       -37.4640   25.1400  -31.0500 C.3   215  ASN215      0.1653
    121  C        -37.7030   26.5660  -30.5870 C.2   215  ASN215      0.2266
    122  O        -37.9660   26.7710  -29.4010 O.2   215  ASN215     -0.2867
    123  CB       -36.1690   24.6150  -30.4330 C.3   215  ASN215      0.1155
    124  CG       -36.1680   23.1100  -30.2960 C.2   215  ASN215      0.2627
    125  OD1      -35.4120   22.4230  -30.9750 O.2   215  ASN215     -0.2716
    126  ND2      -37.0260   22.5850  -29.4090 N.am  215  ASN215     -0.0877
    127  N        -38.8690   17.1360  -22.3020 N.3   282  ASP282     -0.1239
    128  CA       -37.5580   17.4860  -22.8640 C.3   282  ASP282      0.1674
    129  C        -37.1160   18.8500  -22.3420 C.2   282  ASP282      0.2266
    130  O        -37.6720   19.8820  -22.7360 O.2   282  ASP282     -0.2867
    131  CB       -37.6680   17.4960  -24.3860 C.3   282  ASP282      0.1410
    132  CG       -36.3610   17.8230  -25.1020 C.2   282  ASP282      0.3668
    133  OD1      -35.4350   18.4470  -24.5220 O.co2 282  ASP282     -0.2456
    134  OD2      -36.2900   17.4490  -26.2940 O.co2 282  ASP282     -0.2456
    135  N        -34.0100   20.2070  -22.7270 N.3   284  ARG284     -0.1231
    136  CA       -33.2100   20.9350  -23.7080 C.3   284  ARG284      0.1694
    137  C        -34.1000   21.7890  -24.5970 C.2   284  ARG284      0.2591
    138  O        -33.7340   22.9170  -24.9520 O.2   284  ARG284     -0.2718
    139  CB       -32.3790   19.9720  -24.5610 C.3   284  ARG284      0.0321
    140  CG       -31.1450   19.4220  -23.8740 C.3   284  ARG284      0.0489
    141  CD       -31.4910   18.1430  -23.1280 C.3   284  ARG284      0.2205
    142  NE       -32.2450   17.2290  -23.9820 N.pl3 284  ARG284     -0.0865
    143  CZ       -33.1420   16.3520  -23.5240 C.cat 284  ARG284      0.5346
    144  NH1      -33.7910   15.5430  -24.3640 N.pl3 284  ARG284      0.1354
    145  NH2      -33.3720   16.2690  -22.2210 N.pl3 284  ARG284      0.1354
    146  N        -35.2930   21.2800  -24.9370 N.am  285  ALA285     -0.1980
    147  CA       -36.1990   22.0200  -25.8150 C.3   285  ALA285      0.1597
    148  C        -36.7370   23.2760  -25.1470 C.2   285  ALA285      0.2287
    149  O        -36.8920   24.3170  -25.8010 O.2   285  ALA285     -0.2864
    150  CB       -37.3520   21.1260  -26.2480 C.3   285  ALA285      0.0319
    151  N        -48.8210   14.4600  -22.8880 N.3   327  VAL327     -0.1231
    152  CA       -48.6910   13.1940  -23.5980 C.3   327  VAL327      0.1692
    153  C        -47.4720   13.2910  -24.5060 C.2   327  VAL327      0.2593
    154  O        -46.9550   14.3780  -24.7660 O.2   327  VAL327     -0.2718
    155  CB       -49.9510   12.8270  -24.4200 C.3   327  VAL327      0.0266
    156  CG1      -51.1350   12.5880  -23.5000 C.3   327  VAL327      0.0020
    157  CG2      -50.2810   13.9350  -25.4310 C.3   327  VAL327      0.0020
    158  N        -47.0190   12.1380  -24.9960 N.am  328  GLY328     -0.1942
    159  CA       -45.8960   12.1080  -25.9050 C.3   328  GLY328      0.2014
    160  C        -44.5640   12.0620  -25.1780 C.2   328  GLY328      0.2639
    161  O        -44.4600   12.3410  -23.9830 O.2   328  GLY328     -0.2714
    162  N        -43.5320   11.6720  -25.9280 N.am  329  GLY329     -0.1939
    163  CA       -42.2030   11.5420  -25.3530 C.3   329  GLY329      0.2014
    164  C        -42.2010   10.5910  -24.1760 C.2   329  GLY329      0.2638
    165  O        -42.7740    9.4920  -24.2270 O.2   329  GLY329     -0.2714
    166  N        -41.5620   11.0250  -23.0900 N.am  330  ALA330     -0.1977
    167  CA       -41.5100   10.2690  -21.8450 C.3   330  ALA330      0.1597
    168  C        -42.5980   10.6450  -20.8420 C.2   330  ALA330      0.2287
    169  O        -42.6270   10.0660  -19.7490 O.2   330  ALA330     -0.2864
    170  CB       -40.1360   10.4400  -21.1920 C.3   330  ALA330      0.0319
@<TRIPOS>BOND
     1    98    97    2
     2   103   104    1
     3    97    96    1
     4     1     2    1
     5   109   107    1
     6   104   107    1
     7   104   105    1
     8   106   105    2
     9   107   108    1
    10    96    99    1
    11    96    95    1
    12   105   111   am
    13     2     3    1
    14     2     5    1
    15    99   100    1
    16     3     4    2
    17   108   110    1
    18     5     6    1
    19   111   112    1
    20    91    90    2
    21   101   100    2
    22   100   102   am
    23   112   113    1
    24   112   115    1
    25   114   113    2
    26    83    82    2
    27    90    89    1
    28     6     8   ar
    29     6     7   ar
    30     9    10    1
    31   115   116    1
    32    82    88   am
    33    82    81    1
    34    89    88    1
    35    89    92    1
    36    23    21    1
    37    78    77    2
    38    94    92    1
    39    18    17    1
    40    18    19    2
    41    20    21    1
    42    20    17    1
    43   118   116    1
    44    81    84    1
    45    81    80    1
    46    21    22    1
    47   116   117    1
    48    16    17    1
    49    16    11   am
    50    92    93    1
    51    10    11    1
    52    10    13    1
    53    77    80   am
    54    77    76    1
    55    86    85    2
    56    11    12    2
    57    84    85    1
    58    74    73    2
    59    15    13    1
    60    13    14    1
    61   119   120    1
    62    85    87   am
    63    37    36    1
    64    24    25    1
    65    76    79    1
    66    76    75    1
    67    32    33    1
    68    73    75   am
    69    73    72    1
    70    26    25    1
    71    26    27    2
    72    33    36    1
    73    33    34    1
    74   120   121    1
    75   120   123    1
    76    36    38    1
    77   125   124    2
    78    25    28    1
    79    72    71    1
    80   121   122    2
    81   123   124    1
    82   124   126   am
    83    28    29    1
    84    34    39   am
    85    34    35    2
    86    44    45    1
    87    44    43    1
    88    39    40    1
    89    29    30    1
    90    29    31    1
    91    46    45    1
    92    46    47    2
    93    71    65   am
    94    48    47    1
    95    66    65    2
    96    47    49    1
    97    43    40    1
    98    65    64    1
    99    40    41    1
   100    70    69    1
   101    62    59    1
   102    69    68    1
   103    61    60    2
   104    41    50   am
   105    41    42    2
   106    64    63    1
   107    64    67    1
   108    60    59    1
   109    60    63   am
   110    59    58    1
   111    68    67    1
   112    58    52   am
   113    50    51    1
   114   134   132   ar
   115   150   147    1
   116   162   163    1
   117   162   160   am
   118   159   160    1
   119   159   158    1
   120   147   148    1
   121   147   146    1
   122   149   148    2
   123   157   155    1
   124    52    51    1
   125    52    53    2
   126   163   164    1
   127    51    54    1
   128   160   161    2
   129   132   133   ar
   130   132   131    1
   131   158   153   am
   132   138   137    2
   133   146   137   am
   134   154   153    2
   135   137   136    1
   136   139   140    1
   137   139   136    1
   138   153   152    1
   139    54    55    1
   140   155   152    1
   141   155   156    1
   142    57    55   ar
   143   131   128    1
   144   144   143    1
   145   165   164    2
   146   164   166   am
   147    55    56   ar
   148   142   143    2
   149   142   141    1
   150   140   141    1
   151   136   135    1
   152   152   151    1
   153   143   145    1
   154   166   167    1
   155   128   129    1
   156   128   127    1
   157   130   129    2
   158   167   170    1
   159   167   168    1
   160   168   169    2
