@<TRIPOS>MOLECULE
tmp/6dioC01.pdb
 103 95 0 0 0
SMALL
GASTEIGER

@<TRIPOS>ATOM
      1  N        -56.0270   21.1310   33.1540 N.3    82  GLU82      -0.1245
      2  CA       -57.2980   20.4430   32.9810 C.3    82  GLU82       0.1567
      3  C        -57.3330   19.6160   31.7030 C.2    82  GLU82       0.2260
      4  O        -56.9300   20.0990   30.6380 O.2    82  GLU82      -0.2867
      5  CB       -58.4430   21.4440   32.9440 C.3    82  GLU82       0.0388
      6  CG       -59.7640   20.8060   32.6540 C.3    82  GLU82       0.1160
      7  CD       -60.9120   21.7800   32.7870 C.2    82  GLU82       0.3649
      8  OE1      -60.6420   22.9990   32.9610 O.co2  82  GLU82      -0.2457
      9  OE2      -62.0720   21.3060   32.7000 O.co2  82  GLU82      -0.2457
     10  N        -59.0090   20.4810   27.4220 N.3    85  VAL85      -0.1245
     11  CA       -59.0310   21.8770   27.0110 C.3    85  VAL85       0.1561
     12  C        -58.1680   22.0900   25.7700 C.2    85  VAL85       0.2260
     13  O        -58.5830   22.7420   24.8040 O.2    85  VAL85      -0.2867
     14  CB       -58.5670   22.7800   28.1720 C.3    85  VAL85       0.0252
     15  CG1      -58.4700   24.2160   27.7070 C.3    85  VAL85       0.0019
     16  CG2      -59.4960   22.6370   29.4060 C.3    85  VAL85       0.0019
     17  N        -75.8610   29.6750   33.7710 N.3   260  ARG260     -0.1245
     18  CA       -75.1930   29.0810   32.6240 C.3   260  ARG260      0.1563
     19  C        -74.0920   29.9910   32.0790 C.2   260  ARG260      0.2260
     20  O        -73.0060   29.5040   31.7230 O.2   260  ARG260     -0.2867
     21  CB       -76.2300   28.7660   31.5370 C.3   260  ARG260      0.0307
     22  CG       -75.6520   28.3370   30.2080 C.3   260  ARG260      0.0489
     23  CD       -74.8580   27.0300   30.3600 C.3   260  ARG260      0.2205
     24  NE       -73.9900   26.7950   29.2080 N.pl3 260  ARG260     -0.0865
     25  CZ       -72.8540   26.1120   29.2610 C.cat 260  ARG260      0.5346
     26  NH1      -72.4450   25.5800   30.4130 N.pl3 260  ARG260      0.1354
     27  NH2      -72.1230   25.9620   28.1630 N.pl3 260  ARG260      0.1354
     28  N        -70.5600   29.4680   33.5950 N.3   263  THR263     -0.1203
     29  CA       -69.9310   28.2550   33.0850 C.3   263  THR263      0.1994
     30  C        -69.5010   28.4360   31.6410 C.2   263  THR263      0.2617
     31  O        -68.3940   28.0310   31.2420 O.2   263  THR263     -0.2717
     32  CB       -70.9330   27.1020   33.1860 C.3   263  THR263      0.1784
     33  OG1      -71.6400   27.1880   34.4330 O.3   263  THR263     -0.2211
     34  CG2      -70.2560   25.7260   33.0140 C.3   263  THR263      0.0376
     35  N        -70.4030   29.0100   30.8420 N.am  264  HIS264     -0.1975
     36  CA       -70.1410   29.3640   29.4530 C.3   264  HIS264      0.1656
     37  C        -68.9070   30.2640   29.3210 C.2   264  HIS264      0.2291
     38  O        -68.0180   29.9950   28.5080 O.2   264  HIS264     -0.2864
     39  CB       -71.4160   30.0250   28.9040 C.3   264  HIS264      0.0771
     40  CG       -71.3120   30.5610   27.5110 C.ar  264  HIS264      0.0820
     41  ND1      -71.9370   29.9630   26.4380 N.ar  264  HIS264     -0.2267
     42  CD2      -70.7240   31.6830   27.0300 C.ar  264  HIS264      0.1154
     43  CE1      -71.7090   30.6780   25.3480 C.ar  264  HIS264      0.1986
     44  NE2      -70.9780   31.7290   25.6820 N.ar  264  HIS264     -0.2212
     45  N        -66.6070   30.6860   31.7140 N.3   266  LYS266     -0.1231
     46  CA       -65.4930   29.8990   32.2330 C.3   266  LYS266      0.1693
     47  C        -64.8530   29.0880   31.1120 C.2   266  LYS266      0.2592
     48  O        -63.6160   29.0360   30.9920 O.2   266  LYS266     -0.2718
     49  CB       -65.9770   28.9880   33.3680 C.3   266  LYS266      0.0285
     50  CG       -64.8910   28.3880   34.2600 C.3   266  LYS266      0.0035
     51  CD       -64.1720   27.2050   33.5920 C.3   266  LYS266      0.0206
     52  CE       -63.5280   26.2840   34.6310 C.3   266  LYS266      0.1093
     53  NZ       -62.8090   25.0970   34.0400 N.3   266  LYS266     -0.1314
     54  N        -65.6860   28.4560   30.2740 N.am  267  GLY267     -0.1957
     55  CA       -65.1740   27.7820   29.0880 C.3   267  GLY267      0.1869
     56  C        -64.3020   28.6760   28.2210 C.2   267  GLY267      0.2309
     57  O        -63.2440   28.2530   27.7500 O.2   267  GLY267     -0.2863
     58  N        -60.9830   29.0230   29.8420 N.3   270  ASN270     -0.1240
     59  CA       -60.1830   27.8080   29.6690 C.3   270  ASN270      0.1653
     60  C        -59.2500   27.9470   28.4690 C.2   270  ASN270      0.2266
     61  O        -58.1280   27.4450   28.4850 O.2   270  ASN270     -0.2867
     62  CB       -61.0830   26.5690   29.4650 C.3   270  ASN270      0.1155
     63  CG       -61.4730   25.8620   30.7590 C.2   270  ASN270      0.2627
     64  OD1      -61.0590   26.2340   31.8650 O.2   270  ASN270     -0.2716
     65  ND2      -62.2950   24.8220   30.6160 N.am  270  ASN270     -0.0877
     66  N        -62.6340   27.7080   21.9920 N.3   363  GLN363     -0.1231
     67  CA       -62.8990   26.8910   23.1740 C.3   363  GLN363      0.1698
     68  C        -64.3980   26.8440   23.4800 C.2   363  GLN363      0.2592
     69  O        -64.9690   25.7650   23.6910 O.2   363  GLN363     -0.2718
     70  CB       -62.1000   27.4200   24.3620 C.3   363  GLN363      0.0381
     71  CG       -62.0760   26.4680   25.5420 C.3   363  GLN363      0.0905
     72  CD       -61.2900   25.1890   25.2750 C.2   363  GLN363      0.2608
     73  OE1      -61.5650   24.1550   25.8650 O.2   363  GLN363     -0.2717
     74  NE2      -60.2970   25.2670   24.4070 N.am  363  GLN363     -0.0878
     75  N        -65.0570   28.0100   23.4600 N.am  364  ASN364     -0.1974
     76  CA       -66.4990   28.0830   23.7000 C.3   364  ASN364      0.1688
     77  C        -67.2710   27.1700   22.7480 C.2   364  ASN364      0.2292
     78  O        -68.1280   26.3820   23.1810 O.2   364  ASN364     -0.2864
     79  CB       -66.9560   29.5360   23.5580 C.3   364  ASN364      0.1181
     80  CG       -68.4340   29.7360   23.8420 C.2   364  ASN364      0.2629
     81  OD1      -69.1320   30.3730   23.0600 O.2   364  ASN364     -0.2716
     82  ND2      -68.9100   29.2280   24.9750 N.am  364  ASN364     -0.0877
     83  N        -66.9750   23.5630   23.6760 N.3   367  ALA367     -0.1231
     84  CA       -67.8760   23.3200   24.7960 C.3   367  ALA367      0.1694
     85  C        -69.3200   23.1660   24.3280 C.2   367  ALA367      0.2591
     86  O        -70.0000   22.1990   24.6850 O.2   367  ALA367     -0.2718
     87  CB       -67.7660   24.4620   25.8100 C.3   367  ALA367      0.0304
     88  N        -69.8190   24.1300   23.5520 N.am  368  LEU368     -0.1980
     89  CA       -71.2390   24.1040   23.1980 C.3   368  LEU368      0.1596
     90  C        -71.5580   22.9300   22.2890 C.2   368  LEU368      0.2287
     91  O        -72.5660   22.2430   22.4810 O.2   368  LEU368     -0.2864
     92  CB       -71.6490   25.4190   22.5310 C.3   368  LEU368      0.0297
     93  CG       -71.4470   26.6900   23.3510 C.3   368  LEU368      0.0022
     94  CD1      -72.2350   27.8270   22.7420 C.3   368  LEU368      0.0001
     95  CD2      -71.8090   26.4830   24.8210 C.3   368  LEU368      0.0001
     96  N        -71.4130   19.5980   24.4820 N.3   371  LEU371     -0.1245
     97  CA       -72.5180   19.4500   25.4190 C.3   371  LEU371      0.1561
     98  C        -73.8420   19.2920   24.6900 C.2   371  LEU371      0.2260
     99  O        -74.7450   18.6180   25.1960 O.2   371  LEU371     -0.2867
    100  CB       -72.5700   20.6480   26.3590 C.3   371  LEU371      0.0270
    101  CG       -71.4340   20.7650   27.3680 C.3   371  LEU371      0.0019
    102  CD1      -71.4960   22.1110   28.0660 C.3   371  LEU371      0.0001
    103  CD2      -71.5030   19.6320   28.3820 C.3   371  LEU371      0.0001
@<TRIPOS>BOND
     1    66    67    1
     2    90    91    2
     3    90    89    1
     4    92    89    1
     5    92    93    1
     6    94    93    1
     7    77    78    2
     8    77    76    1
     9    81    80    2
    10    67    68    1
    11    67    70    1
    12    89    88    1
    13    93    95    1
    14    75    68   am
    15    75    76    1
    16    68    69    2
    17    88    85   am
    18    79    76    1
    19    79    80    1
    20    83    84    1
    21    80    82   am
    22    85    86    2
    23    85    84    1
    24    70    71    1
    25    74    72   am
    26    96    97    1
    27    98    99    2
    28    98    97    1
    29    84    87    1
    30    13    12    2
    31    72    71    1
    32    72    73    2
    33    43    44   ar
    34    43    41   ar
    35    97   100    1
    36    44    42   ar
    37    12    11    1
    38   100   101    1
    39    41    40   ar
    40    11    10    1
    41    11    14    1
    42    42    40   ar
    43   101   102    1
    44   101   103    1
    45    40    39    1
    46    15    14    1
    47    57    56    2
    48    27    25    1
    49    14    16    1
    50    56    55    1
    51    60    61    2
    52    60    59    1
    53    38    37    2
    54    39    36    1
    55    55    54    1
    56    24    25    2
    57    24    23    1
    58    25    26    1
    59    37    36    1
    60    36    35    1
    61    62    59    1
    62    62    63    1
    63    59    58    1
    64    22    23    1
    65    22    21    1
    66    54    47   am
    67    65    63   am
    68     4     3    2
    69    63    64    2
    70    35    30   am
    71    48    47    2
    72    47    46    1
    73    31    30    2
    74    21    18    1
    75    30    29    1
    76     3     2    1
    77    45    46    1
    78    20    19    2
    79    19    18    1
    80    46    49    1
    81    18    17    1
    82     6     7    1
    83     6     5    1
    84     9     7   ar
    85     7     8   ar
    86     5     2    1
    87     2     1    1
    88    34    32    1
    89    29    32    1
    90    29    28    1
    91    32    33    1
    92    49    50    1
    93    51    50    1
    94    51    52    1
    95    53    52    1
