@<TRIPOS>MOLECULE
tmp/6dioC00.pdb
 83 77 0 0 0
SMALL
GASTEIGER

@<TRIPOS>ATOM
      1  N        -53.8790   22.8180   33.6670 N.3    81  GLU81      -0.1231
      2  CA       -53.8960   21.5090   34.3160 C.3    81  GLU81       0.1699
      3  C        -55.0600   20.6170   33.9060 C.2    81  GLU81       0.2592
      4  O        -55.0580   19.4350   34.2610 O.2    81  GLU81      -0.2718
      5  CB       -53.9100   21.6630   35.8470 C.3    81  GLU81       0.0402
      6  CG       -55.2930   21.7550   36.4690 C.3    81  GLU81       0.1161
      7  CD       -56.0160   23.0160   36.0600 C.2    81  GLU81       0.3649
      8  OE1      -55.3310   24.0250   35.8090 O.co2  81  GLU81      -0.2457
      9  OE2      -57.2630   22.9920   35.9700 O.co2  81  GLU81      -0.2457
     10  N        -56.0270   21.1310   33.1540 N.am   82  GLU82      -0.1966
     11  CA       -57.2980   20.4430   32.9810 C.3    82  GLU82       0.1718
     12  C        -57.3330   19.6160   31.7030 C.2    82  GLU82       0.2458
     13  O        -56.9300   20.0990   30.6380 O.2    82  GLU82      -0.2730
     14  CB       -58.4430   21.4440   32.9440 C.3    82  GLU82       0.0428
     15  CG       -59.7640   20.8060   32.6540 C.3    82  GLU82       0.1163
     16  CD       -60.9120   21.7800   32.7870 C.2    82  GLU82       0.3649
     17  OE1      -60.6420   22.9990   32.9610 O.co2  82  GLU82      -0.2457
     18  OE2      -62.0720   21.3060   32.7000 O.co2  82  GLU82      -0.2457
     19  N        -57.8260   18.3780   31.7860 N.am   83  PRO83      -0.2727
     20  CA       -57.9160   17.5460   30.5780 C.3    83  PRO83       0.1402
     21  C        -58.8610   18.1520   29.5520 C.2    83  PRO83       0.2269
     22  O        -59.8420   18.8130   29.8940 O.2    83  PRO83      -0.2865
     23  CB       -58.4520   16.2010   31.0970 C.3    83  PRO83       0.0296
     24  CG       -58.2350   16.2070   32.5740 C.3    83  PRO83       0.0237
     25  CD       -58.2210   17.6570   33.0080 C.3    83  PRO83       0.0939
     26  N        -70.5600   29.4680   33.5950 N.3   263  THR263     -0.1218
     27  CA       -69.9310   28.2550   33.0850 C.3   263  THR263      0.1862
     28  C        -69.5010   28.4360   31.6410 C.2   263  THR263      0.2287
     29  O        -68.3940   28.0310   31.2420 O.2   263  THR263     -0.2866
     30  CB       -70.9330   27.1020   33.1860 C.3   263  THR263      0.1770
     31  OG1      -71.6400   27.1880   34.4330 O.3   263  THR263     -0.2211
     32  CG2      -70.2560   25.7260   33.0140 C.3   263  THR263      0.0375
     33  N        -66.6070   30.6860   31.7140 N.3   266  LYS266     -0.1231
     34  CA       -65.4930   29.8990   32.2330 C.3   266  LYS266      0.1693
     35  C        -64.8530   29.0880   31.1120 C.2   266  LYS266      0.2592
     36  O        -63.6160   29.0360   30.9920 O.2   266  LYS266     -0.2718
     37  CB       -65.9770   28.9880   33.3680 C.3   266  LYS266      0.0285
     38  CG       -64.8910   28.3880   34.2600 C.3   266  LYS266      0.0035
     39  CD       -64.1720   27.2050   33.5920 C.3   266  LYS266      0.0206
     40  CE       -63.5280   26.2840   34.6310 C.3   266  LYS266      0.1093
     41  NZ       -62.8090   25.0970   34.0400 N.3   266  LYS266     -0.1314
     42  N        -65.6860   28.4560   30.2740 N.am  267  GLY267     -0.1957
     43  CA       -65.1740   27.7820   29.0880 C.3   267  GLY267      0.1869
     44  C        -64.3020   28.6760   28.2210 C.2   267  GLY267      0.2309
     45  O        -63.2440   28.2530   27.7500 O.2   267  GLY267     -0.2863
     46  N        -60.9830   29.0230   29.8420 N.3   270  ASN270     -0.1240
     47  CA       -60.1830   27.8080   29.6690 C.3   270  ASN270      0.1653
     48  C        -59.2500   27.9470   28.4690 C.2   270  ASN270      0.2266
     49  O        -58.1280   27.4450   28.4850 O.2   270  ASN270     -0.2867
     50  CB       -61.0830   26.5690   29.4650 C.3   270  ASN270      0.1155
     51  CG       -61.4730   25.8620   30.7590 C.2   270  ASN270      0.2627
     52  OD1      -61.0590   26.2340   31.8650 O.2   270  ASN270     -0.2716
     53  ND2      -62.2950   24.8220   30.6160 N.am  270  ASN270     -0.0877
     54  N        -64.5140    2.7610   38.9540 N.3   397  ASP397     -0.1239
     55  CA       -64.6930    4.1340   38.5040 C.3   397  ASP397      0.1674
     56  C        -63.6560    4.5630   37.4710 C.2   397  ASP397      0.2266
     57  O        -63.8820    5.5550   36.7680 O.2   397  ASP397     -0.2867
     58  CB       -64.6480    5.0880   39.6920 C.3   397  ASP397      0.1410
     59  CG       -65.7830    4.8550   40.6570 C.2   397  ASP397      0.3668
     60  OD1      -66.8820    4.4450   40.2010 O.co2 397  ASP397     -0.2456
     61  OD2      -65.5730    5.0870   41.8680 O.co2 397  ASP397     -0.2456
     62  N        -64.3900    8.9580   29.5050 N.3   404  ARG404     -0.1245
     63  CA       -64.7470   10.3620   29.3230 C.3   404  ARG404      0.1563
     64  C        -63.5850   11.1580   28.7320 C.2   404  ARG404      0.2260
     65  O        -63.7460   11.8500   27.7180 O.2   404  ARG404     -0.2867
     66  CB       -65.1960   10.9570   30.6580 C.3   404  ARG404      0.0307
     67  CG       -65.5740   12.4390   30.6130 C.3   404  ARG404      0.0489
     68  CD       -66.0120   12.9490   31.9920 C.3   404  ARG404      0.2205
     69  NE       -64.9710   12.7810   33.0080 N.pl3 404  ARG404     -0.0865
     70  CZ       -65.1870   12.3340   34.2460 C.cat 404  ARG404      0.5346
     71  NH1      -66.4170   12.0100   34.6310 N.pl3 404  ARG404      0.1354
     72  NH2      -64.1730   12.2120   35.1080 N.pl3 404  ARG404      0.1354
     73  N        -53.2580    9.7620   41.8430 N.3   427  ARG427     -0.1245
     74  CA       -53.8840   10.3280   43.0430 C.3   427  ARG427      0.1563
     75  C        -53.9100    9.3260   44.1960 C.2   427  ARG427      0.2260
     76  O        -54.8500    9.2940   44.9930 O.2   427  ARG427     -0.2867
     77  CB       -55.2830   10.8600   42.7240 C.3   427  ARG427      0.0307
     78  CG       -56.3340    9.8210   42.3430 C.3   427  ARG427      0.0489
     79  CD       -57.6760   10.4900   41.9590 C.3   427  ARG427      0.2205
     80  NE       -57.6090   11.1100   40.6330 N.pl3 427  ARG427     -0.0865
     81  CZ       -58.5750   11.8410   40.0740 C.cat 427  ARG427      0.5346
     82  NH1      -59.7270   12.0590   40.7130 N.pl3 427  ARG427      0.1354
     83  NH2      -58.3840   12.3590   38.8630 N.pl3 427  ARG427      0.1354
@<TRIPOS>BOND
     1    65    64    2
     2    45    44    2
     3    44    43    1
     4    48    49    2
     5    48    47    1
     6    64    63    1
     7    43    42    1
     8    63    62    1
     9    63    66    1
    10    50    47    1
    11    50    51    1
    12    21    22    2
    13    21    20    1
    14    47    46    1
    15    42    35   am
    16    20    23    1
    17    20    19    1
    18    67    66    1
    19    67    68    1
    20    53    51   am
    21    13    12    2
    22    51    52    2
    23    36    35    2
    24    23    24    1
    25    35    34    1
    26    29    28    2
    27    28    27    1
    28    12    19   am
    29    12    11    1
    30    33    34    1
    31    19    25    1
    32    68    69    1
    33    34    37    1
    34    24    25    1
    35    15    16    1
    36    15    14    1
    37    18    16   ar
    38    16    17   ar
    39    14    11    1
    40    11    10    1
    41    69    70    2
    42    32    30    1
    43    27    30    1
    44    27    26    1
    45    10     3   am
    46    30    31    1
    47    37    38    1
    48    39    38    1
    49    39    40    1
    50     1     2    1
    51     3     4    2
    52     3     2    1
    53    41    40    1
    54    70    71    1
    55    70    72    1
    56     2     5    1
    57     8     7   ar
    58     5     6    1
    59     9     7   ar
    60     7     6    1
    61    57    56    2
    62    56    55    1
    63    55    54    1
    64    55    58    1
    65    83    81    1
    66    58    59    1
    67    81    80    2
    68    81    82    1
    69    60    59   ar
    70    80    79    1
    71    59    61   ar
    72    73    74    1
    73    79    78    1
    74    78    77    1
    75    77    74    1
    76    74    75    1
    77    75    76    2
