@<TRIPOS>MOLECULE
tmp/6djcA00.pdb
 141 139 0 0 0
SMALL
GASTEIGER

@<TRIPOS>ATOM
      1  N        -15.5800    6.2700   26.8140 N.3    39  TRP39      -0.1228
      2  CA       -16.8880    5.6080   26.7570 C.3    39  TRP39       0.1722
      3  C        -17.8420    6.0000   25.6040 C.2    39  TRP39       0.2437
      4  O        -18.4520    5.1130   25.0040 O.2    39  TRP39      -0.2733
      5  CB       -17.5980    5.5900   28.1320 C.3    39  TRP39       0.0563
      6  CG       -18.1270    6.9070   28.6090 C.ar   39  TRP39       0.0003
      7  CD1      -17.4860    7.8130   29.4040 C.ar   39  TRP39       0.0946
      8  CD2      -19.4210    7.4660   28.3250 C.ar   39  TRP39       0.0152
      9  NE1      -18.3010    8.9020   29.6300 N.ar   39  TRP39      -0.2442
     10  CE2      -19.4880    8.7130   28.9750 C.ar   39  TRP39       0.0810
     11  CE3      -20.5170    7.0330   27.5760 C.ar   39  TRP39       0.0012
     12  CZ2      -20.6150    9.5340   28.8960 C.ar   39  TRP39       0.0191
     13  CZ3      -21.6360    7.8460   27.5050 C.ar   39  TRP39       0.0001
     14  CH2      -21.6750    9.0810   28.1630 C.ar   39  TRP39       0.0015
     15  N        -17.9590    7.3030   25.2640 N.am   40  PRO40      -0.2718
     16  CA       -18.8990    7.6030   24.1720 C.3    40  PRO40       0.1535
     17  C        -18.4250    7.0700   22.8200 C.2    40  PRO40       0.2598
     18  O        -19.2180    6.9490   21.8930 O.2    40  PRO40      -0.2715
     19  CB       -18.9170    9.1380   24.1330 C.3    40  PRO40       0.0310
     20  CG       -18.4300    9.5660   25.5010 C.3    40  PRO40       0.0237
     21  CD       -17.3940    8.5370   25.8460 C.3    40  PRO40       0.0939
     22  N        -17.1380    6.7580   22.7220 N.am   41  PHE41      -0.1974
     23  CA       -16.5380    6.3300   21.4640 C.3    41  PHE41       0.1639
     24  C        -16.3440    4.8150   21.3680 C.2    41  PHE41       0.2290
     25  O        -15.8060    4.3260   20.3750 O.2    41  PHE41      -0.2864
     26  CB       -15.2100    7.0670   21.2470 C.3    41  PHE41       0.0560
     27  CG       -15.3350    8.5750   21.3250 C.ar   41  PHE41      -0.0200
     28  CD1      -15.6660    9.3220   20.1990 C.ar   41  PHE41      -0.0042
     29  CD2      -15.1260    9.2460   22.5290 C.ar   41  PHE41      -0.0042
     30  CE1      -15.7860   10.7070   20.2730 C.ar   41  PHE41      -0.0003
     31  CE2      -15.2340   10.6290   22.6080 C.ar   41  PHE41      -0.0003
     32  CZ       -15.5660   11.3600   21.4780 C.ar   41  PHE41      -0.0000
     33  N        -18.5740    2.4880   21.0760 N.3    43  GLN43      -0.1231
     34  CA       -19.6090    1.8500   20.2710 C.3    43  GLN43       0.1683
     35  C        -20.1950    2.9070   19.3490 C.2    43  GLN43       0.2434
     36  O        -20.0050    4.0990   19.5880 O.2    43  GLN43      -0.2733
     37  CB       -20.6990    1.2200   21.1590 C.3    43  GLN43       0.0380
     38  CG       -21.4640    2.1990   22.0500 C.3    43  GLN43       0.0905
     39  CD       -20.6300    2.6790   23.2200 C.2    43  GLN43       0.2608
     40  OE1      -20.0710    1.8700   23.9820 O.2    43  GLN43      -0.2717
     41  NE2      -20.5090    3.9980   23.3550 N.am   43  GLN43      -0.0878
     42  N        -20.8850    2.4840   18.2820 N.am   44  PRO44      -0.2718
     43  CA       -21.4680    3.4540   17.3490 C.3    44  PRO44       0.1535
     44  C        -22.4080    4.4420   18.0300 C.2    44  PRO44       0.2598
     45  O        -23.0360    4.1220   19.0470 O.2    44  PRO44      -0.2715
     46  CB       -22.2720    2.5660   16.3950 C.3    44  PRO44       0.0310
     47  CG       -21.5300    1.2610   16.4060 C.3    44  PRO44       0.0237
     48  CD       -21.0970    1.0960   17.8320 C.3    44  PRO44       0.0939
     49  N        -22.4900    5.6430   17.4720 N.am   45  VAL45      -0.1964
     50  CA       -23.4730    6.6210   17.9020 C.3    45  VAL45       0.1727
     51  C        -24.8730    6.0700   17.6520 C.2    45  VAL45       0.2616
     52  O        -25.2120    5.6610   16.5300 O.2    45  VAL45      -0.2715
     53  CB       -23.2890    7.9520   17.1490 C.3    45  VAL45       0.0290
     54  CG1      -24.5010    8.8790   17.3380 C.3    45  VAL45       0.0023
     55  CG2      -22.0020    8.6350   17.5890 C.3    45  VAL45       0.0023
     56  N        -25.6820    6.0330   18.7060 N.am   46  ASP46      -0.1971
     57  CA       -27.0700    5.6260   18.5790 C.3    46  ASP46       0.1709
     58  C        -27.9250    6.8910   18.4840 C.2    46  ASP46       0.2293
     59  O        -28.2310    7.5390   19.4960 O.2    46  ASP46      -0.2864
     60  CB       -27.4860    4.7470   19.7630 C.3    46  ASP46       0.1436
     61  CG       -28.8630    4.1340   19.5790 C.2    46  ASP46       0.3671
     62  OD1      -29.7340    4.8070   18.9790 O.co2  46  ASP46      -0.2456
     63  OD2      -29.0800    2.9810   20.0180 O.co2  46  ASP46      -0.2456
     64  N        -29.9810    9.0470   21.4550 N.3    50  LEU50      -0.1245
     65  CA       -29.4490   10.3850   21.7100 C.3    50  LEU50       0.1561
     66  C        -30.3290   11.4910   21.1150 C.2    50  LEU50       0.2260
     67  O        -30.0350   12.6830   21.2790 O.2    50  LEU50      -0.2867
     68  CB       -28.0260   10.5000   21.1640 C.3    50  LEU50       0.0270
     69  CG       -26.9700    9.6410   21.8600 C.3    50  LEU50       0.0019
     70  CD1      -25.6690    9.6550   21.0740 C.3    50  LEU50       0.0001
     71  CD2      -26.7510   10.1460   23.2860 C.3    50  LEU50       0.0001
     72  N        -30.8320   12.3470   17.8900 N.3    52  LEU52      -0.1245
     73  CA       -30.0560   13.0650   16.8840 C.3    52  LEU52       0.1561
     74  C        -30.5130   12.6510   15.4890 C.2    52  LEU52       0.2260
     75  O        -29.7860   11.9560   14.7790 O.2    52  LEU52      -0.2867
     76  CB       -28.5640   12.7500   17.0440 C.3    52  LEU52       0.0270
     77  CG       -27.9400   12.9130   18.4290 C.3    52  LEU52       0.0019
     78  CD1      -26.4580   12.5330   18.3680 C.3    52  LEU52       0.0001
     79  CD2      -28.1040   14.3390   18.9360 C.3    52  LEU52       0.0001
     80  N        -28.0610   13.0700   12.6260 N.3    55  TYR55      -0.1241
     81  CA       -26.6830   12.5960   12.7560 C.3    55  TYR55       0.1605
     82  C        -26.2150   11.8530   11.5090 C.2    55  TYR55       0.2264
     83  O        -25.1640   12.1760   10.9450 O.2    55  TYR55      -0.2867
     84  CB       -26.4740   11.7230   14.0100 C.3    55  TYR55       0.0534
     85  CG       -25.0100   11.3780   14.2090 C.ar   55  TYR55      -0.0201
     86  CD1      -24.1640   12.2290   14.9130 C.ar   55  TYR55      -0.0009
     87  CD2      -24.4650   10.2180   13.6610 C.ar   55  TYR55      -0.0009
     88  CE1      -22.8140   11.9340   15.0730 C.ar   55  TYR55       0.0417
     89  CE2      -23.1130    9.9110   13.8220 C.ar   55  TYR55       0.0417
     90  CZ       -22.2980   10.7710   14.5310 C.ar   55  TYR55       0.1957
     91  OH       -20.9630   10.4800   14.6840 O.3    55  TYR55      -0.2866
     92  N        -16.9080   13.6710   14.9790 N.3    94  CYS94      -0.1235
     93  CA       -17.3300   14.3160   16.2100 C.3    94  CYS94       0.1677
     94  C        -17.2410   15.8400   16.0670 C.2    94  CYS94       0.2270
     95  O        -18.1560   16.5670   16.4610 O.2    94  CYS94      -0.2867
     96  CB       -16.4570   13.8310   17.3690 C.3    94  CYS94       0.0956
     97  SG       -17.0170   14.4060   18.9710 S.3    94  CYS94      -0.0801
     98  N        -20.1210   17.0230   13.4640 N.3    97  TYR97      -0.1227
     99  CA       -21.4960   17.0310   13.9660 C.3    97  TYR97       0.1736
    100  C        -21.7110   18.0840   15.0530 C.2    97  TYR97       0.2595
    101  O        -22.7420   18.7810   15.0850 O.2    97  TYR97      -0.2718
    102  CB       -21.9440   15.6540   14.4880 C.3    97  TYR97       0.0548
    103  CG       -23.3940   15.7050   14.8790 C.ar   97  TYR97      -0.0200
    104  CD1      -24.3810   15.7330   13.9060 C.ar   97  TYR97      -0.0009
    105  CD2      -23.7780   15.8040   16.2090 C.ar   97  TYR97      -0.0009
    106  CE1      -25.7170   15.8290   14.2420 C.ar   97  TYR97       0.0417
    107  CE2      -25.1170   15.9020   16.5560 C.ar   97  TYR97       0.0417
    108  CZ       -26.0790   15.9080   15.5670 C.ar   97  TYR97       0.1957
    109  OH       -27.4030   16.0060   15.9010 O.3    97  TYR97      -0.2866
    110  N        -20.7360   18.1840   15.9510 N.am   98  ASN98      -0.1974
    111  CA       -20.8410   19.0550   17.1140 C.3    98  ASN98       0.1688
    112  C        -20.1910   20.4210   16.8760 C.2    98  ASN98       0.2292
    113  O        -19.8830   20.7670   15.7390 O.2    98  ASN98      -0.2864
    114  CB       -20.2630   18.3410   18.3340 C.3    98  ASN98       0.1181
    115  CG       -21.0210   17.0660   18.6680 C.2    98  ASN98       0.2629
    116  OD1      -22.0980   17.1210   19.2690 O.2    98  ASN98      -0.2716
    117  ND2      -20.4620   15.9100   18.2890 N.am   98  ASN98      -0.0877
    118  N        -18.6800   19.6410   25.2140 N.3   103  ASP103     -0.1225
    119  CA       -17.9950   18.6580   26.0480 C.3   103  ASP103      0.1805
    120  C        -17.4790   17.4670   25.2440 C.2   103  ASP103      0.2597
    121  O        -16.3420   17.0470   25.4360 O.2   103  ASP103     -0.2718
    122  CB       -18.9010   18.1660   27.1860 C.3   103  ASP103      0.1424
    123  CG       -19.0090   19.1620   28.3270 C.2   103  ASP103      0.3668
    124  OD1      -18.2430   20.1450   28.3680 O.co2 103  ASP103     -0.2456
    125  OD2      -19.8590   18.9430   29.1990 O.co2 103  ASP103     -0.2456
    126  N        -18.2910   16.9370   24.3320 N.am  104  ILE104     -0.1980
    127  CA       -17.8740   15.7520   23.5780 C.3   104  ILE104      0.1595
    128  C        -16.6860   16.0550   22.6560 C.2   104  ILE104      0.2287
    129  O        -15.8300   15.2030   22.4280 O.2   104  ILE104     -0.2864
    130  CB       -19.0540   15.1190   22.7860 C.3   104  ILE104      0.0276
    131  CG1      -18.6720   13.7400   22.2240 C.3   104  ILE104      0.0022
    132  CG2      -19.5470   16.0450   21.6690 C.3   104  ILE104      0.0022
    133  CD1      -18.2900   12.7360   23.3090 C.3   104  ILE104      0.0001
    134  N        -13.5990   16.1280   24.6760 N.3   107  MET107     -0.1245
    135  CA       -13.2230   14.7410   24.9290 C.3   107  MET107      0.1570
    136  C        -12.5150   14.1430   23.7220 C.2   107  MET107      0.2261
    137  O        -11.4620   13.5200   23.8630 O.2   107  MET107     -0.2867
    138  CB       -14.4530   13.9120   25.3060 C.3   107  MET107      0.0387
    139  CG       -15.0380   14.3010   26.6550 C.3   107  MET107      0.0595
    140  SD       -16.6550   13.5820   26.9980 S.3   107  MET107     -0.1393
    141  CE       -16.1790   11.9040   27.4370 C.3   107  MET107      0.0692
@<TRIPOS>BOND
     1    83    82    2
     2    82    81    1
     3    80    81    1
     4    81    84    1
     5    98    99    1
     6    87    89   ar
     7    87    85   ar
     8    89    90   ar
     9   104   106   ar
    10   104   103   ar
    11    99   102    1
    12    99   100    1
    13    84    85    1
    14    85    86   ar
    15   106   108   ar
    16   102   103    1
    17    90    91    1
    18    90    88   ar
    19    75    74    2
    20   103   105   ar
    21    86    88   ar
    22    92    93    1
    23   100   101    2
    24   100   110   am
    25    74    73    1
    26   108   109    1
    27   108   107   ar
    28   113   112    2
    29   110   111    1
    30    94    93    1
    31    94    95    2
    32   105   107   ar
    33    93    96    1
    34    46    47    1
    35    46    43    1
    36    47    48    1
    37    52    51    2
    38   112   111    1
    39    73    76    1
    40    73    72    1
    41    76    77    1
    42   111   114    1
    43    53    54    1
    44    53    55    1
    45    53    50    1
    46    43    44    1
    47    43    42    1
    48    96    97    1
    49    49    50    1
    50    49    44   am
    51    51    50    1
    52    51    56   am
    53    48    42    1
    54    44    45    2
    55    42    35   am
    56   117   115   am
    57   114   115    1
    58    78    77    1
    59    77    79    1
    60    58    57    1
    61    58    59    2
    62    57    56    1
    63    57    60    1
    64   115   116    2
    65    62    61   ar
    66    35    36    2
    67    35    34    1
    68    61    60    1
    69    61    63   ar
    70    28    30   ar
    71    28    27   ar
    72    34    33    1
    73    34    37    1
    74    30    32   ar
    75    25    24    2
    76    70    69    1
    77    66    67    2
    78    66    65    1
    79    37    38    1
    80    68    65    1
    81    68    69    1
    82    26    27    1
    83    26    23    1
    84    27    29   ar
    85    24    23    1
    86    64    65    1
    87    23    22    1
    88    32    31   ar
    89   132   130    1
    90    69    71    1
    91    18    17    2
    92    38    39    1
    93   131   130    1
    94   131   133    1
    95   129   128    2
    96    29    31   ar
    97   128   127    1
    98    22    17   am
    99   130   127    1
   100    17    16    1
   101    39    41   am
   102    39    40    2
   103   127   126    1
   104   136   137    2
   105   136   135    1
   106    19    16    1
   107    19    20    1
   108    16    15    1
   109   126   120   am
   110   134   135    1
   111   135   138    1
   112     4     3    2
   113   118   119    1
   114   120   121    2
   115   120   119    1
   116    15     3   am
   117    15    21    1
   118   138   139    1
   119    20    21    1
   120     3     2    1
   121   119   122    1
   122   139   140    1
   123     2     1    1
   124     2     5    1
   125   140   141    1
   126   122   123    1
   127    13    11   ar
   128    13    14   ar
   129    11     8   ar
   130     5     6    1
   131    14    12   ar
   132     8     6   ar
   133     8    10   ar
   134   123   124   ar
   135   123   125   ar
   136     6     7   ar
   137    12    10   ar
   138    10     9   ar
   139     7     9   ar
