@<TRIPOS>MOLECULE
tmp/6djqB00.pdb
 209 202 0 0 0
SMALL
GASTEIGER

@<TRIPOS>ATOM
      1  N          2.1260   21.4380   77.0900 N.3    32  GLN32      -0.1231
      2  CA         2.0320   22.7980   77.6000 C.3    32  GLN32       0.1698
      3  C          0.6660   23.3960   77.2810 C.2    32  GLN32       0.2593
      4  O          0.1150   23.1920   76.1960 O.2    32  GLN32      -0.2718
      5  CB         3.1460   23.6610   77.0000 C.3    32  GLN32       0.0381
      6  CG         3.1660   25.0960   77.5030 C.3    32  GLN32       0.0905
      7  CD         4.2630   25.9300   76.8740 C.2    32  GLN32       0.2608
      8  OE1        5.4460   25.7320   77.1510 O.2    32  GLN32      -0.2717
      9  NE2        3.8740   26.8640   76.0130 N.am   32  GLN32      -0.0878
     10  N          0.1160   24.1320   78.2450 N.am   33  SER33      -0.1938
     11  CA        -1.1660   24.8210   78.1040 C.3    33  SER33       0.2055
     12  C         -2.3140   23.8620   77.8080 C.2    33  SER33       0.2644
     13  O         -3.3420   24.2710   77.2640 O.2    33  SER33      -0.2714
     14  CB        -1.0970   25.9000   77.0170 C.3    33  SER33       0.2130
     15  OG        -0.4290   27.0610   77.4770 O.3    33  SER33      -0.2179
     16  N         -2.1640   22.5840   78.1490 N.am   34  SER34      -0.1935
     17  CA        -3.2290   21.6110   77.9420 C.3    34  SER34       0.2055
     18  C         -4.3480   21.7220   78.9700 C.2    34  SER34       0.2644
     19  O         -5.3890   21.0810   78.7930 O.2    34  SER34      -0.2714
     20  CB        -2.6550   20.1930   77.9680 C.3    34  SER34       0.2130
     21  OG        -1.9950   19.9240   79.1960 O.3    34  SER34      -0.2179
     22  N         -4.1600   22.5020   80.0290 N.am   35  GLY35      -0.1939
     23  CA        -5.1680   22.6780   81.0490 C.3    35  GLY35       0.2014
     24  C         -4.9770   21.8490   82.2990 C.2    35  GLY35       0.2639
     25  O         -5.9740   21.4270   82.8980 O.2    35  GLY35      -0.2714
     26  N         -3.7350   21.6140   82.7210 N.am   36  LYS36      -0.1963
     27  CA        -3.4840   20.7520   83.8710 C.3    36  LYS36       0.1728
     28  C         -3.8260   21.4600   85.1790 C.2    36  LYS36       0.2617
     29  O         -4.5080   20.8950   86.0460 O.2    36  LYS36      -0.2715
     30  CB        -2.0250   20.3000   83.8610 C.3    36  LYS36       0.0311
     31  CG        -1.6510   19.4670   82.6400 C.3    36  LYS36       0.0038
     32  CD        -0.1970   19.0090   82.6800 C.3    36  LYS36       0.0206
     33  CE         0.7680   20.1770   82.5780 C.3    36  LYS36       0.1093
     34  NZ         0.5180   20.9960   81.3610 N.3    36  LYS36      -0.1314
     35  N         -3.3470   22.6950   85.3420 N.am   37  SER37      -0.1936
     36  CA        -3.6210   23.4440   86.5640 C.3    37  SER37       0.2055
     37  C         -5.1170   23.6510   86.7620 C.2    37  SER37       0.2643
     38  O         -5.6200   23.5660   87.8890 O.2    37  SER37      -0.2714
     39  CB        -2.9010   24.7910   86.5160 C.3    37  SER37       0.2130
     40  OG        -1.4970   24.6200   86.4320 O.3    37  SER37      -0.2179
     41  N         -5.8460   23.9270   85.6770 N.am   38  SER38      -0.1949
     42  CA        -7.2940   24.0860   85.7690 C.3    38  SER38       0.1924
     43  C         -7.9430   22.8270   86.3270 C.2    38  SER38       0.2314
     44  O         -8.7760   22.8900   87.2410 O.2    38  SER38      -0.2863
     45  CB        -7.8720   24.4210   84.3910 C.3    38  SER38       0.2116
     46  OG        -7.3080   25.6090   83.8580 O.3    38  SER38      -0.2180
     47  N         -1.9510   29.5950   89.4740 N.3    50  PRO50      -0.2102
     48  CA        -1.7770   30.4780   88.3160 C.3    50  PRO50       0.1504
     49  C         -2.1260   29.7480   87.0280 C.2    50  PRO50       0.2576
     50  O         -1.6280   28.6520   86.7600 O.2    50  PRO50      -0.2718
     51  CB        -0.2920   30.8540   88.3730 C.3    50  PRO50       0.0282
     52  CG         0.1120   30.6220   89.7740 C.3    50  PRO50       0.0208
     53  CD        -0.7070   29.4680   90.2520 C.3    50  PRO50       0.0893
     54  N         -2.9880   30.3720   86.2290 N.am   51  ARG51      -0.1966
     55  CA        -3.4530   29.8130   84.9690 C.3    51  ARG51       0.1729
     56  C         -3.2990   30.8430   83.8600 C.2    51  ARG51       0.2617
     57  O         -3.3090   32.0520   84.1060 O.2    51  ARG51      -0.2715
     58  CB        -4.9190   29.3630   85.0770 C.3    51  ARG51       0.0348
     59  CG        -5.1380   28.2470   86.0750 C.3    51  ARG51       0.0492
     60  CD        -6.6100   27.9810   86.3450 C.3    51  ARG51       0.2205
     61  NE        -7.0960   28.7760   87.4730 N.pl3  51  ARG51      -0.0865
     62  CZ        -7.9880   29.7620   87.4000 C.cat  51  ARG51       0.5346
     63  NH1       -8.5420   30.0990   86.2410 N.pl3  51  ARG51       0.1354
     64  NH2       -8.3410   30.4040   88.5070 N.pl3  51  ARG51       0.1354
     65  N         -3.1530   30.3490   82.6400 N.am   52  GLY52      -0.1940
     66  CA        -3.0900   31.2100   81.4750 C.3    52  GLY52       0.2014
     67  C         -2.3580   30.5350   80.3400 C.2    52  GLY52       0.2639
     68  O         -1.7080   29.5030   80.5070 O.2    52  GLY52      -0.2714
     69  N         -2.4590   31.1560   79.1660 N.am   53  GLN53      -0.1963
     70  CA        -1.8160   30.6050   77.9860 C.3    53  GLN53       0.1733
     71  C         -0.3050   30.8000   78.0760 C.2    53  GLN53       0.2617
     72  O          0.2170   31.4600   78.9790 O.2    53  GLN53      -0.2715
     73  CB        -2.3310   31.2600   76.7090 C.3    53  GLN53       0.0408
     74  CG        -2.2250   32.7680   76.6900 C.3    53  GLN53       0.0908
     75  CD        -2.8710   33.3670   75.4630 C.2    53  GLN53       0.2608
     76  OE1       -3.3370   32.6470   74.5790 O.2    53  GLN53      -0.2717
     77  NE2       -2.9050   34.6910   75.4010 N.am   53  GLN53      -0.0878
     78  N          0.3990   30.2310   77.1060 N.am   54  GLY54      -0.1940
     79  CA         1.8310   30.2490   77.1970 C.3    54  GLY54       0.2014
     80  C          2.2370   29.4800   78.4410 C.2    54  GLY54       0.2639
     81  O          1.4490   28.7520   79.0480 O.2    54  GLY54      -0.2714
     82  N          3.4820   29.6740   78.8470 N.am   55  ILE55      -0.1963
     83  CA         4.0090   28.9740   80.0090 C.3    55  ILE55       0.1727
     84  C          3.6990   29.7980   81.2500 C.2    55  ILE55       0.2616
     85  O          4.1690   30.9330   81.3940 O.2    55  ILE55      -0.2715
     86  CB         5.5140   28.6970   79.8690 C.3    55  ILE55       0.0290
     87  CG1        5.9500   27.7110   80.9490 C.3    55  ILE55       0.0022
     88  CG2        6.3220   29.9770   79.9510 C.3    55  ILE55       0.0023
     89  CD1        7.3150   27.1450   80.7360 C.3    55  ILE55       0.0001
     90  N          2.8700   29.2370   82.1270 N.am   56  VAL56      -0.1963
     91  CA         2.5300   29.8440   83.4110 C.3    56  VAL56       0.1727
     92  C          3.1590   29.0600   84.5560 C.2    56  VAL56       0.2616
     93  O          3.9450   29.6020   85.3350 O.2    56  VAL56      -0.2715
     94  CB         0.9980   29.9540   83.5840 C.3    56  VAL56       0.0290
     95  CG1        0.6520   30.8240   84.7830 C.3    56  VAL56       0.0023
     96  CG2        0.3610   30.4940   82.3210 C.3    56  VAL56       0.0023
     97  N          2.8240   27.7770   84.6740 N.am   57  THR57      -0.1951
     98  CA         3.4650   26.9090   85.6510 C.3    57  THR57       0.1897
     99  C          4.8710   26.5800   85.1710 C.2    57  THR57       0.2313
    100  O          5.0410   25.9490   84.1210 O.2    57  THR57      -0.2863
    101  CB         2.6570   25.6280   85.8400 C.3    57  THR57       0.1794
    102  OG1        1.2690   25.9510   86.0000 O.3    57  THR57      -0.2208
    103  CG2        3.1450   24.8620   87.0620 C.3    57  THR57       0.0378
    104  N          1.2210   19.7700   90.7880 N.3   127  ASP127     -0.1225
    105  CA         1.0840   20.4720   89.5220 C.3   127  ASP127      0.1805
    106  C          2.4680   20.6410   88.9060 C.2   127  ASP127      0.2597
    107  O          3.4450   20.8920   89.6170 O.2   127  ASP127     -0.2718
    108  CB         0.4080   21.8280   89.7210 C.3   127  ASP127      0.1424
    109  CG        -0.0290   22.4610   88.4150 C.2   127  ASP127      0.3668
    110  OD1       -0.0290   21.7580   87.3810 O.co2 127  ASP127     -0.2456
    111  OD2       -0.3910   23.6580   88.4290 O.co2 127  ASP127     -0.2456
    112  N          2.5540   20.4880   87.5920 N.am  128  LEU128     -0.1979
    113  CA         3.8350   20.4660   86.9030 C.3   128  LEU128      0.1596
    114  C          3.7830   21.3260   85.6540 C.2   128  LEU128      0.2287
    115  O          2.7010   21.5860   85.1110 O.2   128  LEU128     -0.2864
    116  CB         4.2370   19.0360   86.5120 C.3   128  LEU128      0.0297
    117  CG         4.6370   18.0860   87.6370 C.3   128  LEU128      0.0022
    118  CD1        4.6910   16.6620   87.1170 C.3   128  LEU128      0.0001
    119  CD2        5.9760   18.4940   88.2250 C.3   128  LEU128      0.0001
    120  N          4.1790   21.9310   81.6240 N.3   130  GLY130     -0.1225
    121  CA         3.8290   21.0940   80.4910 C.3   130  GLY130      0.1811
    122  C          5.0220   20.8310   79.5850 C.2   130  GLY130      0.2280
    123  O          5.8840   21.6880   79.4010 O.2   130  GLY130     -0.2866
    124  N         -9.4900   17.9910   77.7480 N.3   196  THR196     -0.1203
    125  CA        -9.7940   19.3960   77.9720 C.3   196  THR196      0.1994
    126  C        -10.1120   20.1020   76.6550 C.2   196  THR196      0.2617
    127  O         -9.9660   19.5450   75.5660 O.2   196  THR196     -0.2717
    128  CB        -8.6200   20.0910   78.6660 C.3   196  THR196      0.1784
    129  OG1       -7.4990   20.1330   77.7760 O.3   196  THR196     -0.2211
    130  CG2       -8.2330   19.3470   79.9360 C.3   196  THR196      0.0376
    131  N        -10.5470   21.3580   76.7720 N.am  197  LYS197     -0.1979
    132  CA       -10.8270   22.2100   75.6140 C.3   197  LYS197      0.1596
    133  C        -11.8570   21.5840   74.6830 C.2   197  LYS197      0.2287
    134  O        -11.8120   21.7830   73.4670 O.2   197  LYS197     -0.2864
    135  CB        -9.5600   22.5500   74.8260 C.3   197  LYS197      0.0298
    136  CG        -8.5290   23.3450   75.5940 C.3   197  LYS197      0.0038
    137  CD        -7.3810   23.7530   74.6760 C.3   197  LYS197      0.0206
    138  CE        -6.3670   24.6410   75.3870 C.3   197  LYS197      0.1093
    139  NZ        -5.7870   23.9870   76.5900 N.3   197  LYS197     -0.1314
    140  N        -14.7770   22.5070   74.4180 N.3   199  ASP199     -0.1225
    141  CA       -15.5620   23.6090   73.8780 C.3   199  ASP199      0.1805
    142  C        -14.8700   24.3370   72.7320 C.2   199  ASP199      0.2597
    143  O        -15.4480   25.2870   72.1950 O.2   199  ASP199     -0.2718
    144  CB       -15.9110   24.6110   74.9910 C.3   199  ASP199      0.1424
    145  CG       -14.6860   25.1770   75.6850 C.2   199  ASP199      0.3668
    146  OD1      -13.7430   24.4110   75.9660 O.co2 199  ASP199     -0.2456
    147  OD2      -14.6640   26.3950   75.9480 O.co2 199  ASP199     -0.2456
    148  N        -13.6620   23.9280   72.3440 N.am  200  LEU200     -0.1979
    149  CA       -12.9390   24.5560   71.2440 C.3   200  LEU200      0.1596
    150  C        -12.7570   23.6290   70.0500 C.2   200  LEU200      0.2287
    151  O        -11.9700   23.9440   69.1490 O.2   200  LEU200     -0.2864
    152  CB       -11.5640   25.0490   71.7030 C.3   200  LEU200      0.0297
    153  CG       -11.4490   26.3130   72.5530 C.3   200  LEU200      0.0022
    154  CD1      -12.5640   26.4510   73.5610 C.3   200  LEU200      0.0001
    155  CD2      -10.0940   26.3140   73.2460 C.3   200  LEU200      0.0001
    156  N        -13.8990   17.3200   79.9100 N.3   225  VAL225     -0.1231
    157  CA       -14.0320   18.4480   80.8240 C.3   225  VAL225      0.1692
    158  C        -14.0260   19.7410   80.0210 C.2   225  VAL225      0.2592
    159  O        -13.4910   19.8060   78.9120 O.2   225  VAL225     -0.2718
    160  CB       -12.9100   18.4720   81.8860 C.3   225  VAL225      0.0266
    161  CG1      -12.9410   17.2060   82.7240 C.3   225  VAL225      0.0020
    162  CG2      -11.5500   18.6510   81.2260 C.3   225  VAL225      0.0020
    163  N        -14.6310   20.7780   80.5980 N.am  226  VAL226     -0.1966
    164  CA       -14.6520   22.1130   80.0090 C.3   226  VAL226      0.1727
    165  C        -14.1900   23.0760   81.0930 C.2   226  VAL226      0.2616
    166  O        -14.9590   23.4170   81.9990 O.2   226  VAL226     -0.2715
    167  CB       -16.0350   22.5020   79.4800 C.3   226  VAL226      0.0290
    168  CG1      -16.0350   23.9540   79.0220 C.3   226  VAL226      0.0023
    169  CG2      -16.4430   21.5820   78.3480 C.3   226  VAL226      0.0023
    170  N        -12.9380   23.5170   81.0080 N.am  227  ASN227     -0.1958
    171  CA       -12.3980   24.4630   81.9670 C.3   227  ASN227      0.1819
    172  C        -12.6090   25.8890   81.4550 C.2   227  ASN227      0.2621
    173  O        -13.1520   26.1130   80.3710 O.2   227  ASN227     -0.2715
    174  CB       -10.9190   24.1680   82.2160 C.3   227  ASN227      0.1195
    175  CG       -10.6670   22.7190   82.6090 C.2   227  ASN227      0.2630
    176  OD1      -11.4310   22.1270   83.3730 O.2   227  ASN227     -0.2716
    177  ND2       -9.5940   22.1400   82.0790 N.am  227  ASN227     -0.0877
    178  N        -12.1780   26.8710   82.2440 N.am  228  ARG228     -0.1963
    179  CA       -12.3500   28.2710   81.8750 C.3   228  ARG228      0.1729
    180  C        -11.3550   28.6720   80.7940 C.2   228  ARG228      0.2617
    181  O        -10.1520   28.4240   80.9200 O.2   228  ARG228     -0.2715
    182  CB       -12.1850   29.1710   83.0990 C.3   228  ARG228      0.0348
    183  CG       -13.4330   29.2600   83.9620 C.3   228  ARG228      0.0492
    184  CD       -13.1310   29.8540   85.3320 C.3   228  ARG228      0.2205
    185  NE       -12.4150   28.9160   86.1920 N.pl3 228  ARG228     -0.0865
    186  CZ       -12.0700   29.1680   87.4510 C.cat 228  ARG228      0.5346
    187  NH1      -12.3780   30.3330   88.0050 N.pl3 228  ARG228      0.1354
    188  NH2      -11.4180   28.2540   88.1560 N.pl3 228  ARG228      0.1354
    189  N        -11.8580   29.2980   79.7370 N.am  229  GLY229     -0.1940
    190  CA       -11.0070   29.8320   78.6970 C.3   229  GLY229      0.2014
    191  C        -10.2320   31.0450   79.1810 C.2   229  GLY229      0.2638
    192  O        -10.3000   31.4580   80.3390 O.2   229  GLY229     -0.2714
    193  N         -9.4690   31.6290   78.2570 N.am  230  GLN230     -0.1977
    194  CA        -8.6560   32.7870   78.6100 C.3   230  GLN230      0.1601
    195  C         -9.5340   34.0040   78.8850 C.2   230  GLN230      0.2287
    196  O         -9.2400   34.8020   79.7850 O.2   230  GLN230     -0.2864
    197  CB        -7.6550   33.0810   77.4940 C.3   230  GLN230      0.0394
    198  CG        -6.5950   34.1150   77.8540 C.3   230  GLN230      0.0908
    199  CD        -5.6540   33.6450   78.9550 C.2   230  GLN230      0.2608
    200  OE1       -5.2460   32.4840   78.9850 O.2   230  GLN230     -0.2717
    201  NE2       -5.3040   34.5490   79.8640 N.am  230  GLN230     -0.0878
    202  N        -10.6670   33.6790   82.3190 N.3   233  ILE233     -0.1245
    203  CA        -9.5760   33.9820   83.2430 C.3   233  ILE233      0.1561
    204  C         -9.4310   35.4870   83.4250 C.2   233  ILE233      0.2260
    205  O         -9.2590   35.9780   84.5480 O.2   233  ILE233     -0.2867
    206  CB        -8.2580   33.3520   82.7500 C.3   233  ILE233      0.0252
    207  CG1       -8.3050   31.8260   82.8830 C.3   233  ILE233      0.0019
    208  CG2       -7.0730   33.9360   83.5150 C.3   233  ILE233      0.0019
    209  CD1       -7.0860   31.1070   82.3050 C.3   233  ILE233      0.0001
@<TRIPOS>BOND
     1   151   150    2
     2   150   149    1
     3   149   152    1
     4   149   148    1
     5   152   153    1
     6   143   142    2
     7   148   142   am
     8   153   155    1
     9   153   154    1
    10   142   141    1
    11   134   133    2
    12   141   140    1
    13   141   144    1
    14    76    75    2
    15   137   138    1
    16   137   136    1
    17   133   132    1
    18   135   136    1
    19   135   132    1
    20   144   145    1
    21   138   139    1
    22    77    75   am
    23    75    74    1
    24   127   126    2
    25   132   131    1
    26   145   147   ar
    27   145   146   ar
    28     9     7   am
    29     4     3    2
    30   126   131   am
    31   126   125    1
    32    74    73    1
    33    73    70    1
    34     7     8    2
    35     7     6    1
    36     5     6    1
    37     5     2    1
    38    14    15    1
    39    14    11    1
    40     1     2    1
    41    78    79    1
    42    78    71   am
    43    79    80    1
    44    13    12    2
    45     3     2    1
    46     3    10   am
    47   197   198    1
    48   197   194    1
    49   124   125    1
    50   129   128    1
    51    12    11    1
    52    12    16   am
    53   198   199    1
    54    17    20    1
    55    17    16    1
    56    17    18    1
    57    20    21    1
    58   125   128    1
    59    70    71    1
    60    70    69    1
    61    71    72    2
    62    11    10    1
    63   193   194    1
    64   193   191   am
    65   169   167    1
    66    80    82   am
    67    80    81    2
    68   194   195    1
    69   128   130    1
    70   190   191    1
    71   190   189    1
    72    19    18    2
    73    82    83    1
    74   195   196    2
    75   159   158    2
    76   199   200    2
    77   199   201   am
    78    18    22   am
    79   168   167    1
    80    69    67   am
    81   191   192    2
    82   123   122    2
    83   167   164    1
    84   122   121    1
    85   189   180   am
    86    86    88    1
    87    86    83    1
    88    86    87    1
    89   156   157    1
    90   164   163    1
    91   164   165    1
    92    83    84    1
    93   158   163   am
    94   158   157    1
    95    22    23    1
    96    67    68    2
    97    67    66    1
    98   173   172    2
    99   121   120    1
   100    89    87    1
   101   180   181    2
   102   180   179    1
   103   157   160    1
   104   170   165   am
   105   170   171    1
   106    23    24    1
   107   165   166    2
   108   162   160    1
   109    84    85    2
   110    84    90   am
   111    34    33    1
   112   172   171    1
   113   172   178   am
   114    66    65    1
   115   179   178    1
   116   179   182    1
   117   160   161    1
   118   171   174    1
   119   177   175   am
   120    90    91    1
   121   174   175    1
   122    24    26   am
   123    24    25    2
   124   209   207    1
   125   202   203    1
   126    96    94    1
   127    33    32    1
   128   175   176    2
   129    31    32    1
   130    31    30    1
   131    65    56   am
   132    26    27    1
   133   206   207    1
   134   206   203    1
   135   206   208    1
   136   182   183    1
   137   203   204    1
   138    91    94    1
   139    91    92    1
   140   204   205    2
   141    94    95    1
   142    46    45    1
   143    56    57    2
   144    56    55    1
   145    30    27    1
   146    27    28    1
   147   183   184    1
   148   100    99    2
   149    45    42    1
   150    92    97   am
   151    92    93    2
   152    97    98    1
   153    55    58    1
   154    55    54    1
   155    58    59    1
   156   115   114    2
   157    99    98    1
   158    28    35   am
   159    28    29    2
   160   184   185    1
   161    35    36    1
   162    98   101    1
   163   114   113    1
   164    41    42    1
   165    41    37   am
   166    42    43    1
   167   101   102    1
   168   101   103    1
   169    59    60    1
   170   185   186    2
   171    54    49   am
   172    63    62    1
   173    43    44    2
   174    60    61    1
   175    40    39    1
   176   116   113    1
   177   116   117    1
   178    39    36    1
   179    36    37    1
   180    50    49    2
   181    37    38    2
   182   113   112    1
   183    49    48    1
   184   118   117    1
   185   110   109   ar
   186    62    61    2
   187    62    64    1
   188   186   187    1
   189   186   188    1
   190   112   106   am
   191   117   119    1
   192    48    51    1
   193    48    47    1
   194    51    52    1
   195   109   111   ar
   196   109   108    1
   197   106   105    1
   198   106   107    2
   199    47    53    1
   200   105   108    1
   201   105   104    1
   202    52    53    1
