@<TRIPOS>MOLECULE
tmp/6djuG01.pdb
 143 141 0 0 0
SMALL
GASTEIGER

@<TRIPOS>ATOM
      1  N        174.3060  200.4600  120.2620 N.3    20  ASP20      -0.1225
      2  CA       173.2560  201.1960  120.9350 C.3    20  ASP20       0.1790
      3  C        173.8560  202.2140  121.9030 C.2    20  ASP20       0.2440
      4  O        175.0050  202.0750  122.3280 O.2    20  ASP20      -0.2733
      5  CB       172.3260  200.2290  121.6700 C.3    20  ASP20       0.1423
      6  CG       173.0660  199.2890  122.6150 C.2    20  ASP20       0.3668
      7  OD1      174.3110  199.2800  122.6310 O.co2  20  ASP20      -0.2456
      8  OD2      172.3930  198.5380  123.3470 O.co2  20  ASP20      -0.2456
      9  N        173.1110  203.2710  122.2420 N.am   21  PRO21      -0.2718
     10  CA       173.5640  204.1360  123.3360 C.3    21  PRO21       0.1535
     11  C        173.4060  203.4430  124.6800 C.2    21  PRO21       0.2598
     12  O        172.2980  203.3610  125.2190 O.2    21  PRO21      -0.2715
     13  CB       172.6540  205.3640  123.2180 C.3    21  PRO21       0.0310
     14  CG       172.1750  205.3470  121.8040 C.3    21  PRO21       0.0237
     15  CD       172.0310  203.9000  121.4610 C.3    21  PRO21       0.0939
     16  N        174.5120  202.9570  125.2370 N.am   22  VAL22      -0.1964
     17  CA       174.4720  202.2350  126.5030 C.3    22  VAL22       0.1727
     18  C        174.4320  203.2560  127.6370 C.2    22  VAL22       0.2616
     19  O        175.2470  204.1800  127.7010 O.2    22  VAL22      -0.2715
     20  CB       175.6430  201.2500  126.6450 C.3    22  VAL22       0.0290
     21  CG1      175.4290  200.0780  125.7130 C.3    22  VAL22       0.0023
     22  CG2      176.9870  201.8960  126.3140 C.3    22  VAL22       0.0023
     23  N        173.4290  203.1320  128.4950 N.am   23  ILE23      -0.1963
     24  CA       173.2350  204.0330  129.6200 C.3    23  ILE23       0.1727
     25  C        173.2710  203.1980  130.8880 C.2    23  ILE23       0.2617
     26  O        172.5970  202.1640  130.9770 O.2    23  ILE23      -0.2715
     27  CB       171.9120  204.8080  129.4970 C.3    23  ILE23       0.0290
     28  CG1      171.8410  205.5420  128.1570 C.3    23  ILE23       0.0022
     29  CG2      171.7540  205.7890  130.6510 C.3    23  ILE23       0.0023
     30  CD1      172.9340  206.5660  127.9620 C.3    23  ILE23       0.0001
     31  N        174.0650  203.6340  131.8590 N.am   24  GLY24      -0.1940
     32  CA       174.1210  202.9240  133.1130 C.3    24  GLY24       0.2014
     33  C        174.9390  201.6480  133.0140 C.2    24  GLY24       0.2638
     34  O        175.7380  201.4510  132.0910 O.2    24  GLY24      -0.2714
     35  N        174.7040  200.7770  134.0030 N.am   25  ARG25      -0.1977
     36  CA       175.4180  199.5090  134.1930 C.3    25  ARG25       0.1597
     37  C        176.9250  199.7260  134.3070 C.2    25  ARG25       0.2287
     38  O        177.7260  198.9700  133.7530 O.2    25  ARG25      -0.2864
     39  CB       175.0860  198.5000  133.0900 C.3    25  ARG25       0.0334
     40  CG       173.6130  198.2220  132.9850 C.3    25  ARG25       0.0492
     41  CD       173.1230  197.6380  134.2880 C.3    25  ARG25       0.2205
     42  NE       171.7040  197.3390  134.2570 N.pl3  25  ARG25      -0.0865
     43  CZ       171.0110  196.9660  135.3290 C.cat  25  ARG25       0.5346
     44  NH1      171.6150  196.8590  136.4980 N.pl3  25  ARG25       0.1354
     45  NH2      169.7210  196.7130  135.2270 N.pl3  25  ARG25       0.1354
     46  N        167.5450  188.3550  134.4480 N.3    49  GLU49      -0.1231
     47  CA       166.2400  187.8860  134.0240 C.3    49  GLU49       0.1684
     48  C        166.2410  187.6650  132.5160 C.2    49  GLU49       0.2434
     49  O        167.1020  188.1950  131.8070 O.2    49  GLU49      -0.2733
     50  CB       165.1620  188.9120  134.4090 C.3    49  GLU49       0.0402
     51  CG       164.9130  189.0470  135.9010 C.3    49  GLU49       0.1161
     52  CD       165.8590  190.0140  136.5820 C.2    49  GLU49       0.3649
     53  OE1      166.7120  190.6040  135.8880 O.co2  49  GLU49      -0.2457
     54  OE2      165.7440  190.1890  137.8130 O.co2  49  GLU49      -0.2457
     55  N        165.3150  186.8580  131.9850 N.am   50  PRO50      -0.2718
     56  CA       165.2090  186.7650  130.5220 C.3    50  PRO50       0.1535
     57  C        164.6740  188.0480  129.9050 C.2    50  PRO50       0.2599
     58  O        163.5010  188.3920  130.0790 O.2    50  PRO50      -0.2715
     59  CB       164.2540  185.5830  130.3110 C.3    50  PRO50       0.0310
     60  CG       163.4940  185.4630  131.5880 C.3    50  PRO50       0.0237
     61  CD       164.4580  185.8630  132.6590 C.3    50  PRO50       0.0939
     62  N        165.5290  188.7670  129.1820 N.am   51  GLY51      -0.1941
     63  CA       165.1220  190.0330  128.6080 C.3    51  GLY51       0.2014
     64  C        165.5690  191.2370  129.4110 C.2    51  GLY51       0.2639
     65  O        164.7590  192.1120  129.7270 O.2    51  GLY51      -0.2714
     66  N        166.8460  191.2910  129.7730 N.am   52  VAL52      -0.1963
     67  CA       167.4080  192.4440  130.4670 C.3    52  VAL52       0.1727
     68  C        168.2570  193.3000  129.5390 C.2    52  VAL52       0.2617
     69  O        168.0520  194.5100  129.4360 O.2    52  VAL52      -0.2715
     70  CB       168.2180  191.9890  131.6990 C.3    52  VAL52       0.0290
     71  CG1      168.9570  193.1630  132.3030 C.3    52  VAL52       0.0023
     72  CG2      167.2940  191.3880  132.7150 C.3    52  VAL52       0.0023
     73  N        169.2000  192.6870  128.8340 N.am   53  GLY53      -0.1940
     74  CA       170.1530  193.4480  128.0540 C.3    53  GLY53       0.2014
     75  C        171.5710  193.1700  128.4950 C.2    53  GLY53       0.2639
     76  O        172.4470  194.0340  128.4050 O.2    53  GLY53      -0.2714
     77  N        171.7850  191.9520  129.0000 N.am   54  LYS54      -0.1963
     78  CA       173.1260  191.4680  129.3050 C.3    54  LYS54       0.1728
     79  C        173.9900  191.4130  128.0550 C.2    54  LYS54       0.2617
     80  O        175.2080  191.6470  128.1220 O.2    54  LYS54      -0.2715
     81  CB       173.0180  190.0920  129.9500 C.3    54  LYS54       0.0311
     82  CG       172.3140  190.1250  131.2900 C.3    54  LYS54       0.0038
     83  CD       172.1770  188.7410  131.8950 C.3    54  LYS54       0.0206
     84  CE       170.7780  188.1860  131.6900 C.3    54  LYS54       0.1093
     85  NZ       170.5210  187.8050  130.2780 N.3    54  LYS54      -0.1314
     86  N        173.3700  191.0810  126.9180 N.am   55  THR55      -0.1937
     87  CA       173.9280  191.3040  125.5920 C.3    55  THR55       0.2028
     88  C        174.4680  192.7190  125.4500 C.2    55  THR55       0.2642
     89  O        175.6490  192.9240  125.1560 O.2    55  THR55      -0.2714
     90  CB       172.8440  191.0500  124.5410 C.3    55  THR55       0.1808
     91  OG1      172.3710  189.7040  124.6500 O.3    55  THR55      -0.2208
     92  CG2      173.3870  191.2830  123.1510 C.3    55  THR55       0.0379
     93  N        173.6090  193.7060  125.7110 N.am   56  ALA56      -0.1963
     94  CA       174.0060  195.1030  125.6100 C.3    56  ALA56       0.1728
     95  C        175.0020  195.5080  126.6870 C.2    56  ALA56       0.2616
     96  O        175.7630  196.4580  126.4730 O.2    56  ALA56      -0.2715
     97  CB       172.7740  196.0030  125.6750 C.3    56  ALA56       0.0334
     98  N        175.0130  194.8130  127.8290 N.am   57  ILE57      -0.1977
     99  CA       176.0730  195.0100  128.8150 C.3    57  ILE57       0.1596
    100  C        177.4220  194.6470  128.2140 C.2    57  ILE57       0.2287
    101  O        178.3950  195.4050  128.3240 O.2    57  ILE57      -0.2864
    102  CB       175.7820  194.1950  130.0900 C.3    57  ILE57       0.0276
    103  CG1      174.5680  194.7580  130.8240 C.3    57  ILE57       0.0022
    104  CG2      176.9900  194.1520  131.0060 C.3    57  ILE57       0.0022
    105  CD1      174.1020  193.8890  131.9690 C.3    57  ILE57       0.0001
    106  N        166.8100  198.3160  135.8520 N.3   162  PRO162     -0.2116
    107  CA       167.1960  199.5960  136.4540 C.3   162  PRO162      0.1372
    108  C        166.0500  200.1940  137.2550 C.2   162  PRO162      0.2244
    109  O        164.9690  199.6190  137.3910 O.2   162  PRO162     -0.2868
    110  CB       167.5470  200.4720  135.2480 C.3   162  PRO162      0.0268
    111  CG       167.8320  199.5160  134.1510 C.3   162  PRO162      0.0207
    112  CD       166.9030  198.3690  134.3840 C.3   162  PRO162      0.0892
    113  N        165.4400  206.7060  129.9130 N.3   170  ILE170     -0.1245
    114  CA       166.2760  206.0830  128.8900 C.3   170  ILE170      0.1561
    115  C        165.5250  205.9780  127.5700 C.2   170  ILE170      0.2260
    116  O        166.1380  205.7030  126.5260 O.2   170  ILE170     -0.2867
    117  CB       166.7640  204.6980  129.3770 C.3   170  ILE170      0.0252
    118  CG1      168.0420  204.2540  128.6660 C.3   170  ILE170      0.0019
    119  CG2      165.7210  203.6330  129.1350 C.3   170  ILE170      0.0019
    120  CD1      168.6570  203.0110  129.2700 C.3   170  ILE170      0.0001
    121  N        162.3960  196.8590  132.1000 N.3   208  PRO208     -0.2102
    122  CA       163.0510  197.5640  130.9830 C.3   208  PRO208      0.1504
    123  C        162.4740  197.2800  129.6090 C.2   208  PRO208      0.2575
    124  O        161.9960  198.1930  128.9350 O.2   208  PRO208     -0.2718
    125  CB       164.4980  197.0560  131.0460 C.3   208  PRO208      0.0282
    126  CG       164.6260  196.3690  132.3320 C.3   208  PRO208      0.0208
    127  CD       163.2860  195.7920  132.5860 C.3   208  PRO208      0.0893
    128  N        162.4800  196.0110  129.2000 N.am  209  ASP209     -0.1974
    129  CA       162.0010  195.6780  127.8640 C.3   209  ASP209      0.1708
    130  C        160.4870  195.6860  127.7970 C.2   209  ASP209      0.2293
    131  O        159.9100  195.9860  126.7470 O.2   209  ASP209     -0.2864
    132  CB       162.5400  194.3160  127.4210 C.3   209  ASP209      0.1436
    133  CG       162.1480  193.1780  128.3630 C.2   209  ASP209      0.3671
    134  OD1      161.6080  193.4290  129.4630 O.co2 209  ASP209     -0.2456
    135  OD2      162.3790  192.0100  127.9870 O.co2 209  ASP209     -0.2456
    136  N        158.9090  198.8760  126.6860 N.3   212  ILE212     -0.1245
    137  CA       158.8400  198.9830  125.2300 C.3   212  ILE212      0.1561
    138  C        157.7820  198.0310  124.6670 C.2   212  ILE212      0.2260
    139  O        157.1130  198.3620  123.6850 O.2   212  ILE212     -0.2867
    140  CB       160.2410  198.7640  124.6040 C.3   212  ILE212      0.0252
    141  CG1      161.1700  199.9400  124.9130 C.3   212  ILE212      0.0019
    142  CG2      160.2070  198.6300  123.0810 C.3   212  ILE212      0.0019
    143  CD1      162.0840  199.7450  126.0810 C.3   212  ILE212      0.0001
@<TRIPOS>BOND
     1     1     2    1
     2     2     5    1
     3     2     3    1
     4    15    14    1
     5    15     9    1
     6     5     6    1
     7    14    13    1
     8     3     9   am
     9     3     4    2
    10     9    10    1
    11     6     7   ar
    12     6     8   ar
    13   142   140    1
    14    92    90    1
    15    13    10    1
    16    10    11    1
    17   139   138    2
    18    90    91    1
    19    90    87    1
    20   140   141    1
    21   140   137    1
    22   138   137    1
    23    11    12    2
    24    11    16   am
    25   141   143    1
    26    89    88    2
    27   137   136    1
    28    16    17    1
    29    88    87    1
    30    88    93   am
    31    87    86    1
    32    94    97    1
    33    94    93    1
    34    94    95    1
    35    21    20    1
    36    22    20    1
    37    96    95    2
    38    17    20    1
    39    17    18    1
    40   116   115    2
    41    95    98   am
    42   131   130    2
    43    86    79   am
    44   132   129    1
    45   132   133    1
    46   115   114    1
    47    18    19    2
    48    18    23   am
    49   130   129    1
    50    98    99    1
    51   129   128    1
    52    30    28    1
    53   135   133   ar
    54    74    75    1
    55    74    73    1
    56    79    80    2
    57    79    78    1
    58    28    27    1
    59   100   101    2
    60   100    99    1
    61   133   134   ar
    62    76    75    2
    63    75    77   am
    64    23    24    1
    65    63    62    1
    66    63    64    1
    67   118   120    1
    68   118   117    1
    69    99   102    1
    70    73    68   am
    71   114   117    1
    72   114   113    1
    73   124   123    2
    74    77    78    1
    75   119   117    1
    76    62    57   am
    77   128   123   am
    78    78    81    1
    79    64    65    2
    80    64    66   am
    81    69    68    2
    82    27    24    1
    83    27    29    1
    84    68    67    1
    85   123   122    1
    86    24    25    1
    87    66    67    1
    88    57    58    2
    89    57    56    1
    90    81    82    1
    91   102   103    1
    92   102   104    1
    93    85    84    1
    94    59    56    1
    95    59    60    1
    96    67    70    1
    97    56    55    1
    98   103   105    1
    99    25    26    2
   100    25    31   am
   101   122   125    1
   102   122   121    1
   103   125   126    1
   104    82    83    1
   105    60    61    1
   106    84    83    1
   107    70    71    1
   108    70    72    1
   109    49    48    2
   110    31    32    1
   111    55    48   am
   112    55    61    1
   113    34    33    2
   114   121   127    1
   115   126   127    1
   116    48    47    1
   117    40    39    1
   118    40    41    1
   119    33    32    1
   120    33    35   am
   121    39    36    1
   122    38    37    2
   123    35    36    1
   124    47    50    1
   125    47    46    1
   126   111   112    1
   127   111   110    1
   128    36    37    1
   129    42    41    1
   130    42    43    2
   131   112   106    1
   132    50    51    1
   133    45    43    1
   134   110   107    1
   135    43    44    1
   136   106   107    1
   137    53    52   ar
   138    51    52    1
   139   107   108    1
   140    52    54   ar
   141   108   109    2
