@<TRIPOS>MOLECULE
tmp/6djuF02.pdb
 142 134 0 0 0
SMALL
GASTEIGER

@<TRIPOS>ATOM
      1  N        167.2850  205.2020  171.5570 N.3   274  ARG274     -0.1231
      2  CA       166.0250  204.5150  171.3280 C.3   274  ARG274      0.1694
      3  C        165.0970  204.5940  172.5350 C.2   274  ARG274      0.2592
      4  O        163.9140  204.9130  172.3860 O.2   274  ARG274     -0.2718
      5  CB       166.2960  203.0590  170.9630 C.3   274  ARG274      0.0321
      6  CG       165.0490  202.2780  170.6540 C.3   274  ARG274      0.0489
      7  CD       164.3910  202.7990  169.3950 C.3   274  ARG274      0.2205
      8  NE       163.2040  202.0250  169.0650 N.pl3 274  ARG274     -0.0865
      9  CZ       163.2240  200.9240  168.3260 C.cat 274  ARG274      0.5346
     10  NH1      164.3730  200.4680  167.8460 N.pl3 274  ARG274      0.1354
     11  NH2      162.0980  200.2720  168.0760 N.pl3 274  ARG274      0.1354
     12  N        165.6130  204.3230  173.7290 N.am  275  VAL275     -0.1966
     13  CA       164.8420  204.3940  174.9650 C.3   275  VAL275      0.1727
     14  C        165.0150  205.7780  175.5710 C.2   275  VAL275      0.2616
     15  O        166.1440  206.2370  175.7780 O.2   275  VAL275     -0.2715
     16  CB       165.2850  203.3070  175.9540 C.3   275  VAL275      0.0290
     17  CG1      164.5990  203.4930  177.2980 C.3   275  VAL275      0.0023
     18  CG2      164.9730  201.9450  175.3880 C.3   275  VAL275      0.0023
     19  N        163.9020  206.4390  175.8690 N.am  276  ILE276     -0.1977
     20  CA       163.9080  207.7910  176.4120 C.3   276  ILE276      0.1596
     21  C        163.7170  207.7180  177.9210 C.2   276  ILE276      0.2287
     22  O        162.8290  207.0100  178.4100 O.2   276  ILE276     -0.2864
     23  CB       162.8180  208.6450  175.7490 C.3   276  ILE276      0.0276
     24  CG1      163.0330  208.6570  174.2380 C.3   276  ILE276      0.0022
     25  CG2      162.8410  210.0610  176.2790 C.3   276  ILE276      0.0022
     26  CD1      164.3720  209.2350  173.8370 C.3   276  ILE276      0.0001
     27  N        153.7460  199.3580  183.5970 N.3   312  THR312     -0.1203
     28  CA       153.5390  198.8080  182.2670 C.3   312  THR312      0.1994
     29  C        153.5470  199.9140  181.2180 C.2   312  THR312      0.2618
     30  O        153.1240  201.0430  181.4760 O.2   312  THR312     -0.2717
     31  CB       152.2190  198.0390  182.1960 C.3   312  THR312      0.1784
     32  OG1      151.1290  198.9360  182.4360 O.3   312  THR312     -0.2211
     33  CG2      152.1970  196.9490  183.2510 C.3   312  THR312      0.0376
     34  N        154.0340  199.5750  180.0240 N.am  313  GLY313     -0.1942
     35  CA       154.1080  200.5360  178.9400 C.3   313  GLY313      0.2014
     36  C        155.2190  201.5530  179.0630 C.2   313  GLY313      0.2639
     37  O        155.2330  202.5360  178.3190 O.2   313  GLY313     -0.2714
     38  N        156.1650  201.3330  179.9710 N.am  314  VAL314     -0.1963
     39  CA       157.1690  202.3450  180.2610 C.3   314  VAL314      0.1727
     40  C        158.2500  202.3670  179.1850 C.2   314  VAL314      0.2617
     41  O        158.8300  203.4210  178.8960 O.2   314  VAL314     -0.2715
     42  CB       157.7490  202.0690  181.6590 C.3   314  VAL314      0.0290
     43  CG1      158.7210  203.1520  182.0990 C.3   314  VAL314      0.0023
     44  CG2      156.6300  201.9070  182.6610 C.3   314  VAL314      0.0023
     45  N        158.4870  201.2430  178.5220 N.am  315  GLY315     -0.1940
     46  CA       159.7040  201.0660  177.7570 C.3   315  GLY315      0.2014
     47  C        160.4570  199.9040  178.3580 C.2   315  GLY315      0.2639
     48  O        161.6890  199.8700  178.3870 O.2   315  GLY315     -0.2714
     49  N        159.6850  198.9460  178.8600 N.am  316  LYS316     -0.1963
     50  CA       160.2110  197.9100  179.7360 C.3   316  LYS316      0.1728
     51  C        160.9480  196.8370  178.9470 C.2   316  LYS316      0.2617
     52  O        162.0700  196.4610  179.3010 O.2   316  LYS316     -0.2715
     53  CB       159.0580  197.3300  180.5480 C.3   316  LYS316      0.0311
     54  CG       159.4300  196.3410  181.6150 C.3   316  LYS316      0.0038
     55  CD       158.2060  196.0580  182.4630 C.3   316  LYS316      0.0206
     56  CE       157.1690  195.3000  181.6510 C.3   316  LYS316      0.1093
     57  NZ       155.9570  194.9510  182.4350 N.3   316  LYS316     -0.1314
     58  N        160.3420  196.3430  177.8700 N.am  317  THR317     -0.1937
     59  CA       161.0440  195.4730  176.9380 C.3   317  THR317      0.2028
     60  C        161.7960  196.2530  175.8750 C.2   317  THR317      0.2642
     61  O        162.5830  195.6580  175.1310 O.2   317  THR317     -0.2714
     62  CB       160.0740  194.5030  176.2500 C.3   317  THR317      0.1808
     63  OG1      160.8220  193.5450  175.4980 O.3   317  THR317     -0.2208
     64  CG2      159.1780  195.2280  175.2850 C.3   317  THR317      0.0379
     65  N        161.5660  197.5630  175.7850 N.am  318  GLU318     -0.1976
     66  CA       162.2550  198.3740  174.7930 C.3   318  GLU318      0.1602
     67  C        163.7200  198.5500  175.1540 C.2   318  GLU318      0.2287
     68  O        164.5650  198.7370  174.2710 O.2   318  GLU318     -0.2864
     69  CB       161.5580  199.7280  174.6670 C.3   318  GLU318      0.0415
     70  CG       162.0270  200.5620  173.5080 C.3   318  GLU318      0.1163
     71  CD       161.6630  199.9420  172.1790 C.2   318  GLU318      0.3649
     72  OE1      160.6220  199.2520  172.0960 O.co2 318  GLU318     -0.2457
     73  OE2      162.4310  200.1270  171.2160 O.co2 318  GLU318     -0.2457
     74  N        156.8820  208.0210  183.3480 N.3   459  LEU459     -0.1245
     75  CA       157.3250  209.0200  182.3880 C.3   459  LEU459      0.1561
     76  C        157.0250  210.4300  182.8770 C.2   459  LEU459      0.2260
     77  O        155.9710  210.6960  183.4610 O.2   459  LEU459     -0.2867
     78  CB       156.6550  208.7820  181.0390 C.3   459  LEU459      0.0270
     79  CG       157.0670  207.4890  180.3440 C.3   459  LEU459      0.0019
     80  CD1      156.2240  207.2570  179.1090 C.3   459  LEU459      0.0001
     81  CD2      158.5360  207.5530  179.9890 C.3   459  LEU459      0.0001
     82  N        159.4100  210.5830  173.0440 N.3   467  ILE467     -0.1245
     83  CA       158.7390  209.3580  172.6190 C.3   467  ILE467      0.1561
     84  C        157.7910  209.6480  171.4610 C.2   467  ILE467      0.2260
     85  O        157.7230  208.8890  170.4830 O.2   467  ILE467     -0.2867
     86  CB       158.0150  208.7180  173.8170 C.3   467  ILE467      0.0252
     87  CG1      159.0360  208.3050  174.8710 C.3   467  ILE467      0.0019
     88  CG2      157.1980  207.5140  173.3930 C.3   467  ILE467      0.0019
     89  CD1      158.4240  207.8730  176.1620 C.3   467  ILE467      0.0001
     90  N        160.0200  210.1150  168.4230 N.3   470  ILE470     -0.1231
     91  CA       160.4600  208.8650  167.8080 C.3   470  ILE470      0.1692
     92  C        159.2930  208.1540  167.1140 C.2   470  ILE470      0.2591
     93  O        159.4920  207.4900  166.0900 O.2   470  ILE470     -0.2718
     94  CB       161.1610  207.9900  168.8670 C.3   470  ILE470      0.0266
     95  CG1      162.4410  208.6790  169.3390 C.3   470  ILE470      0.0019
     96  CG2      161.5560  206.6230  168.3340 C.3   470  ILE470      0.0020
     97  CD1      163.0960  208.0120  170.5230 C.3   470  ILE470      0.0001
     98  N        158.0610  208.3160  167.6120 N.am  471  GLN471     -0.1979
     99  CA       156.8980  207.8240  166.8710 C.3   471  GLN471      0.1601
    100  C        156.7280  208.5520  165.5420 C.2   471  GLN471      0.2287
    101  O        156.4680  207.9250  164.5050 O.2   471  GLN471     -0.2864
    102  CB       155.6320  207.9600  167.7150 C.3   471  GLN471      0.0394
    103  CG       155.5420  206.9560  168.8380 C.3   471  GLN471      0.0908
    104  CD       155.3940  205.5370  168.3130 C.2   471  GLN471      0.2608
    105  OE1      154.6930  205.2970  167.3290 O.2   471  GLN471     -0.2717
    106  NE2      156.0600  204.5910  168.9640 N.am  471  GLN471     -0.0878
    107  N        159.2150  207.1650  163.3000 N.3   474  GLN474     -0.1245
    108  CA       158.7760  205.8760  162.7700 C.3   474  GLN474      0.1566
    109  C        157.8000  206.0480  161.6210 C.2   474  GLN474      0.2260
    110  O        157.8230  205.2660  160.6650 O.2   474  GLN474     -0.2867
    111  CB       158.1290  205.0300  163.8650 C.3   474  GLN474      0.0367
    112  CG       159.0970  204.4340  164.8630 C.3   474  GLN474      0.0905
    113  CD       158.3980  203.5900  165.9100 C.2   474  GLN474      0.2608
    114  OE1      157.1680  203.5400  165.9640 O.2   474  GLN474     -0.2717
    115  NE2      159.1790  202.9090  166.7400 N.am  474  GLN474     -0.0878
    116  N        151.7940  203.4710  177.1080 N.3   507  ALA507     -0.1231
    117  CA       151.7650  204.0190  175.7610 C.3   507  ALA507      0.1694
    118  C        151.3110  203.0180  174.7080 C.2   507  ALA507      0.2591
    119  O        151.5320  203.2680  173.5170 O.2   507  ALA507     -0.2718
    120  CB       153.1440  204.5650  175.3820 C.3   507  ALA507      0.0304
    121  N        150.7140  201.8930  175.1030 N.am  508  ARG508     -0.1980
    122  CA       150.2750  200.8990  174.1230 C.3   508  ARG508      0.1597
    123  C        149.2060  201.3670  173.1260 C.2   508  ARG508      0.2287
    124  O        149.3260  200.9830  171.9500 O.2   508  ARG508     -0.2864
    125  CB       149.8080  199.6240  174.8480 C.3   508  ARG508      0.0334
    126  CG       150.9050  198.8490  175.5320 C.3   508  ARG508      0.0492
    127  CD       151.7700  198.1440  174.5100 C.3   508  ARG508      0.2205
    128  NE       152.8370  197.3800  175.1450 N.pl3 508  ARG508     -0.0865
    129  CZ       152.7130  196.1220  175.5530 C.cat 508  ARG508      0.5346
    130  NH1      151.5590  195.4890  175.3930 N.pl3 508  ARG508      0.1354
    131  NH2      153.7400  195.5020  176.1240 N.pl3 508  ARG508      0.1354
    132  N        150.7100  203.8670  170.0170 N.3   511  ARG511     -0.1245
    133  CA       151.1770  203.3950  168.7200 C.3   511  ARG511      0.1563
    134  C        150.0610  203.4440  167.6880 C.2   511  ARG511      0.2260
    135  O        150.2960  203.8040  166.5280 O.2   511  ARG511     -0.2867
    136  CB       151.7230  201.9730  168.8480 C.3   511  ARG511      0.0307
    137  CG       152.1470  201.3330  167.5340 C.3   511  ARG511      0.0489
    138  CD       153.3340  202.0520  166.9180 C.3   511  ARG511      0.2205
    139  NE       153.7390  201.4430  165.6550 N.pl3 511  ARG511     -0.0865
    140  CZ       154.6070  200.4420  165.5530 C.cat 511  ARG511      0.5346
    141  NH1      154.9140  199.9500  164.3620 N.pl3 511  ARG511      0.1354
    142  NH2      155.1640  199.9280  166.6420 N.pl3 511  ARG511      0.1354
@<TRIPOS>BOND
     1   110   109    2
     2   109   108    1
     3   108   107    1
     4   108   111    1
     5   111   112    1
     6   141   140    1
     7   101   100    2
     8   112   113    1
     9   100    99    1
    10   140   139    2
    11   140   142    1
    12   139   138    1
    13   113   114    2
    14   113   115   am
    15    93    92    2
    16   135   134    2
    17    99    98    1
    18    99   102    1
    19   138   137    1
    20    92    98   am
    21    92    91    1
    22   105   104    2
    23   137   136    1
    24   134   133    1
    25   102   103    1
    26    91    90    1
    27    91    94    1
    28    10     9    1
    29    11     9    1
    30   104   103    1
    31   104   106   am
    32     9     8    2
    33    96    94    1
    34   133   136    1
    35   133   132    1
    36    94    95    1
    37     8     7    1
    38    95    97    1
    39     7     6    1
    40    85    84    2
    41     6     5    1
    42     5     2    1
    43    73    71   ar
    44     2     1    1
    45     2     3    1
    46    84    83    1
    47   124   123    2
    48    72    71   ar
    49    71    70    1
    50     4     3    2
    51     3    12   am
    52    83    82    1
    53    83    86    1
    54   123   122    1
    55    88    86    1
    56    70    69    1
    57   119   118    2
    58    12    13    1
    59    86    87    1
    60    26    24    1
    61   122   125    1
    62   122   121    1
    63    24    23    1
    64    68    67    2
    65   127   128    1
    66   127   126    1
    67    69    66    1
    68   118   121   am
    69   118   117    1
    70    66    67    1
    71    66    65    1
    72   125   126    1
    73    87    89    1
    74    13    14    1
    75    13    16    1
    76    61    60    2
    77   128   129    2
    78    64    62    1
    79   120   117    1
    80    18    16    1
    81   130   129    1
    82    63    62    1
    83   129   131    1
    84    14    15    2
    85    14    19   am
    86    23    25    1
    87    23    20    1
    88   117   116    1
    89    65    60   am
    90    19    20    1
    91    60    59    1
    92    16    17    1
    93    62    59    1
    94    20    21    1
    95    59    58    1
    96    46    47    1
    97    46    45    1
    98    58    51   am
    99    21    22    2
   100    37    36    2
   101    47    48    2
   102    47    49   am
   103    45    40   am
   104    49    50    1
   105    41    40    2
   106    35    36    1
   107    35    34    1
   108    51    52    2
   109    51    50    1
   110    36    38   am
   111    80    79    1
   112    40    39    1
   113    50    53    1
   114    38    39    1
   115    81    79    1
   116    34    29   am
   117    39    42    1
   118    79    78    1
   119    53    54    1
   120    78    75    1
   121    29    30    2
   122    29    28    1
   123    54    55    1
   124    56    57    1
   125    56    55    1
   126    42    43    1
   127    42    44    1
   128    31    28    1
   129    31    32    1
   130    31    33    1
   131    28    27    1
   132    75    76    1
   133    75    74    1
   134    76    77    2
