@<TRIPOS>MOLECULE
tmp/6djvD01.pdb
 192 183 0 0 0
SMALL
GASTEIGER

@<TRIPOS>ATOM
      1  N        194.8080  168.5190  195.6260 N.3   288  ARG288     -0.1231
      2  CA       193.5400  169.2180  195.4830 C.3   288  ARG288      0.1694
      3  C        192.5520  168.8460  196.5730 C.2   288  ARG288      0.2592
      4  O        191.8850  169.7260  197.1220 O.2   288  ARG288     -0.2718
      5  CB       192.9060  168.9560  194.1120 C.3   288  ARG288      0.0321
      6  CG       191.6720  169.8260  193.8850 C.3   288  ARG288      0.0489
      7  CD       191.0210  169.6860  192.5270 C.3   288  ARG288      0.2205
      8  NE       191.8430  170.2490  191.4660 N.pl3 288  ARG288     -0.0865
      9  CZ       192.3310  169.5490  190.4520 C.cat 288  ARG288      0.5346
     10  NH1      192.0630  168.2550  190.3440 N.pl3 288  ARG288      0.1354
     11  NH2      193.0740  170.1450  189.5340 N.pl3 288  ARG288      0.1354
     12  N        192.4690  167.5720  196.9350 N.am  289  VAL289     -0.1966
     13  CA       191.5760  167.1300  197.9980 C.3   289  VAL289      0.1727
     14  C        192.3470  167.1890  199.3090 C.2   289  VAL289      0.2616
     15  O        193.1840  166.3290  199.5930 O.2   289  VAL289     -0.2715
     16  CB       191.0390  165.7240  197.7340 C.3   289  VAL289      0.0290
     17  CG1      190.0810  165.3150  198.8340 C.3   289  VAL289      0.0023
     18  CG2      190.3740  165.6880  196.3900 C.3   289  VAL289      0.0023
     19  N        192.0630  168.2090  200.1030 N.am  290  ILE290     -0.1963
     20  CA       192.6690  168.4160  201.4080 C.3   290  ILE290      0.1727
     21  C        191.6320  168.0580  202.4600 C.2   290  ILE290      0.2617
     22  O        190.4490  168.4100  202.3300 O.2   290  ILE290     -0.2715
     23  CB       193.1670  169.8650  201.5450 C.3   290  ILE290      0.0290
     24  CG1      194.1770  170.1370  200.4350 C.3   290  ILE290      0.0022
     25  CG2      193.8210  170.1060  202.8910 C.3   290  ILE290      0.0023
     26  CD1      194.5300  171.5740  200.2660 C.3   290  ILE290      0.0001
     27  N        192.0830  167.3510  203.4960 N.am  291  GLY291     -0.1940
     28  CA       191.2180  166.5780  204.3570 C.3   291  GLY291      0.2014
     29  C        191.1970  165.1370  203.9010 C.2   291  GLY291      0.2638
     30  O        191.8810  164.7440  202.9510 O.2   291  GLY291     -0.2714
     31  N        190.3960  164.3380  204.6150 N.am  292  GLN292     -0.1977
     32  CA       190.0140  162.9740  204.2350 C.3   292  GLN292      0.1601
     33  C        191.2360  162.0610  204.0830 C.2   292  GLN292      0.2287
     34  O        191.6200  161.6640  202.9850 O.2   292  GLN292     -0.2864
     35  CB       189.1660  162.9830  202.9590 C.3   292  GLN292      0.0394
     36  CG       187.8720  163.7490  203.1010 C.3   292  GLN292      0.0908
     37  CD       186.9660  163.1540  204.1550 C.2   292  GLN292      0.2608
     38  OE1      186.8920  161.9370  204.3160 O.2   292  GLN292     -0.2717
     39  NE2      186.2690  164.0140  204.8820 N.am  292  GLN292     -0.0878
     40  N        177.1750  167.5620  204.3360 N.3   326  THR326     -0.1203
     41  CA       177.2260  168.3680  203.1280 C.3   326  THR326      0.1994
     42  C        178.4240  169.3050  203.1750 C.2   326  THR326      0.2618
     43  O        178.8850  169.6930  204.2500 O.2   326  THR326     -0.2717
     44  CB       175.9440  169.1800  202.9650 C.3   326  THR326      0.1784
     45  OG1      175.7930  170.0530  204.0890 O.3   326  THR326     -0.2211
     46  CG2      174.7460  168.2620  202.8940 C.3   326  THR326      0.0376
     47  N        178.9240  169.6650  201.9970 N.am  327  GLY327     -0.1942
     48  CA       180.0300  170.6000  201.9200 C.3   327  GLY327      0.2014
     49  C        181.3560  170.0450  202.3840 C.2   327  GLY327      0.2639
     50  O        182.2070  170.8020  202.8560 O.2   327  GLY327     -0.2714
     51  N        181.5520  168.7340  202.2720 N.am  328  VAL328     -0.1963
     52  CA       182.8110  168.1050  202.6470 C.3   328  VAL328      0.1727
     53  C        183.6870  167.8580  201.4180 C.2   328  VAL328      0.2617
     54  O        184.9110  167.6960  201.5530 O.2   328  VAL328     -0.2715
     55  CB       182.5100  166.8100  203.4390 C.3   328  VAL328      0.0290
     56  CG1      183.7460  166.1740  204.0610 C.3   328  VAL328      0.0023
     57  CG2      181.4720  167.0970  204.5110 C.3   328  VAL328      0.0023
     58  N        183.1160  167.9170  200.2170 N.am  329  GLY329     -0.1940
     59  CA       183.8940  167.7790  199.0020 C.3   329  GLY329      0.2014
     60  C        183.8560  166.4040  198.3690 C.2   329  GLY329      0.2639
     61  O        184.9040  165.8310  198.0570 O.2   329  GLY329     -0.2714
     62  N        182.6520  165.8650  198.1750 N.am  330  LYS330     -0.1963
     63  CA       182.4910  164.5780  197.5050 C.3   330  LYS330      0.1728
     64  C        182.7120  164.7250  196.0020 C.2   330  LYS330      0.2617
     65  O        183.5410  164.0230  195.4050 O.2   330  LYS330     -0.2715
     66  CB       181.0900  164.0280  197.7820 C.3   330  LYS330      0.0311
     67  CG       180.7250  163.9510  199.2550 C.3   330  LYS330      0.0038
     68  CD       179.3640  163.3340  199.4880 C.3   330  LYS330      0.0206
     69  CE       179.0800  163.2490  200.9650 C.3   330  LYS330      0.1093
     70  NZ       178.9770  164.6070  201.5440 N.3   330  LYS330     -0.1314
     71  N        181.9590  165.6450  195.3850 N.am  331  THR331     -0.1937
     72  CA       182.1000  165.9490  193.9630 C.3   331  THR331      0.2028
     73  C        183.4990  166.4580  193.6490 C.2   331  THR331      0.2642
     74  O        184.0460  166.1780  192.5780 O.2   331  THR331     -0.2714
     75  CB       181.0440  166.9820  193.5640 C.3   331  THR331      0.1808
     76  OG1      179.7480  166.4950  193.9260 O.3   331  THR331     -0.2208
     77  CG2      181.0540  167.2570  192.0690 C.3   331  THR331      0.0379
     78  N        184.1080  167.1700  194.5980 N.am  332  GLU332     -0.1976
     79  CA       185.4760  167.6450  194.4430 C.3   332  GLU332      0.1602
     80  C        186.4690  166.4910  194.3820 C.2   332  GLU332      0.2287
     81  O        187.3870  166.5060  193.5540 O.2   332  GLU332     -0.2864
     82  CB       185.7950  168.6000  195.5890 C.3   332  GLU332      0.0415
     83  CG       187.1150  169.3250  195.5060 C.3   332  GLU332      0.1163
     84  CD       188.2150  168.5980  196.2410 C.2   332  GLU332      0.3649
     85  OE1      187.8910  167.8000  197.1440 O.co2 332  GLU332     -0.2457
     86  OE2      189.3980  168.8460  195.9460 O.co2 332  GLU332     -0.2457
     87  N        174.9010  161.8920  191.3110 N.3   396  ASP396     -0.1225
     88  CA       174.9210  162.8340  192.4200 C.3   396  ASP396      0.1805
     89  C        173.5910  162.8470  193.1580 C.2   396  ASP396      0.2597
     90  O        172.5330  162.9840  192.5390 O.2   396  ASP396     -0.2718
     91  CB       175.2590  164.2370  191.9260 C.3   396  ASP396      0.1424
     92  CG       176.6970  164.3640  191.4880 C.2   396  ASP396      0.3668
     93  OD1      177.5320  163.5630  191.9590 O.co2 396  ASP396     -0.2456
     94  OD2      177.0010  165.2820  190.7000 O.co2 396  ASP396     -0.2456
     95  N        173.6670  162.7410  194.4890 N.am  397  GLU397     -0.1979
     96  CA       172.5390  162.7690  195.4260 C.3   397  GLU397      0.1602
     97  C        171.5210  161.6710  195.1060 C.2   397  GLU397      0.2287
     98  O        170.3780  161.9320  194.7360 O.2   397  GLU397     -0.2864
     99  CB       171.8390  164.1350  195.4680 C.3   397  GLU397      0.0415
    100  CG       172.6680  165.2720  196.0230 C.3   397  GLU397      0.1163
    101  CD       173.3610  166.0680  194.9420 C.2   397  GLU397      0.3649
    102  OE1      173.0470  165.8470  193.7540 O.co2 397  GLU397     -0.2457
    103  OE2      174.2210  166.9090  195.2790 O.co2 397  GLU397     -0.2457
    104  N        177.1970  159.2920  195.0610 N.3   436  THR436     -0.1203
    105  CA       177.2720  160.0030  196.3280 C.3   436  THR436      0.1994
    106  C        175.8920  160.1170  196.9530 C.2   436  THR436      0.2619
    107  O        174.8790  160.1640  196.2560 O.2   436  THR436     -0.2717
    108  CB       177.8550  161.4000  196.1390 C.3   436  THR436      0.1784
    109  OG1      176.9610  162.1870  195.3450 O.3   436  THR436     -0.2211
    110  CG2      179.1900  161.3180  195.4330 C.3   436  THR436      0.0376
    111  N        175.8610  160.1960  198.2780 N.am  437  SER437     -0.1937
    112  CA       174.6060  160.1640  199.0100 C.3   437  SER437      0.2055
    113  C        174.6020  161.2470  200.0790 C.2   437  SER437      0.2643
    114  O        175.5620  162.0050  200.2370 O.2   437  SER437     -0.2714
    115  CB       174.3760  158.7880  199.6320 C.3   437  SER437      0.2130
    116  OG       173.2160  158.7970  200.4310 O.3   437  SER437     -0.2179
    117  N        173.4930  161.3180  200.8200 N.am  438  ASN438     -0.1971
    118  CA       173.3290  162.3210  201.8630 C.3   438  ASN438      0.1688
    119  C        172.6310  161.7430  203.0940 C.2   438  ASN438      0.2292
    120  O        172.0880  162.5060  203.9030 O.2   438  ASN438     -0.2864
    121  CB       172.5510  163.5200  201.3040 C.3   438  ASN438      0.1181
    122  CG       172.7980  164.7960  202.0770 C.2   438  ASN438      0.2629
    123  OD1      173.5680  164.8130  203.0350 O.2   438  ASN438     -0.2716
    124  ND2      172.1380  165.8710  201.6710 N.am  438  ASN438     -0.0877
    125  N        185.3540  168.6880  209.0520 N.3   473  LEU473     -0.1245
    126  CA       186.5480  169.4590  208.7410 C.3   473  LEU473      0.1561
    127  C        187.2610  169.8700  210.0190 C.2   473  LEU473      0.2260
    128  O        186.6310  170.3230  210.9790 O.2   473  LEU473     -0.2867
    129  CB       186.2260  170.6960  207.9000 C.3   473  LEU473      0.0270
    130  CG       185.8440  170.4010  206.4530 C.3   473  LEU473      0.0019
    131  CD1      185.4900  171.6750  205.7320 C.3   473  LEU473      0.0001
    132  CD2      186.9820  169.6860  205.7490 C.3   473  LEU473      0.0001
    133  N        192.2600  175.3770  202.6160 N.3   481  ILE481     -0.1245
    134  CA       191.2810  175.3140  201.5270 C.3   481  ILE481      0.1561
    135  C        191.1290  176.6720  200.8550 C.2   481  ILE481      0.2260
    136  O        191.0510  176.7590  199.6180 O.2   481  ILE481     -0.2867
    137  CB       189.9280  174.7830  202.0550 C.3   481  ILE481      0.0252
    138  CG1      190.0000  173.2910  202.3750 C.3   481  ILE481      0.0019
    139  CG2      188.7860  175.0260  201.0830 C.3   481  ILE481      0.0019
    140  CD1      190.2430  172.9700  203.8180 C.3   481  ILE481      0.0001
    141  N        193.6000  177.3020  198.1800 N.3   484  ILE484     -0.1231
    142  CA       193.2580  176.5910  196.9510 C.3   484  ILE484      0.1692
    143  C        192.3550  177.4470  196.0830 C.2   484  ILE484      0.2591
    144  O        192.6180  177.6220  194.8860 O.2   484  ILE484     -0.2718
    145  CB       192.6050  175.2390  197.2800 C.3   484  ILE484      0.0266
    146  CG1      193.5680  174.3790  198.0910 C.3   484  ILE484      0.0019
    147  CG2      192.1880  174.5260  196.0140 C.3   484  ILE484      0.0020
    148  CD1      194.8670  174.0740  197.3840 C.3   484  ILE484      0.0001
    149  N        191.3360  178.0640  196.6980 N.am  485  GLN485     -0.1979
    150  CA       190.4530  178.9500  195.9480 C.3   485  GLN485      0.1601
    151  C        191.2280  180.1390  195.4170 C.2   485  GLN485      0.2287
    152  O        191.0910  180.5060  194.2410 O.2   485  GLN485     -0.2864
    153  CB       189.2920  179.4180  196.8250 C.3   485  GLN485      0.0394
    154  CG       188.3350  178.3190  197.2380 C.3   485  GLN485      0.0908
    155  CD       187.5690  177.7490  196.0660 C.2   485  GLN485      0.2608
    156  OE1      187.1780  178.4730  195.1520 O.2   485  GLN485     -0.2717
    157  NE2      187.3420  176.4420  196.0910 N.am  485  GLN485     -0.0878
    158  N        181.3090  173.6040  203.8410 N.3   521  ALA521     -0.1231
    159  CA       182.2860  174.5240  203.2720 C.3   521  ALA521      0.1694
    160  C        181.8280  175.1350  201.9580 C.2   521  ALA521      0.2591
    161  O        182.6670  175.5130  201.1320 O.2   521  ALA521     -0.2718
    162  CB       183.6280  173.8170  203.0890 C.3   521  ALA521      0.0304
    163  N        180.5080  175.2400  201.8370 N.am  522  ARG522     -0.1980
    164  CA       179.8360  175.7340  200.6510 C.3   522  ARG522      0.1597
    165  C        179.7120  177.2420  200.4610 C.2   522  ARG522      0.2287
    166  O        179.8490  177.7020  199.3280 O.2   522  ARG522     -0.2864
    167  CB       178.4460  175.0960  200.5390 C.3   522  ARG522      0.0334
    168  CG       178.4440  173.5820  200.6750 C.3   522  ARG522      0.0492
    169  CD       177.1800  172.9760  200.0890 C.3   522  ARG522      0.2205
    170  NE       176.6350  173.7910  199.0070 N.pl3 522  ARG522     -0.0865
    171  CZ       176.2990  173.3170  197.8110 C.cat 522  ARG522      0.5346
    172  NH1      176.4520  172.0280  197.5400 N.pl3 522  ARG522      0.1354
    173  NH2      175.8100  174.1310  196.8860 N.pl3 522  ARG522      0.1354
    174  N        181.7230  179.3530  200.6240 N.3   524  LEU524     -0.1231
    175  CA       183.0530  179.9510  200.6130 C.3   524  LEU524      0.1693
    176  C        183.4010  180.5550  199.2570 C.2   524  LEU524      0.2591
    177  O        184.0030  181.6310  199.2040 O.2   524  LEU524     -0.2718
    178  CB       184.0930  178.9060  201.0280 C.3   524  LEU524      0.0284
    179  CG       185.5040  179.3340  201.4550 C.3   524  LEU524      0.0019
    180  CD1      186.0160  178.3640  202.5000 C.3   524  LEU524      0.0001
    181  CD2      186.4930  179.3930  200.3020 C.3   524  LEU524      0.0001
    182  N        183.0440  179.8790  198.1620 N.am  525  ARG525     -0.1980
    183  CA       183.4230  180.3500  196.8310 C.3   525  ARG525      0.1597
    184  C        182.6990  181.6400  196.4700 C.2   525  ARG525      0.2287
    185  O        183.3090  182.5860  195.9450 O.2   525  ARG525     -0.2864
    186  CB       183.1200  179.2690  195.8010 C.3   525  ARG525      0.0334
    187  CG       183.6140  179.5830  194.4090 C.3   525  ARG525      0.0492
    188  CD       183.2050  178.4870  193.4440 C.3   525  ARG525      0.2205
    189  NE       183.7730  177.1920  193.8050 N.pl3 525  ARG525     -0.0865
    190  CZ       184.9890  176.7820  193.4590 C.cat 525  ARG525      0.5346
    191  NH1      185.7810  177.5670  192.7390 N.pl3 525  ARG525      0.1354
    192  NH2      185.4150  175.5850  193.8330 N.pl3 525  ARG525      0.1354
@<TRIPOS>BOND
     1    11     9    1
     2    10     9    1
     3     9     8    2
     4    94    92   ar
     5    87    88    1
     6     8     7    1
     7    92    91    1
     8    92    93   ar
     9    91    88    1
    10    77    75    1
    11    88    89    1
    12     7     6    1
    13    90    89    2
    14    74    73    2
    15   191   190    1
    16    89    95   am
    17   188   189    1
    18   188   187    1
    19   190   189    2
    20   190   192    1
    21    81    80    2
    22    75    76    1
    23    75    72    1
    24    73    72    1
    25    73    78   am
    26   102   101   ar
    27     6     5    1
    28    72    71    1
    29     5     2    1
    30   152   151    2
    31    80    79    1
    32   187   186    1
    33    79    78    1
    34    79    82    1
    35    95    96    1
    36    98    97    2
    37   144   143    2
    38   101   103   ar
    39   101   100    1
    40   104   105    1
    41    97    96    1
    42   156   155    2
    43   109   108    1
    44    71    64   am
    45    65    64    2
    46   151   150    1
    47    96    99    1
    48   110   108    1
    49    99   100    1
    50     2     1    1
    51     2     3    1
    52    83    82    1
    53    83    84    1
    54   186   183    1
    55   185   184    2
    56    86    84   ar
    57   150   149    1
    58   150   153    1
    59    64    63    1
    60   147   145    1
    61   155   157   am
    62   155   154    1
    63   143   149   am
    64   143   142    1
    65   108   105    1
    66    84    85   ar
    67   107   106    2
    68   105   106    1
    69    18    16    1
    70   184   183    1
    71     3    12   am
    72     3     4    2
    73   153   154    1
    74   183   182    1
    75   173   171    1
    76    12    13    1
    77   142   145    1
    78   142   141    1
    79   106   111   am
    80   145   146    1
    81   148   146    1
    82    63    66    1
    83    63    62    1
    84   172   171    1
    85    16    13    1
    86    16    17    1
    87    66    67    1
    88   171   170    2
    89    13    14    1
    90    61    60    2
    91   182   176   am
    92    62    60   am
    93   111   112    1
    94    60    59    1
    95    59    58    1
    96   170   169    1
    97   112   115    1
    98   112   113    1
    99   177   176    2
   100    67    68    1
   101   176   175    1
   102    14    15    2
   103    14    19   am
   104   166   165    2
   105    68    69    1
   106   136   135    2
   107   115   116    1
   108   113   114    2
   109   113   117   am
   110   169   168    1
   111    19    20    1
   112    58    53   am
   113    26    24    1
   114   181   179    1
   115    24    23    1
   116   165   164    1
   117   167   164    1
   118   167   168    1
   119   175   174    1
   120   175   178    1
   121   164   163    1
   122   117   118    1
   123   135   134    1
   124    69    70    1
   125   178   179    1
   126   139   137    1
   127   161   160    2
   128   121   118    1
   129   121   122    1
   130    20    23    1
   131    20    21    1
   132    53    54    2
   133    53    52    1
   134   179   180    1
   135   134   137    1
   136   134   133    1
   137    23    25    1
   138   124   122   am
   139   163   160   am
   140   118   119    1
   141    48    47    1
   142    48    49    1
   143   160   159    1
   144    47    42   am
   145   137   138    1
   146   122   123    2
   147    51    49   am
   148    51    52    1
   149    22    21    2
   150   138   140    1
   151    49    50    2
   152    21    27   am
   153    52    55    1
   154    46    44    1
   155    30    29    2
   156    35    36    1
   157    35    32    1
   158    44    41    1
   159    44    45    1
   160    34    33    2
   161   162   159    1
   162   119   120    2
   163    36    37    1
   164    41    42    1
   165    41    40    1
   166    42    43    2
   167   159   158    1
   168    55    56    1
   169    55    57    1
   170    27    28    1
   171    29    28    1
   172    29    31   am
   173    33    32    1
   174    37    38    2
   175    37    39   am
   176    32    31    1
   177   131   130    1
   178   132   130    1
   179   130   129    1
   180   129   126    1
   181   126   125    1
   182   126   127    1
   183   127   128    2
