@<TRIPOS>MOLECULE
tmp/6djvC03.pdb
 168 161 0 0 0
SMALL
GASTEIGER

@<TRIPOS>ATOM
      1  N        160.3520  111.7900  137.5040 N.3    20  ASP20      -0.1225
      2  CA       160.1680  110.9650  138.6840 C.3    20  ASP20       0.1790
      3  C        158.7410  110.4290  138.7510 C.2    20  ASP20       0.2440
      4  O        157.8020  111.0960  138.3100 O.2    20  ASP20      -0.2733
      5  CB       160.4830  111.7570  139.9470 C.3    20  ASP20       0.1423
      6  CG       161.9680  112.0020  140.1230 C.2    20  ASP20       0.3668
      7  OD1      162.7700  111.1790  139.6350 O.co2  20  ASP20      -0.2456
      8  OD2      162.3350  113.0080  140.7610 O.co2  20  ASP20      -0.2456
      9  N        158.5580  109.2180  139.2800 N.am   21  PRO21      -0.2718
     10  CA       157.2030  108.6690  139.4170 C.3    21  PRO21       0.1535
     11  C        156.4150  109.4330  140.4670 C.2    21  PRO21       0.2598
     12  O        156.9130  109.7110  141.5590 O.2    21  PRO21      -0.2715
     13  CB       157.4480  107.2180  139.8430 C.3    21  PRO21       0.0310
     14  CG       158.8380  106.9220  139.3970 C.3    21  PRO21       0.0237
     15  CD       159.5850  108.2070  139.5700 C.3    21  PRO21       0.0939
     16  N        155.1790  109.7710  140.1250 N.am   22  VAL22      -0.1964
     17  CA       154.3440  110.6400  140.9430 C.3    22  VAL22       0.1727
     18  C        153.3370  109.7820  141.6860 C.2    22  VAL22       0.2616
     19  O        152.5020  109.1090  141.0720 O.2    22  VAL22      -0.2715
     20  CB       153.6470  111.7000  140.0870 C.3    22  VAL22       0.0290
     21  CG1      152.7050  112.5210  140.9390 C.3    22  VAL22       0.0023
     22  CG2      154.6960  112.5660  139.4380 C.3    22  VAL22       0.0023
     23  N        153.4070  109.8220  143.0080 N.am   23  ILE23      -0.1977
     24  CA       152.7080  108.8870  143.8720 C.3    23  ILE23       0.1596
     25  C        151.6510  109.6490  144.6510 C.2    23  ILE23       0.2287
     26  O        151.9030  110.7590  145.1290 O.2    23  ILE23      -0.2864
     27  CB       153.7150  108.2060  144.8110 C.3    23  ILE23       0.0276
     28  CG1      154.8230  107.5770  143.9820 C.3    23  ILE23       0.0022
     29  CG2      153.0510  107.1320  145.6350 C.3    23  ILE23       0.0022
     30  CD1      156.0100  107.2310  144.7820 C.3    23  ILE23       0.0001
     31  N        147.9570  111.5990  145.4710 N.3    25  ARG25      -0.1245
     32  CA       147.2250  112.7690  144.9790 C.3    25  ARG25       0.1563
     33  C        146.3480  112.4250  143.7770 C.2    25  ARG25       0.2260
     34  O        146.5550  112.9040  142.6640 O.2    25  ARG25      -0.2867
     35  CB       148.1700  113.9250  144.6480 C.3    25  ARG25       0.0307
     36  CG       148.8600  114.4830  145.8510 C.3    25  ARG25       0.0489
     37  CD       149.6530  115.7120  145.4950 C.3    25  ARG25       0.2205
     38  NE       150.3630  116.2190  146.6570 N.pl3  25  ARG25      -0.0865
     39  CZ       149.8210  117.0290  147.5560 C.cat  25  ARG25       0.5346
     40  NH1      148.5590  117.4140  147.4340 N.pl3  25  ARG25       0.1354
     41  NH2      150.5360  117.4470  148.5840 N.pl3  25  ARG25       0.1354
     42  N        155.0870  126.7320  149.1840 N.3    50  PRO50      -0.2102
     43  CA       156.1360  126.1000  148.3700 C.3    50  PRO50       0.1504
     44  C        156.7120  124.8550  149.0260 C.2    50  PRO50       0.2576
     45  O        157.0670  124.8570  150.2040 O.2    50  PRO50      -0.2718
     46  CB       157.1880  127.2010  148.2350 C.3    50  PRO50       0.0282
     47  CG       156.9850  128.0480  149.4090 C.3    50  PRO50       0.0208
     48  CD       155.5270  128.0470  149.6800 C.3    50  PRO50       0.0893
     49  N        156.7860  123.7840  148.2420 N.am   51  GLY51      -0.1943
     50  CA       157.2360  122.4900  148.7050 C.3    51  GLY51       0.2014
     51  C        156.2280  121.3800  148.5140 C.2    51  GLY51       0.2639
     52  O        156.6200  120.2080  148.4640 O.2    51  GLY51      -0.2714
     53  N        154.9430  121.7080  148.3740 N.am   52  VAL52      -0.1963
     54  CA       153.8980  120.6970  148.4670 C.3    52  VAL52       0.1727
     55  C        153.8030  119.8010  147.2420 C.2    52  VAL52       0.2617
     56  O        153.1860  118.7350  147.3120 O.2    52  VAL52      -0.2715
     57  CB       152.5460  121.3690  148.7260 C.3    52  VAL52       0.0290
     58  CG1      152.5820  122.0850  150.0500 C.3    52  VAL52       0.0023
     59  CG2      152.2410  122.3370  147.6220 C.3    52  VAL52       0.0023
     60  N        154.4010  120.1930  146.1290 N.am   53  GLY53      -0.1940
     61  CA       154.2890  119.4420  144.8980 C.3    53  GLY53       0.2014
     62  C        153.2830  120.0990  143.9830 C.2    53  GLY53       0.2639
     63  O        152.0820  119.8580  144.0980 O.2    53  GLY53      -0.2714
     64  N        153.7620  120.9250  143.0600 N.am   54  LYS54      -0.1963
     65  CA       152.9010  121.6030  142.1050 C.3    54  LYS54       0.1728
     66  C        153.4940  121.3630  140.7300 C.2    54  LYS54       0.2617
     67  O        152.7880  121.3500  139.7200 O.2    54  LYS54      -0.2715
     68  CB       152.8120  123.0970  142.4000 C.3    54  LYS54       0.0311
     69  CG       152.3610  123.4520  143.7990 C.3    54  LYS54       0.0038
     70  CD       152.1730  124.9460  143.9370 C.3    54  LYS54       0.0206
     71  CE       153.4840  125.6830  143.8510 C.3    54  LYS54       0.1093
     72  NZ       154.3420  125.3860  145.0120 N.3    54  LYS54      -0.1314
     73  N        154.8110  121.1970  140.6970 N.am   55  THR55      -0.1937
     74  CA       155.5060  120.6960  139.5250 C.3    55  THR55       0.2028
     75  C        155.3640  119.1830  139.4050 C.2    55  THR55       0.2642
     76  O        155.3800  118.6510  138.2900 O.2    55  THR55      -0.2714
     77  CB       156.9790  121.1160  139.6080 C.3    55  THR55       0.1808
     78  OG1      157.0510  122.5310  139.8190 O.3    55  THR55      -0.2208
     79  CG2      157.7370  120.8010  138.3320 C.3    55  THR55       0.0379
     80  N        155.1590  118.4850  140.5250 N.am   56  ALA56      -0.1977
     81  CA       154.9690  117.0410  140.4750 C.3    56  ALA56       0.1597
     82  C        153.6290  116.6620  139.8620 C.2    56  ALA56       0.2287
     83  O        153.5220  115.6190  139.2110 O.2    56  ALA56      -0.2864
     84  CB       155.0900  116.4520  141.8740 C.3    56  ALA56       0.0319
     85  N        153.7220  116.7360  135.9800 N.3    59  GLU59      -0.1245
     86  CA       154.4940  115.6110  135.4720 C.3    59  GLU59       0.1567
     87  C        153.7510  114.2940  135.6590 C.2    59  GLU59       0.2260
     88  O        153.8690  113.3960  134.8210 O.2    59  GLU59      -0.2867
     89  CB       155.8550  115.5790  136.1560 C.3    59  GLU59       0.0388
     90  CG       156.7050  116.7900  135.8090 C.3    59  GLU59       0.1160
     91  CD       158.0100  116.8300  136.5740 C.2    59  GLU59       0.3649
     92  OE1      158.2060  115.9720  137.4580 O.co2  59  GLU59      -0.2457
     93  OE2      158.8350  117.7270  136.3010 O.co2  59  GLU59      -0.2457
     94  N        155.0610  127.7580  133.6630 N.3   120  ASP120     -0.1225
     95  CA       155.4400  127.6310  135.0590 C.3   120  ASP120      0.1805
     96  C        155.7670  129.0000  135.6340 C.2   120  ASP120      0.2597
     97  O        156.4430  129.8050  134.9870 O.2   120  ASP120     -0.2718
     98  CB       156.6420  126.7020  135.1950 C.3   120  ASP120      0.1424
     99  CG       156.9910  126.4150  136.6280 C.2   120  ASP120      0.3668
    100  OD1      156.2620  125.6350  137.2700 O.co2 120  ASP120     -0.2456
    101  OD2      157.9990  126.9630  137.1150 O.co2 120  ASP120     -0.2456
    102  N        155.2790  129.2450  136.8540 N.am  121  GLU121     -0.1979
    103  CA       155.3980  130.5100  137.5840 C.3   121  GLU121      0.1602
    104  C        154.8100  131.6660  136.7690 C.2   121  GLU121      0.2287
    105  O        155.5010  132.5910  136.3460 O.2   121  GLU121     -0.2864
    106  CB       156.8510  130.7940  137.9880 C.3   121  GLU121      0.0415
    107  CG       157.4520  129.7320  138.8920 C.3   121  GLU121      0.1163
    108  CD       156.8080  129.6700  140.2650 C.2   121  GLU121      0.3649
    109  OE1      156.3910  130.7260  140.7800 O.co2 121  GLU121     -0.2457
    110  OE2      156.7220  128.5590  140.8310 O.co2 121  GLU121     -0.2457
    111  N        152.9370  130.2220  143.5280 N.3   156  THR156     -0.1218
    112  CA       152.9560  130.1810  144.9770 C.3   156  THR156      0.1862
    113  C        151.7570  130.9590  145.5200 C.2   156  THR156      0.2287
    114  O        151.1970  131.8230  144.8470 O.2   156  THR156     -0.2866
    115  CB       154.2750  130.7680  145.4790 C.3   156  THR156      0.1770
    116  OG1      155.3360  130.2680  144.6620 O.3   156  THR156     -0.2211
    117  CG2      154.5850  130.3110  146.8830 C.3   156  THR156      0.0375
    118  N        154.8720  107.9010  150.2810 N.3   190  ILE190     -0.1245
    119  CA       155.5920  108.5480  149.1840 C.3   190  ILE190      0.1561
    120  C        157.0580  108.1430  149.1930 C.2   190  ILE190      0.2260
    121  O        157.6320  107.8160  148.1470 O.2   190  ILE190     -0.2867
    122  CB       155.4300  110.0760  149.2480 C.3   190  ILE190      0.0252
    123  CG1      153.9940  110.4730  148.9360 C.3   190  ILE190      0.0019
    124  CG2      156.3520  110.7710  148.2740 C.3   190  ILE190      0.0019
    125  CD1      153.7250  111.9350  149.1500 C.3   190  ILE190      0.0001
    126  N        160.1260  106.4770  146.1230 N.3   194  LEU194     -0.1245
    127  CA       161.3300  107.1530  145.6720 C.3   194  LEU194      0.1561
    128  C        162.5970  106.4520  146.1320 C.2   194  LEU194      0.2260
    129  O        163.6940  106.9670  145.9020 O.2   194  LEU194     -0.2867
    130  CB       161.3330  108.6040  146.1470 C.3   194  LEU194      0.0270
    131  CG       160.2810  109.4940  145.4950 C.3   194  LEU194      0.0019
    132  CD1      160.2640  110.8700  146.1260 C.3   194  LEU194      0.0001
    133  CD2      160.5600  109.5920  144.0150 C.3   194  LEU194      0.0001
    134  N        167.3710  106.8690  144.2540 N.3   198  TYR198     -0.1241
    135  CA       168.5270  107.1920  145.0780 C.3   198  TYR198      0.1605
    136  C        169.4200  105.9860  145.3250 C.2   198  TYR198      0.2264
    137  O        170.5360  106.1510  145.8230 O.2   198  TYR198     -0.2867
    138  CB       168.0620  107.7770  146.4150 C.3   198  TYR198      0.0534
    139  CG       167.3670  109.1140  146.2810 C.ar  198  TYR198     -0.0201
    140  CD1      167.6110  109.9400  145.1930 C.ar  198  TYR198     -0.0009
    141  CD2      166.4260  109.5240  147.2150 C.ar  198  TYR198     -0.0009
    142  CE1      166.9670  111.1480  145.0560 C.ar  198  TYR198      0.0417
    143  CE2      165.7740  110.7320  147.0830 C.ar  198  TYR198      0.0417
    144  CZ       166.0520  111.5380  146.0000 C.ar  198  TYR198      0.1957
    145  OH       165.4140  112.7440  145.8480 O.3   198  TYR198     -0.2866
    146  N        156.2670  117.3320  151.7940 N.3   228  PRO228     -0.2102
    147  CA       156.4740  116.1420  150.9670 C.3   228  PRO228      0.1504
    148  C        157.9440  115.9110  150.6860 C.2   228  PRO228      0.2575
    149  O        158.3320  114.8270  150.2460 O.2   228  PRO228     -0.2718
    150  CB       155.7090  116.4640  149.6810 C.3   228  PRO228      0.0282
    151  CG       154.8180  117.5560  150.0400 C.3   228  PRO228      0.0208
    152  CD       155.5980  118.3730  151.0130 C.3   228  PRO228      0.0893
    153  N        158.7740  116.9190  150.9590 N.am  229  ASP229     -0.1974
    154  CA       160.1620  116.9090  150.5210 C.3   229  ASP229      0.1708
    155  C        161.1670  117.1500  151.6290 C.2   229  ASP229      0.2293
    156  O        162.3520  116.8630  151.4390 O.2   229  ASP229     -0.2864
    157  CB       160.3970  117.9570  149.4200 C.3   229  ASP229      0.1436
    158  CG       160.1080  119.3810  149.8730 C.2   229  ASP229      0.3671
    159  OD1      159.5820  119.5890  150.9830 O.co2 229  ASP229     -0.2456
    160  OD2      160.4220  120.3150  149.1090 O.co2 229  ASP229     -0.2456
    161  N        162.7700  114.1000  152.2780 N.3   232  ILE232     -0.1245
    162  CA       163.5860  113.5410  151.2020 C.3   232  ILE232      0.1561
    163  C        165.0480  113.9300  151.3770 C.2   232  ILE232      0.2260
    164  O        165.9580  113.1000  151.2080 O.2   232  ILE232     -0.2867
    165  CB       163.0360  113.9950  149.8380 C.3   232  ILE232      0.0252
    166  CG1      161.6690  113.3740  149.5730 C.3   232  ILE232      0.0019
    167  CG2      163.9810  113.6620  148.7150 C.3   232  ILE232      0.0019
    168  CD1      160.9860  113.9240  148.3570 C.3   232  ILE232      0.0001
@<TRIPOS>BOND
     1    94    95    1
     2    88    87    2
     3    97    96    2
     4    95    98    1
     5    95    96    1
     6    98    99    1
     7    86    87    1
     8    86    85    1
     9    86    89    1
    10    96   102   am
    11    90    89    1
    12    90    91    1
    13    93    91   ar
    14   105   104    2
    15    91    92   ar
    16    99   101   ar
    17    99   100   ar
    18   104   103    1
    19   102   103    1
    20     1     2    1
    21   103   106    1
    22   106   107    1
    23    76    75    2
    24     4     3    2
    25    79    77    1
    26     2     3    1
    27     2     5    1
    28     3     9   am
    29   107   108    1
    30    83    82    2
    31     9    10    1
    32     9    15    1
    33    14    15    1
    34    14    13    1
    35    75    74    1
    36    75    80   am
    37    10    13    1
    38    10    11    1
    39    22    20    1
    40    74    77    1
    41    74    73    1
    42    77    78    1
    43     7     6   ar
    44    67    66    2
    45    82    81    1
    46     5     6    1
    47    20    21    1
    48    20    17    1
    49     6     8   ar
    50    16    11   am
    51    16    17    1
    52   108   109   ar
    53   108   110   ar
    54    11    12    2
    55    81    80    1
    56    81    84    1
    57    73    66   am
    58    66    65    1
    59    17    18    1
    60    19    18    2
    61    18    23   am
    62    65    68    1
    63    65    64    1
    64    68    69    1
    65    34    33    2
    66    23    24    1
    67    64    62   am
    68   111   112    1
    69    33    32    1
    70    69    70    1
    71    71    70    1
    72    71    72    1
    73    24    25    1
    74    24    27    1
    75    28    30    1
    76    28    27    1
    77    62    63    2
    78    62    61    1
    79   133   131    1
    80   134   135    1
    81    35    32    1
    82    35    36    1
    83    25    26    2
    84   116   115    1
    85    27    29    1
    86   114   113    2
    87    61    60    1
    88   112   115    1
    89   112   113    1
    90    32    31    1
    91   142   140   ar
    92   142   144   ar
    93   135   136    1
    94   135   138    1
    95   140   139   ar
    96   136   137    2
    97   115   117    1
    98   131   132    1
    99   131   130    1
   100    37    36    1
   101    37    38    1
   102   127   126    1
   103   127   128    1
   104   127   130    1
   105   145   144    1
   106   129   128    2
   107   144   143   ar
   108    60    55   am
   109   139   138    1
   110   139   141   ar
   111    38    39    2
   112   143   141   ar
   113    55    56    2
   114    55    54    1
   115    40    39    1
   116    39    41    1
   117    59    57    1
   118   121   120    2
   119    46    43    1
   120    46    47    1
   121    49    50    1
   122    49    44   am
   123   124   122    1
   124   168   166    1
   125    43    44    1
   126    43    42    1
   127    53    54    1
   128    53    51   am
   129    52    51    2
   130    54    57    1
   131    51    50    1
   132   167   165    1
   133    57    58    1
   134   123   125    1
   135   123   122    1
   136    44    45    2
   137   160   158   ar
   138    42    48    1
   139   119   120    1
   140   119   122    1
   141   119   118    1
   142    47    48    1
   143   157   158    1
   144   157   154    1
   145   166   165    1
   146   150   151    1
   147   150   147    1
   148   165   162    1
   149   158   159   ar
   150   151   152    1
   151   149   148    2
   152   154   153    1
   153   154   155    1
   154   148   153   am
   155   148   147    1
   156   147   146    1
   157   152   146    1
   158   162   163    1
   159   162   161    1
   160   164   163    2
   161   156   155    2
