@<TRIPOS>MOLECULE
tmp/6djvC02.pdb
 159 149 0 0 0
SMALL
GASTEIGER

@<TRIPOS>ATOM
      1  N        181.5130  123.3270  190.9080 N.3   341  ARG341     -0.1231
      2  CA       181.2950  124.7590  190.8080 C.3   341  ARG341      0.1694
      3  C        180.1690  125.2520  191.7050 C.2   341  ARG341      0.2592
      4  O        180.1840  126.4230  192.0960 O.2   341  ARG341     -0.2718
      5  CB       181.0130  125.1370  189.3450 C.3   341  ARG341      0.0321
      6  CG       180.9970  126.6170  189.0140 C.3   341  ARG341      0.0489
      7  CD       180.8870  126.8390  187.5170 C.3   341  ARG341      0.2205
      8  NE       182.1030  126.4340  186.8160 N.pl3 341  ARG341     -0.0865
      9  CZ       182.1920  125.3770  186.0150 C.cat 341  ARG341      0.5346
     10  NH1      181.1390  124.5970  185.8220 N.pl3 341  ARG341      0.1354
     11  NH2      183.3390  125.0910  185.4180 N.pl3 341  ARG341      0.1354
     12  N        179.2330  124.3920  192.0910 N.am  342  VAL342     -0.1966
     13  CA       178.1700  124.7290  193.0300 C.3   342  VAL342      0.1727
     14  C        178.3100  123.8170  194.2400 C.2   342  VAL342      0.2616
     15  O        178.3140  122.5880  194.1000 O.2   342  VAL342     -0.2715
     16  CB       176.7840  124.5840  192.3900 C.3   342  VAL342      0.0290
     17  CG1      175.7000  124.7710  193.4260 C.3   342  VAL342      0.0023
     18  CG2      176.6220  125.5910  191.2800 C.3   342  VAL342      0.0023
     19  N        178.4190  124.4130  195.4230 N.am  343  ILE343     -0.1977
     20  CA       178.6260  123.6780  196.6650 C.3   343  ILE343      0.1596
     21  C        177.2960  123.5660  197.3880 C.2   343  ILE343      0.2287
     22  O        176.6490  124.5800  197.6740 O.2   343  ILE343     -0.2864
     23  CB       179.6730  124.3590  197.5600 C.3   343  ILE343      0.0276
     24  CG1      181.0610  124.3050  196.9240 C.3   343  ILE343      0.0022
     25  CG2      179.6880  123.7370  198.9420 C.3   343  ILE343      0.0022
     26  CD1      181.4500  125.5560  196.2100 C.3   343  ILE343      0.0001
     27  N        173.2890  122.4750  198.0640 N.3   345  GLN345     -0.1245
     28  CA       171.9940  122.5720  197.3860 C.3   345  GLN345      0.1566
     29  C        171.7840  121.3810  196.4500 C.2   345  GLN345      0.2260
     30  O        171.6470  121.5210  195.2350 O.2   345  GLN345     -0.2867
     31  CB       171.8520  123.9030  196.6420 C.3   345  GLN345      0.0367
     32  CG       171.9410  125.1310  197.5320 C.3   345  GLN345      0.0905
     33  CD       170.8060  125.2160  198.5310 C.2   345  GLN345      0.2608
     34  OE1      169.6750  124.8330  198.2380 O.2   345  GLN345     -0.2717
     35  NE2      171.0970  125.7390  199.7140 N.am  345  GLN345     -0.0878
     36  N        169.4460  136.1290  199.2820 N.3   379  THR379     -0.1203
     37  CA       170.4140  136.7180  198.3680 C.3   379  THR379      0.1994
     38  C        171.8170  136.1940  198.6270 C.2   379  THR379      0.2618
     39  O        172.1860  135.8830  199.7600 O.2   379  THR379     -0.2717
     40  CB       170.4240  138.2360  198.4930 C.3   379  THR379      0.1784
     41  OG1      170.8160  138.5930  199.8200 O.3   379  THR379     -0.2211
     42  CG2      169.0470  138.7860  198.2190 C.3   379  THR379      0.0376
     43  N        172.6040  136.1240  197.5600 N.am  380  GLY380     -0.1942
     44  CA       173.9670  135.6350  197.6470 C.3   380  GLY380      0.2014
     45  C        174.0830  134.1540  197.9310 C.2   380  GLY380      0.2639
     46  O        174.9220  133.7510  198.7430 O.2   380  GLY380     -0.2714
     47  N        173.2590  133.3310  197.2890 N.am  381  VAL381     -0.1963
     48  CA       173.2520  131.9030  197.5480 C.3   381  VAL381      0.1727
     49  C        173.8190  131.0950  196.3820 C.2   381  VAL381      0.2617
     50  O        174.5040  130.0930  196.6130 O.2   381  VAL381     -0.2715
     51  CB       171.8240  131.4410  197.8960 C.3   381  VAL381      0.0290
     52  CG1      171.7750  129.9700  198.2670 C.3   381  VAL381      0.0023
     53  CG2      171.2950  132.2680  199.0270 C.3   381  VAL381      0.0023
     54  N        173.6030  131.5250  195.1420 N.am  382  GLY382     -0.1940
     55  CA       174.0820  130.7860  193.9930 C.3   382  GLY382      0.2014
     56  C        173.0290  130.4620  192.9580 C.2   382  GLY382      0.2639
     57  O        173.1850  129.5200  192.1820 O.2   382  GLY382     -0.2714
     58  N        171.9610  131.2530  192.9100 N.am  383  LYS383     -0.1963
     59  CA       170.8950  130.9950  191.9430 C.3   383  LYS383      0.1728
     60  C        171.2590  131.4590  190.5390 C.2   383  LYS383      0.2617
     61  O        170.8060  130.8650  189.5640 O.2   383  LYS383     -0.2715
     62  CB       169.6090  131.6440  192.4420 C.3   383  LYS383      0.0311
     63  CG       169.7190  133.1160  192.7060 C.3   383  LYS383      0.0038
     64  CD       168.5290  133.5770  193.4920 C.3   383  LYS383      0.0206
     65  CE       168.6560  133.0490  194.9010 C.3   383  LYS383      0.1093
     66  NZ       167.6130  133.5600  195.8130 N.3   383  LYS383     -0.1314
     67  N        172.0840  132.4900  190.4060 N.am  384  THR384     -0.1937
     68  CA       172.6300  132.8140  189.0970 C.3   384  THR384      0.2028
     69  C        173.8640  131.9700  188.8040 C.2   384  THR384      0.2642
     70  O        174.2010  131.7580  187.6360 O.2   384  THR384     -0.2714
     71  CB       172.9440  134.3190  189.0360 C.3   384  THR384      0.1808
     72  OG1      171.8000  135.0480  189.4910 O.3   384  THR384     -0.2208
     73  CG2      173.2180  134.7830  187.6210 C.3   384  THR384      0.0379
     74  N        174.5030  131.4300  189.8420 N.am  385  GLU385     -0.1976
     75  CA       175.6780  130.5920  189.6370 C.3   385  GLU385      0.1602
     76  C        175.3020  129.2510  189.0250 C.2   385  GLU385      0.2287
     77  O        176.0510  128.7090  188.2080 O.2   385  GLU385     -0.2864
     78  CB       176.4050  130.3890  190.9630 C.3   385  GLU385      0.0415
     79  CG       177.6900  129.5870  190.8690 C.3   385  GLU385      0.1163
     80  CD       178.7860  130.2990  190.1000 C.2   385  GLU385      0.3649
     81  OE1      178.7890  131.5450  190.0660 O.co2 385  GLU385     -0.2457
     82  OE2      179.6590  129.6120  189.5330 O.co2 385  GLU385     -0.2457
     83  N        165.4530  138.3340  187.9460 N.3   450  GLU450     -0.1245
     84  CA       164.7000  139.2320  188.8330 C.3   450  GLU450      0.1567
     85  C        163.2560  139.4280  188.3580 C.2   450  GLU450      0.2260
     86  O        162.8560  140.4990  187.9070 O.2   450  GLU450     -0.2867
     87  CB       165.3890  140.5890  189.0150 C.3   450  GLU450      0.0388
     88  CG       166.6700  140.5550  189.8310 C.3   450  GLU450      0.1160
     89  CD       167.9110  140.5100  188.9710 C.2   450  GLU450      0.3649
     90  OE1      167.7740  140.6980  187.7500 O.co2 450  GLU450     -0.2457
     91  OE2      169.0160  140.2880  189.5100 O.co2 450  GLU450     -0.2457
     92  N        163.7350  136.6620  194.4060 N.3   491  ASN491     -0.1240
     93  CA       164.3030  136.9910  195.7080 C.3   491  ASN491      0.1653
     94  C        163.2750  136.9700  196.8350 C.2   491  ASN491      0.2266
     95  O        163.5260  137.5670  197.8870 O.2   491  ASN491     -0.2867
     96  CB       164.9690  138.3650  195.6850 C.3   491  ASN491      0.1155
     97  CG       166.3140  138.3440  195.0070 C.2   491  ASN491      0.2627
     98  OD1      167.1190  137.4440  195.2360 O.2   491  ASN491     -0.2716
     99  ND2      166.5700  139.3350  194.1620 N.am  491  ASN491     -0.0877
    100  N        173.5770  128.8000  204.1460 N.3   526  LEU526     -0.1245
    101  CA       174.8550  128.1210  203.9920 C.3   526  LEU526      0.1561
    102  C        175.2800  127.5190  205.3250 C.2   526  LEU526      0.2260
    103  O        174.5830  127.6340  206.3380 O.2   526  LEU526     -0.2867
    104  CB       175.9340  129.0720  203.4620 C.3   526  LEU526      0.0270
    105  CG       175.7730  129.5700  202.0290 C.3   526  LEU526      0.0019
    106  CD1      176.8320  130.5900  201.7510 C.3   526  LEU526      0.0001
    107  CD2      175.8760  128.4270  201.0440 C.3   526  LEU526      0.0001
    108  N        184.0160  126.5410  199.6060 N.3   534  ILE534     -0.1245
    109  CA       183.9310  127.6950  198.7170 C.3   534  ILE534      0.1561
    110  C        185.3030  128.3270  198.5330 C.2   534  ILE534      0.2260
    111  O        185.7260  128.5890  197.3960 O.2   534  ILE534     -0.2867
    112  CB       182.9040  128.7110  199.2500 C.3   534  ILE534      0.0252
    113  CG1      181.4960  128.1340  199.1640 C.3   534  ILE534      0.0019
    114  CG2      182.9740  130.0130  198.4930 C.3   534  ILE534      0.0019
    115  CD1      180.4600  128.9860  199.8400 C.3   534  ILE534      0.0001
    116  N        187.9320  127.1450  195.9720 N.3   537  ILE537     -0.1231
    117  CA       187.6130  127.4760  194.5900 C.3   537  ILE537      0.1692
    118  C        188.0030  128.9120  194.2840 C.2   537  ILE537      0.2591
    119  O        188.5740  129.1920  193.2190 O.2   537  ILE537     -0.2718
    120  CB       186.1280  127.1850  194.3190 C.3   537  ILE537      0.0266
    121  CG1      185.9210  125.6720  194.3000 C.3   537  ILE537      0.0019
    122  CG2      185.6480  127.8200  193.0330 C.3   537  ILE537      0.0020
    123  CD1      184.5030  125.2520  194.1830 C.3   537  ILE537      0.0001
    124  N        187.8070  129.8150  195.2550 N.am  538  GLN538     -0.1979
    125  CA       188.2980  131.1800  195.1090 C.3   538  GLN538      0.1601
    126  C        189.8110  131.1860  194.9750 C.2   538  GLN538      0.2287
    127  O        190.3590  131.7840  194.0400 O.2   538  GLN538     -0.2864
    128  CB       187.8710  132.0230  196.3050 C.3   538  GLN538      0.0394
    129  CG       186.3810  132.0930  196.5080 C.3   538  GLN538      0.0908
    130  CD       185.6800  132.7990  195.3800 C.2   538  GLN538      0.2608
    131  OE1      186.1940  133.7700  194.8290 O.2   538  GLN538     -0.2717
    132  NE2      184.4930  132.3220  195.0320 N.am  538  GLN538     -0.0878
    133  N        177.4040  134.2970  200.6540 N.3   574  ALA574     -0.1231
    134  CA       178.8170  134.1000  200.3630 C.3   574  ALA574      0.1694
    135  C        179.4060  135.1960  199.4910 C.2   574  ALA574      0.2591
    136  O        180.4750  134.9990  198.9030 O.2   574  ALA574     -0.2718
    137  CB       179.0380  132.7480  199.6900 C.3   574  ALA574      0.0304
    138  N        178.7330  136.3200  199.3700 N.am  575  ARG575     -0.1980
    139  CA       179.2590  137.4490  198.6110 C.3   575  ARG575      0.1597
    140  C        180.3300  138.2910  199.3250 C.2   575  ARG575      0.2287
    141  O        181.2570  138.7290  198.6360 O.2   575  ARG575     -0.2864
    142  CB       178.0980  138.3280  198.1340 C.3   575  ARG575      0.0334
    143  CG       178.4800  139.3250  197.0620 C.3   575  ARG575      0.0492
    144  CD       177.2620  140.0390  196.5230 C.3   575  ARG575      0.2205
    145  NE       176.3860  139.1650  195.7530 N.pl3 575  ARG575     -0.0865
    146  CZ       176.5140  138.9520  194.4500 C.cat 575  ARG575      0.5346
    147  NH1      177.4750  139.5570  193.7780 N.pl3 575  ARG575      0.1354
    148  NH2      175.6770  138.1480  193.8160 N.pl3 575  ARG575      0.1354
    149  N        184.2020  137.3220  198.5990 N.3   578  ARG578     -0.1245
    150  CA       184.8810  137.8090  197.4060 C.3   578  ARG578      0.1563
    151  C        185.3920  139.2310  197.5630 C.2   578  ARG578      0.2260
    152  O        186.2210  139.6610  196.7560 O.2   578  ARG578     -0.2867
    153  CB       183.9480  137.7160  196.1980 C.3   578  ARG578      0.0307
    154  CG       183.6530  136.2920  195.7670 C.3   578  ARG578      0.0489
    155  CD       182.6220  136.2250  194.6520 C.3   578  ARG578      0.2205
    156  NE       183.0780  136.8540  193.4210 N.pl3 578  ARG578     -0.0865
    157  CZ       182.5400  137.9530  192.9040 C.cat 578  ARG578      0.5346
    158  NH1      181.5170  138.5380  193.5070 N.pl3 578  ARG578      0.1354
    159  NH2      183.0170  138.4610  191.7780 N.pl3 578  ARG578      0.1354
@<TRIPOS>BOND
     1    11     9    1
     2    10     9    1
     3     9     8    2
     4     8     7    1
     5     7     6    1
     6    73    71    1
     7    70    69    2
     8    90    89   ar
     9    86    85    2
    10    83    84    1
    11    77    76    2
    12    85    84    1
    13    69    68    1
    14    69    74   am
    15    84    87    1
    16    89    91   ar
    17    89    88    1
    18     6     5    1
    19    87    88    1
    20    76    75    1
    21    71    68    1
    22    71    72    1
    23    68    67    1
    24     5     2    1
    25    82    80   ar
    26    61    60    2
    27    75    74    1
    28    75    78    1
    29    81    80   ar
    30    80    79    1
    31    67    60   am
    32    60    59    1
    33     2     1    1
    34     2     3    1
    35    79    78    1
    36    18    16    1
    37     3    12   am
    38     3     4    2
    39   159   157    1
    40    59    62    1
    41    59    58    1
    42    12    13    1
    43    57    56    2
    44    16    13    1
    45    16    17    1
    46    62    63    1
    47    63    64    1
    48   157   156    2
    49   157   158    1
    50    58    56   am
    51    56    55    1
    52    13    14    1
    53   122   120    1
    54   119   118    2
    55   156   155    1
    56    64    65    1
    57   147   146    1
    58   148   146    1
    59    55    54    1
    60   127   126    2
    61    15    14    2
    62    99    97   am
    63   123   121    1
    64    14    19   am
    65   118   117    1
    66   118   124   am
    67   121   120    1
    68   120   117    1
    69    92    93    1
    70   146   145    2
    71   117   116    1
    72   155   154    1
    73   131   130    2
    74    65    66    1
    75   126   125    1
    76    97    98    2
    77    97    96    1
    78   132   130   am
    79   125   124    1
    80   125   128    1
    81    54    49   am
    82    30    29    2
    83   130   129    1
    84    19    20    1
    85    96    93    1
    86    93    94    1
    87   145   144    1
    88   154   153    1
    89   153   150    1
    90    26    24    1
    91   128   129    1
    92    49    50    2
    93    49    48    1
    94    29    28    1
    95   144   143    1
    96    31    28    1
    97    31    32    1
    98    20    21    1
    99    20    23    1
   100   152   151    2
   101    94    95    2
   102    24    23    1
   103   143   142    1
   104    47    48    1
   105    47    45   am
   106    28    27    1
   107    21    22    2
   108   111   110    2
   109   150   151    1
   110   150   149    1
   111    32    33    1
   112    48    51    1
   113    43    44    1
   114    43    38   am
   115    23    25    1
   116    44    45    1
   117    51    52    1
   118    51    53    1
   119    45    46    2
   120   142   139    1
   121    42    40    1
   122    34    33    2
   123    37    40    1
   124    37    38    1
   125    37    36    1
   126   114   112    1
   127    40    41    1
   128    33    35   am
   129   110   109    1
   130   139   140    1
   131   139   138    1
   132    38    39    2
   133   141   140    2
   134   109   112    1
   135   109   108    1
   136   136   135    2
   137   113   112    1
   138   113   115    1
   139   138   135   am
   140   135   134    1
   141   137   134    1
   142   134   133    1
   143   107   105    1
   144   106   105    1
   145   105   104    1
   146   104   101    1
   147   101   100    1
   148   101   102    1
   149   102   103    2
