@<TRIPOS>MOLECULE
tmp/6djvD02.pdb
 159 153 0 0 0
SMALL
GASTEIGER

@<TRIPOS>ATOM
      1  N        195.3900  132.0960  150.5060 N.3    20  ASP20      -0.1225
      2  CA       195.8070  132.0700  151.8890 C.3    20  ASP20       0.1790
      3  C        195.6620  130.6620  152.4480 C.2    20  ASP20       0.2440
      4  O        194.5810  130.0670  152.3510 O.2    20  ASP20      -0.2733
      5  CB       194.9950  133.0550  152.7220 C.3    20  ASP20       0.1423
      6  CG       195.3280  134.4930  152.3950 C.2    20  ASP20       0.3668
      7  OD1      196.4730  134.7500  151.9700 O.co2  20  ASP20      -0.2456
      8  OD2      194.4500  135.3630  152.5640 O.co2  20  ASP20      -0.2456
      9  N        196.7110  130.1060  153.0400 N.am   21  PRO21      -0.2718
     10  CA       196.6660  128.7140  153.5060 C.3    21  PRO21       0.1535
     11  C        195.8260  128.5310  154.7590 C.2    21  PRO21       0.2598
     12  O        196.3310  128.7100  155.8720 O.2    21  PRO21      -0.2715
     13  CB       198.1410  128.3880  153.7680 C.3    21  PRO21       0.0310
     14  CG       198.9030  129.3800  152.9500 C.3    21  PRO21       0.0237
     15  CD       198.0870  130.6260  153.0150 C.3    21  PRO21       0.0939
     16  N        194.5300  128.2540  154.5690 N.am   22  VAL22      -0.1964
     17  CA       193.6010  128.0690  155.6780 C.3    22  VAL22       0.1727
     18  C        194.0440  126.9170  156.5910 C.2    22  VAL22       0.2616
     19  O        194.6980  125.9570  156.1600 O.2    22  VAL22      -0.2715
     20  CB       192.1840  127.8430  155.1160 C.3    22  VAL22       0.0290
     21  CG1      192.0640  126.4980  154.4530 C.3    22  VAL22       0.0023
     22  CG2      191.1050  128.0140  156.1730 C.3    22  VAL22       0.0023
     23  N        193.7600  127.0650  157.8830 N.am   23  ILE23      -0.1977
     24  CA       194.0910  126.0810  158.9050 C.3    23  ILE23       0.1596
     25  C        192.8410  125.8300  159.7340 C.2    23  ILE23       0.2287
     26  O        192.2490  126.7750  160.2660 O.2    23  ILE23      -0.2864
     27  CB       195.2440  126.5590  159.8080 C.3    23  ILE23       0.0276
     28  CG1      196.5310  126.7650  159.0090 C.3    23  ILE23       0.0022
     29  CG2      195.4830  125.5710  160.9280 C.3    23  ILE23       0.0022
     30  CD1      197.0770  125.4980  158.3990 C.3    23  ILE23       0.0001
     31  N        188.8890  124.2880  160.6180 N.3    25  ARG25      -0.1245
     32  CA       187.5110  124.2440  160.1190 C.3    25  ARG25       0.1563
     33  C        187.2360  122.9480  159.3520 C.2    25  ARG25       0.2260
     34  O        186.9940  122.9320  158.1480 O.2    25  ARG25      -0.2867
     35  CB       187.1700  125.4750  159.2750 C.3    25  ARG25       0.0307
     36  CG       187.1160  126.7190  160.1070 C.3    25  ARG25       0.0489
     37  CD       186.6020  127.9060  159.3430 C.3    25  ARG25       0.2205
     38  NE       186.6170  129.0880  160.1910 N.pl3  25  ARG25      -0.0865
     39  CZ       185.6440  129.4120  161.0340 C.cat  25  ARG25       0.5346
     40  NH1      184.5750  128.6430  161.1500 N.pl3  25  ARG25       0.1354
     41  NH2      185.7420  130.5050  161.7680 N.pl3  25  ARG25       0.1354
     42  N        179.5790  138.5640  160.2340 N.3    50  PRO50      -0.2102
     43  CA       180.6020  139.0790  159.3130 C.3    50  PRO50       0.1504
     44  C        181.9880  139.1550  159.9280 C.2    50  PRO50       0.2576
     45  O        182.1720  139.6050  161.0600 O.2    50  PRO50      -0.2718
     46  CB       180.0880  140.4790  158.9640 C.3    50  PRO50       0.0282
     47  CG       179.3080  140.8800  160.1390 C.3    50  PRO50       0.0208
     48  CD       178.6630  139.6330  160.6690 C.3    50  PRO50       0.0893
     49  N        182.9680  138.7080  159.1550 N.am   51  GLY51      -0.1943
     50  CA       184.3490  138.7420  159.5610 C.3    51  GLY51       0.2014
     51  C        184.8650  137.4850  160.2100 C.2    51  GLY51       0.2639
     52  O        185.7400  137.5760  161.0740 O.2    51  GLY51      -0.2714
     53  N        184.3600  136.3150  159.8290 N.am   52  VAL52      -0.1963
     54  CA       184.7560  135.0650  160.4670 C.3    52  VAL52       0.1727
     55  C        185.4980  134.1230  159.5390 C.2    52  VAL52       0.2617
     56  O        185.9410  133.0590  159.9960 O.2    52  VAL52      -0.2715
     57  CB       183.5480  134.3340  161.0790 C.3    52  VAL52       0.0290
     58  CG1      182.8940  135.1950  162.1260 C.3    52  VAL52       0.0023
     59  CG2      182.5780  133.9650  159.9960 C.3    52  VAL52       0.0023
     60  N        185.6410  134.4540  158.2610 N.am   53  GLY53      -0.1940
     61  CA       186.3730  133.5880  157.3610 C.3    53  GLY53       0.2014
     62  C        185.5020  132.8330  156.3810 C.2    53  GLY53       0.2639
     63  O        185.7830  131.6770  156.0610 O.2    53  GLY53      -0.2714
     64  N        184.4440  133.4730  155.8880 N.am   54  LYS54      -0.1963
     65  CA       183.5410  132.8140  154.9550 C.3    54  LYS54       0.1728
     66  C        184.1040  132.7300  153.5490 C.2    54  LYS54       0.2617
     67  O        183.5740  131.9780  152.7280 O.2    54  LYS54      -0.2715
     68  CB       182.2090  133.5470  154.9170 C.3    54  LYS54       0.0311
     69  CG       181.4740  133.5030  156.2240 C.3    54  LYS54       0.0038
     70  CD       180.1330  134.1850  156.1210 C.3    54  LYS54       0.0206
     71  CE       180.1950  135.6030  156.6330 C.3    54  LYS54       0.1093
     72  NZ       180.8610  136.5280  155.6810 N.3    54  LYS54      -0.1314
     73  N        185.1470  133.4910  153.2450 N.am   55  THR55      -0.1937
     74  CA       185.8170  133.3840  151.9600 C.3    55  THR55       0.2028
     75  C        186.9540  132.3750  152.0100 C.2    55  THR55       0.2642
     76  O        187.1700  131.6420  151.0380 O.2    55  THR55      -0.2714
     77  CB       186.3310  134.7640  151.5350 C.3    55  THR55       0.1808
     78  OG1      185.2420  135.6930  151.5370 O.3    55  THR55      -0.2208
     79  CG2      186.9160  134.7330  150.1390 C.3    55  THR55       0.0379
     80  N        187.6460  132.2830  153.1510 N.am   56  ALA56      -0.1977
     81  CA       188.7560  131.3520  153.3080 C.3    56  ALA56       0.1597
     82  C        188.3140  129.8950  153.2820 C.2    56  ALA56       0.2287
     83  O        189.1310  129.0240  152.9640 O.2    56  ALA56      -0.2864
     84  CB       189.4990  131.6430  154.6080 C.3    56  ALA56       0.0319
     85  N        179.8200  135.3460  145.6390 N.3   120  ASP120     -0.1225
     86  CA       179.8960  135.9810  146.9440 C.3   120  ASP120      0.1805
     87  C        178.8570  137.0860  147.0290 C.2   120  ASP120      0.2597
     88  O        178.6040  137.7820  146.0410 O.2   120  ASP120     -0.2718
     89  CB       181.2950  136.5450  147.1810 C.3   120  ASP120      0.1424
     90  CG       181.4420  137.1990  148.5400 C.2   120  ASP120      0.3668
     91  OD1      181.4870  136.4770  149.5570 O.co2 120  ASP120     -0.2456
     92  OD2      181.5240  138.4430  148.5860 O.co2 120  ASP120     -0.2456
     93  N        178.2600  137.2320  148.2170 N.am  121  GLU121     -0.1979
     94  CA       177.2080  138.2050  148.5220 C.3   121  GLU121      0.1602
     95  C        176.0230  138.0520  147.5650 C.2   121  GLU121      0.2287
     96  O        175.7300  138.9150  146.7400 O.2   121  GLU121     -0.2864
     97  CB       177.7430  139.6430  148.5100 C.3   121  GLU121      0.0415
     98  CG       178.7180  139.9580  149.6280 C.3   121  GLU121      0.1163
     99  CD       178.0720  139.9460  151.0030 C.2   121  GLU121      0.3649
    100  OE1      176.8730  140.2770  151.1090 O.co2 121  GLU121     -0.2457
    101  OE2      178.7710  139.6160  151.9850 O.co2 121  GLU121     -0.2457
    102  N        176.0720  137.5670  154.6910 N.3   152  THR152     -0.1218
    103  CA       175.9910  138.0150  156.0680 C.3   152  THR152      0.1862
    104  C        174.6130  137.6600  156.6260 C.2   152  THR152      0.2287
    105  O        173.6430  137.5150  155.8850 O.2   152  THR152     -0.2866
    106  CB       176.2450  139.5240  156.1190 C.3   152  THR152      0.1770
    107  OG1      177.3820  139.8270  155.3070 O.3   152  THR152     -0.2211
    108  CG2      176.5850  139.9910  157.5140 C.3   152  THR152      0.0375
    109  N        195.4190  129.4910  164.3530 N.3   186  ILE186     -0.1245
    110  CA       195.2940  130.2050  163.0800 C.3   186  ILE186      0.1561
    111  C        196.4480  131.1850  162.8950 C.2   186  ILE186      0.2260
    112  O        197.0640  131.2520  161.8250 O.2   186  ILE186     -0.2867
    113  CB       193.9320  130.9230  163.0020 C.3   186  ILE186      0.0252
    114  CG1      192.7940  129.9200  162.8440 C.3   186  ILE186      0.0019
    115  CG2      193.8930  131.9230  161.8720 C.3   186  ILE186      0.0019
    116  CD1      191.4280  130.5450  162.9640 C.3   186  ILE186      0.0001
    117  N        199.4960  131.4570  160.0420 N.3   190  LEU190     -0.1245
    118  CA       199.7780  132.5860  159.1630 C.3   190  LEU190      0.1561
    119  C        201.0250  133.3530  159.5670 C.2   190  LEU190      0.2260
    120  O        201.1350  134.5460  159.2610 O.2   190  LEU190     -0.2867
    121  CB       198.5860  133.5410  159.1000 C.3   190  LEU190      0.0270
    122  CG       197.4310  133.2530  158.1390 C.3   190  LEU190      0.0019
    123  CD1      196.5140  132.1600  158.6510 C.3   190  LEU190      0.0001
    124  CD2      196.6510  134.5240  157.8740 C.3   190  LEU190      0.0001
    125  N        203.2860  137.4420  156.6480 N.3   194  TYR194     -0.1241
    126  CA       203.4750  138.7490  157.2590 C.3   194  TYR194      0.1605
    127  C        204.9320  139.0320  157.5890 C.2   194  TYR194      0.2264
    128  O        205.3110  140.2010  157.7010 O.2   194  TYR194     -0.2867
    129  CB       202.6030  138.8590  158.5060 C.3   194  TYR194      0.0534
    130  CG       201.1340  138.9900  158.1800 C.ar  194  TYR194     -0.0201
    131  CD1      200.7250  139.4750  156.9460 C.ar  194  TYR194     -0.0009
    132  CD2      200.1610  138.5900  159.0840 C.ar  194  TYR194     -0.0009
    133  CE1      199.3940  139.5850  156.6320 C.ar  194  TYR194      0.0417
    134  CE2      198.8230  138.6940  158.7760 C.ar  194  TYR194      0.0417
    135  CZ       198.4480  139.1940  157.5470 C.ar  194  TYR194      0.1957
    136  OH       197.1190  139.3070  157.2150 O.3   194  TYR194     -0.2866
    137  N        188.4620  135.9160  164.0200 N.3   224  PRO224     -0.2102
    138  CA       189.6240  135.4480  163.2560 C.3   224  PRO224      0.1504
    139  C        190.4470  136.5820  162.6830 C.2   224  PRO224      0.2575
    140  O        191.5640  136.3540  162.2150 O.2   224  PRO224     -0.2718
    141  CB       189.0050  134.6060  162.1360 C.3   224  PRO224      0.0282
    142  CG       187.6550  134.3300  162.5720 C.3   224  PRO224      0.0208
    143  CD       187.2360  135.5690  163.2960 C.3   224  PRO224      0.0893
    144  N        189.9180  137.8030  162.7090 N.am  225  ASP225     -0.1974
    145  CA       190.5270  138.9110  161.9800 C.3   225  ASP225      0.1708
    146  C        190.6820  140.1860  162.7840 C.2   225  ASP225      0.2293
    147  O        191.4860  141.0390  162.3950 O.2   225  ASP225     -0.2864
    148  CB       189.7300  139.2190  160.7050 C.3   225  ASP225      0.1436
    149  CG       188.2660  139.4830  160.9770 C.2   225  ASP225      0.3671
    150  OD1      187.8370  139.3540  162.1390 O.co2 225  ASP225     -0.2456
    151  OD2      187.5300  139.8060  160.0210 O.co2 225  ASP225     -0.2456
    152  N        194.1670  139.9260  163.6660 N.3   228  ILE228     -0.1245
    153  CA       195.1690  140.0950  162.6150 C.3   228  ILE228      0.1561
    154  C        195.5290  141.5650  162.4260 C.2   228  ILE228      0.2260
    155  O        196.7010  141.9040  162.2140 O.2   228  ILE228     -0.2867
    156  CB       194.6640  139.4450  161.3060 C.3   228  ILE228      0.0252
    157  CG1      194.6200  137.9280  161.4580 C.3   228  ILE228      0.0019
    158  CG2      195.5250  139.7970  160.1100 C.3   228  ILE228      0.0019
    159  CD1      194.0680  137.2150  160.2610 C.3   228  ILE228      0.0001
@<TRIPOS>BOND
     1    85    86    1
     2    88    87    2
     3    96    95    2
     4    86    87    1
     5    86    89    1
     6    87    93   am
     7    89    90    1
     8    95    94    1
     9    93    94    1
    10    97    94    1
    11    97    98    1
    12    90    92   ar
    13    90    91   ar
    14    98    99    1
    15    79    77    1
    16     1     2    1
    17    99   100   ar
    18    99   101   ar
    19    76    75    2
    20    77    78    1
    21    77    74    1
    22     2     3    1
    23     2     5    1
    24    74    75    1
    25    74    73    1
    26     7     6   ar
    27    75    80   am
    28     4     3    2
    29     6     8   ar
    30     6     5    1
    31     3     9   am
    32    67    66    2
    33    14    15    1
    34    14    13    1
    35    83    82    2
    36    15     9    1
    37     9    10    1
    38    80    81    1
    39    73    66   am
    40    82    81    1
    41    81    84    1
    42    10    13    1
    43    10    11    1
    44    66    65    1
    45    21    20    1
    46    16    11   am
    47    16    17    1
    48   102   103    1
    49    11    12    2
    50    68    65    1
    51    68    69    1
    52    65    64    1
    53    20    17    1
    54    20    22    1
    55   107   106    1
    56    17    18    1
    57    72    71    1
    58   105   104    2
    59    64    62   am
    60    63    62    2
    61   103   106    1
    62   103   104    1
    63   106   108    1
    64    70    69    1
    65    70    71    1
    66    19    18    2
    67    62    61    1
    68    18    23   am
    69   133   131   ar
    70   133   135   ar
    71   125   126    1
    72   131   130   ar
    73   136   135    1
    74   126   127    1
    75   126   129    1
    76    61    60    1
    77   135   134   ar
    78   127   128    2
    79   124   122    1
    80    23    24    1
    81   122   123    1
    82   122   121    1
    83    34    33    2
    84   130   129    1
    85   130   132   ar
    86    60    55   am
    87    30    28    1
    88   134   132   ar
    89    24    25    1
    90    24    27    1
    91    46    43    1
    92    46    47    1
    93    28    27    1
    94   121   118    1
    95    49    50    1
    96    49    44   am
    97   118   119    1
    98   118   117    1
    99   120   119    2
   100    35    36    1
   101    35    32    1
   102    43    44    1
   103    43    42    1
   104    37    36    1
   105    37    38    1
   106    33    32    1
   107    55    56    2
   108    55    54    1
   109    50    51    1
   110    25    26    2
   111    27    29    1
   112    53    51   am
   113    53    54    1
   114    44    45    2
   115    59    57    1
   116   151   149   ar
   117   158   156    1
   118    32    31    1
   119    47    48    1
   120    38    39    2
   121    51    52    2
   122    42    48    1
   123   159   157    1
   124    54    57    1
   125   148   149    1
   126   148   145    1
   127   149   150   ar
   128    39    40    1
   129    39    41    1
   130    57    58    1
   131   156   157    1
   132   156   153    1
   133   112   111    2
   134   115   113    1
   135   145   144    1
   136   145   146    1
   137   141   142    1
   138   141   138    1
   139   155   154    2
   140   140   139    2
   141   147   146    2
   142   154   153    1
   143   142   143    1
   144   153   152    1
   145   139   144   am
   146   139   138    1
   147   114   116    1
   148   114   113    1
   149   111   110    1
   150   113   110    1
   151   110   109    1
   152   138   137    1
   153   143   137    1
