@<TRIPOS>MOLECULE
tmp/6djzA01.pdb
 87 83 0 0 0
SMALL
GASTEIGER

@<TRIPOS>ATOM
      1  N         31.1520   54.1410  -27.0130 N.3    22  TRP22      -0.1241
      2  CA        31.2550   52.7320  -27.3720 C.3    22  TRP22       0.1605
      3  C         30.1550   52.3290  -28.3480 C.2    22  TRP22       0.2264
      4  O         30.4160   51.6170  -29.3250 O.2    22  TRP22      -0.2867
      5  CB        31.2120   51.8730  -26.1100 C.3    22  TRP22       0.0550
      6  CG        31.5490   50.4410  -26.3530 C.ar   22  TRP22       0.0003
      7  CD1       32.7970   49.9000  -26.4500 C.ar   22  TRP22       0.0946
      8  CD2       30.6270   49.3580  -26.5310 C.ar   22  TRP22       0.0152
      9  NE1       32.7120   48.5490  -26.6800 N.ar   22  TRP22      -0.2442
     10  CE2       31.3910   48.1910  -26.7340 C.ar   22  TRP22       0.0810
     11  CE3       29.2310   49.2620  -26.5400 C.ar   22  TRP22       0.0012
     12  CZ2       30.8080   46.9450  -26.9430 C.ar   22  TRP22       0.0191
     13  CZ3       28.6540   48.0210  -26.7470 C.ar   22  TRP22       0.0001
     14  CH2       29.4420   46.8800  -26.9440 C.ar   22  TRP22       0.0015
     15  N         31.0250   51.0410  -32.5260 N.3    26  GLN26      -0.1231
     16  CA        30.8370   49.6050  -32.6580 C.3    26  GLN26       0.1698
     17  C         30.5600   49.2420  -34.1110 C.2    26  GLN26       0.2592
     18  O         29.7800   49.9110  -34.7970 O.2    26  GLN26      -0.2718
     19  CB        29.6890   49.1270  -31.7680 C.3    26  GLN26       0.0381
     20  CG        29.2360   47.7270  -31.9440 C.3    26  GLN26       0.0905
     21  CD        27.9580   47.4310  -31.1420 C.2    26  GLN26       0.2608
     22  OE1       27.5010   48.2530  -30.3530 O.2    26  GLN26      -0.2717
     23  NE2       27.4290   46.2590  -31.4060 N.am   26  GLN26      -0.0878
     24  N         31.2130   48.1840  -34.5770 N.am   27  SER27      -0.1952
     25  CA        30.9650   47.6270  -35.8970 C.3    27  SER27       0.1924
     26  C         30.0420   46.4180  -35.7840 C.2    27  SER27       0.2314
     27  O         29.7410   45.9310  -34.6920 O.2    27  SER27      -0.2863
     28  CB        32.2780   47.2340  -36.5770 C.3    27  SER27       0.2116
     29  OG        32.9470   46.2230  -35.8440 O.3    27  SER27      -0.2180
     30  N         29.0000   42.4140  -36.8770 N.3    29  VAL29      -0.1245
     31  CA        29.6250   41.1450  -37.2290 C.3    29  VAL29       0.1561
     32  C         29.2360   40.7280  -38.6420 C.2    29  VAL29       0.2260
     33  O         30.0770   40.2580  -39.4190 O.2    29  VAL29      -0.2867
     34  CB        29.2520   40.0660  -36.1970 C.3    29  VAL29       0.0252
     35  CG1       29.9180   38.7430  -36.5460 C.3    29  VAL29       0.0019
     36  CG2       29.6390   40.5150  -34.7940 C.3    29  VAL29       0.0019
     37  N         23.0370   39.6380  -30.3740 N.3    92  SER92      -0.1202
     38  CA        23.6900   40.6630  -29.5720 C.3    92  SER92       0.2020
     39  C         22.6050   41.6740  -29.2020 C.2    92  SER92       0.2618
     40  O         21.3990   41.4490  -29.3810 O.2    92  SER92      -0.2717
     41  CB        24.8770   41.2940  -30.3350 C.3    92  SER92       0.2103
     42  OG        24.4240   42.2190  -31.3120 O.3    92  SER92      -0.2182
     43  N         23.0280   42.8290  -28.6880 N.am   93  LEU93      -0.1979
     44  CA        22.1130   43.9290  -28.4250 C.3    93  LEU93       0.1596
     45  C         21.7580   44.6990  -29.6830 C.2    93  LEU93       0.2287
     46  O         20.7910   45.4630  -29.6590 O.2    93  LEU93      -0.2864
     47  CB        22.7050   44.8900  -27.3920 C.3    93  LEU93       0.0297
     48  CG        22.8700   44.3090  -25.9900 C.3    93  LEU93       0.0022
     49  CD1       23.4940   45.3250  -25.0560 C.3    93  LEU93       0.0001
     50  CD2       21.5240   43.8370  -25.4730 C.3    93  LEU93       0.0001
     51  N         23.9740   36.2630  -25.9130 N.3   203  LEU203     -0.1245
     52  CA        24.6720   37.3720  -25.2670 C.3   203  LEU203      0.1561
     53  C         25.9360   36.8950  -24.5580 C.2   203  LEU203      0.2260
     54  O         26.9840   37.5480  -24.6320 O.2   203  LEU203     -0.2867
     55  CB        23.7410   38.0760  -24.2830 C.3   203  LEU203      0.0270
     56  CG        22.5690   38.8300  -24.9080 C.3   203  LEU203      0.0019
     57  CD1       21.7160   39.4710  -23.8280 C.3   203  LEU203      0.0001
     58  CD2       23.0790   39.8720  -25.8830 C.3   203  LEU203      0.0001
     59  N         28.6480   36.2430  -27.1390 N.3   206  GLU206     -0.1231
     60  CA        29.2160   37.4740  -27.6780 C.3   206  GLU206      0.1699
     61  C         30.1250   38.1530  -26.6570 C.2   206  GLU206      0.2592
     62  O         31.2020   38.6520  -27.0060 O.2   206  GLU206     -0.2718
     63  CB        28.1000   38.4180  -28.1300 C.3   206  GLU206      0.0402
     64  CG        28.4570   39.2410  -29.3630 C.3   206  GLU206      0.1161
     65  CD        28.7170   38.3760  -30.5900 C.2   206  GLU206      0.3649
     66  OE1       28.2110   37.2310  -30.6440 O.co2 206  GLU206     -0.2457
     67  OE2       29.4260   38.8440  -31.5050 O.co2 206  GLU206     -0.2457
     68  N         29.7220   38.1510  -25.3850 N.am  207  LEU207     -0.1980
     69  CA        30.5350   38.7830  -24.3500 C.3   207  LEU207      0.1596
     70  C         31.8700   38.0630  -24.1820 C.2   207  LEU207      0.2287
     71  O         32.9320   38.6990  -24.1670 O.2   207  LEU207     -0.2864
     72  CB        29.7610   38.8150  -23.0310 C.3   207  LEU207      0.0297
     73  CG        30.4110   39.5530  -21.8580 C.3   207  LEU207      0.0022
     74  CD1       30.6670   41.0070  -22.2180 C.3   207  LEU207      0.0001
     75  CD2       29.5470   39.4490  -20.6070 C.3   207  LEU207      0.0001
     76  N         34.1190   38.7390  -27.1160 N.3   210  TYR210     -0.1241
     77  CA        34.6820   40.0850  -27.0790 C.3   210  TYR210      0.1605
     78  C         35.7630   40.2100  -26.0110 C.2   210  TYR210      0.2264
     79  O         36.6860   41.0180  -26.1600 O.2   210  TYR210     -0.2867
     80  CB        33.5760   41.1130  -26.8400 C.3   210  TYR210      0.0534
     81  CG        34.0400   42.5550  -26.8630 C.ar  210  TYR210     -0.0201
     82  CD1       34.1170   43.2610  -28.0570 C.ar  210  TYR210     -0.0009
     83  CD2       34.3860   43.2140  -25.6890 C.ar  210  TYR210     -0.0009
     84  CE1       34.5320   44.5820  -28.0820 C.ar  210  TYR210      0.0417
     85  CE2       34.8020   44.5320  -25.7040 C.ar  210  TYR210      0.0417
     86  CZ        34.8730   45.2120  -26.9020 C.ar  210  TYR210      0.1957
     87  OH        35.2860   46.5250  -26.9190 O.3   210  TYR210     -0.2866
@<TRIPOS>BOND
     1    33    32    2
     2    32    31    1
     3    31    30    1
     4    31    34    1
     5    28    25    1
     6    28    29    1
     7    35    34    1
     8    34    36    1
     9    25    26    1
    10    25    24    1
    11    26    27    2
    12    18    17    2
    13    24    17   am
    14    17    16    1
    15    16    15    1
    16    16    19    1
    17    20    19    1
    18    20    21    1
    19    67    65   ar
    20    23    21   am
    21    42    41    1
    22    21    22    2
    23    66    65   ar
    24    65    64    1
    25    37    38    1
    26    41    38    1
    27    45    46    2
    28    45    44    1
    29    38    39    1
    30    40    39    2
    31    64    63    1
    32     4     3    2
    33    39    43   am
    34    43    44    1
    35    44    47    1
    36     3     2    1
    37    63    60    1
    38    84    82   ar
    39    84    86   ar
    40    82    81   ar
    41    60    59    1
    42    60    61    1
    43    47    48    1
    44     2     1    1
    45     2     5    1
    46    76    77    1
    47    77    80    1
    48    77    78    1
    49    62    61    2
    50    14    12   ar
    51    14    13   ar
    52    12    10   ar
    53    87    86    1
    54    86    85   ar
    55    81    80    1
    56    81    83   ar
    57    13    11   ar
    58    10     9   ar
    59    10     8   ar
    60     9     7   ar
    61    61    68   am
    62    11     8   ar
    63     8     6   ar
    64     7     6   ar
    65     6     5    1
    66    79    78    2
    67    48    50    1
    68    48    49    1
    69    51    52    1
    70    58    56    1
    71    85    83   ar
    72    68    69    1
    73    52    53    1
    74    52    55    1
    75    56    55    1
    76    56    57    1
    77    54    53    2
    78    69    70    1
    79    69    72    1
    80    70    71    2
    81    72    73    1
    82    74    73    1
    83    73    75    1
