@<TRIPOS>MOLECULE
tmp/6djzB00.pdb
 254 240 0 0 0
SMALL
GASTEIGER

@<TRIPOS>ATOM
      1  N        -14.9070   28.0410  -28.4820 N.3    86  VAL86      -0.1245
      2  CA       -13.6490   27.8770  -27.7620 C.3    86  VAL86       0.1561
      3  C        -12.5920   28.6410  -28.5480 C.2    86  VAL86       0.2260
      4  O        -12.2710   28.2680  -29.6820 O.2    86  VAL86      -0.2867
      5  CB       -13.2370   26.4050  -27.6080 C.3    86  VAL86       0.0252
      6  CG1      -11.8960   26.3040  -26.8940 C.3    86  VAL86       0.0019
      7  CG2      -14.3050   25.6150  -26.8650 C.3    86  VAL86       0.0019
      8  N         -6.3310   29.6370  -32.0740 N.3    91  TRP91      -0.1241
      9  CA        -7.3010   28.9060  -32.8740 C.3    91  TRP91       0.1605
     10  C         -8.6940   29.0460  -32.2710 C.2    91  TRP91       0.2264
     11  O         -8.8660   29.4830  -31.1270 O.2    91  TRP91      -0.2867
     12  CB        -6.9260   27.4220  -33.0040 C.3    91  TRP91       0.0550
     13  CG        -6.6300   26.7300  -31.7060 C.ar   91  TRP91       0.0003
     14  CD1       -5.3970   26.4590  -31.1870 C.ar   91  TRP91       0.0946
     15  CD2       -7.5820   26.2100  -30.7680 C.ar   91  TRP91       0.0152
     16  NE1       -5.5210   25.8060  -29.9840 N.ar   91  TRP91      -0.2442
     17  CE2       -6.8510   25.6410  -29.7040 C.ar   91  TRP91       0.0810
     18  CE3       -8.9780   26.1710  -30.7210 C.ar   91  TRP91       0.0012
     19  CZ2       -7.4680   25.0430  -28.6080 C.ar   91  TRP91       0.0191
     20  CZ3       -9.5900   25.5750  -29.6270 C.ar   91  TRP91       0.0001
     21  CH2       -8.8350   25.0200  -28.5880 C.ar   91  TRP91       0.0015
     22  N        -17.0610   23.3190  -28.8140 N.3    95  MET95      -0.1245
     23  CA       -17.0890   22.1360  -27.9760 C.3    95  MET95       0.1570
     24  C        -18.5020   21.9020  -27.4590 C.2    95  MET95       0.2261
     25  O        -19.3250   22.8190  -27.3700 O.2    95  MET95      -0.2867
     26  CB       -16.1260   22.2520  -26.7860 C.3    95  MET95       0.0387
     27  CG       -16.6780   23.0860  -25.6410 C.3    95  MET95       0.0595
     28  SD       -15.9670   22.6670  -24.0410 S.3    95  MET95      -0.1393
     29  CE       -17.1910   23.3650  -22.9350 C.3    95  MET95       0.0692
     30  N        -19.6250   19.6630  -24.1090 N.3    97  LEU97      -0.1245
     31  CA       -19.0670   18.9030  -22.9970 C.3    97  LEU97       0.1561
     32  C        -20.0280   17.7920  -22.5900 C.2    97  LEU97       0.2260
     33  O        -21.1820   18.0620  -22.2390 O.2    97  LEU97      -0.2867
     34  CB       -18.7900   19.8390  -21.8250 C.3    97  LEU97       0.0270
     35  CG       -18.0050   19.2970  -20.6350 C.3    97  LEU97       0.0019
     36  CD1      -16.6640   18.7520  -21.0890 C.3    97  LEU97       0.0001
     37  CD2      -17.8180   20.4070  -19.6140 C.3    97  LEU97       0.0001
     38  N        -17.4850   15.8130  -17.2560 N.3   100  ALA100     -0.1245
     39  CA       -16.5330   16.7620  -16.6900 C.3   100  ALA100      0.1562
     40  C        -16.3430   16.4660  -15.2130 C.2   100  ALA100      0.2260
     41  O        -17.3120   16.4780  -14.4480 O.2   100  ALA100     -0.2867
     42  CB       -17.0080   18.2030  -16.8890 C.3   100  ALA100      0.0290
     43  N        -12.3130   14.5310  -18.4140 N.3   105  TYR105     -0.1241
     44  CA       -13.3420   15.2190  -19.1830 C.3   105  TYR105      0.1605
     45  C        -13.4620   14.5800  -20.5570 C.2   105  TYR105      0.2264
     46  O        -12.4920   14.0450  -21.0970 O.2   105  TYR105     -0.2867
     47  CB       -13.0600   16.7200  -19.3140 C.3   105  TYR105      0.0534
     48  CG       -12.0110   17.0760  -20.3400 C.ar  105  TYR105     -0.0201
     49  CD1      -12.3670   17.4300  -21.6350 C.ar  105  TYR105     -0.0009
     50  CD2      -10.6660   17.0720  -20.0110 C.ar  105  TYR105     -0.0009
     51  CE1      -11.4120   17.7600  -22.5710 C.ar  105  TYR105      0.0417
     52  CE2       -9.7040   17.4010  -20.9410 C.ar  105  TYR105      0.0417
     53  CZ       -10.0820   17.7440  -22.2180 C.ar  105  TYR105      0.1957
     54  OH        -9.1220   18.0680  -23.1440 O.3   105  TYR105     -0.2866
     55  N        -15.5220   15.4860  -24.4230 N.3   107  LEU107     -0.1245
     56  CA       -16.3160   16.4590  -25.1630 C.3   107  LEU107      0.1561
     57  C        -16.2440   16.1860  -26.6580 C.2   107  LEU107      0.2260
     58  O        -15.3630   15.4740  -27.1430 O.2   107  LEU107     -0.2867
     59  CB       -15.8670   17.8920  -24.8680 C.3   107  LEU107      0.0270
     60  CG       -14.3780   18.2230  -24.9380 C.3   107  LEU107      0.0019
     61  CD1      -13.9340   18.5400  -26.3560 C.3   107  LEU107      0.0001
     62  CD2      -14.0990   19.3870  -24.0290 C.3   107  LEU107      0.0001
     63  N        -15.5240   18.0740  -30.0000 N.3   109  PHE109     -0.1241
     64  CA       -14.8750   19.2960  -30.4460 C.3   109  PHE109      0.1605
     65  C        -14.7760   19.3180  -31.9660 C.2   109  PHE109      0.2264
     66  O        -14.8130   18.2760  -32.6280 O.2   109  PHE109     -0.2867
     67  CB       -13.4810   19.4360  -29.8210 C.3   109  PHE109      0.0534
     68  CG       -12.7500   20.6680  -30.2520 C.ar  109  PHE109     -0.0203
     69  CD1      -13.1110   21.9080  -29.7570 C.ar  109  PHE109     -0.0042
     70  CD2      -11.7080   20.5900  -31.1620 C.ar  109  PHE109     -0.0042
     71  CE1      -12.4480   23.0490  -30.1570 C.ar  109  PHE109     -0.0003
     72  CE2      -11.0390   21.7270  -31.5650 C.ar  109  PHE109     -0.0003
     73  CZ       -11.4100   22.9580  -31.0620 C.ar  109  PHE109     -0.0000
     74  N         -1.2050   24.2700  -29.5000 N.3   119  SER119     -0.1217
     75  CA        -1.9500   23.2290  -28.7970 C.3   119  SER119      0.1889
     76  C         -2.1130   23.5630  -27.3200 C.2   119  SER119      0.2288
     77  O         -3.1920   23.3670  -26.7480 O.2   119  SER119     -0.2866
     78  CB        -1.2510   21.8810  -28.9570 C.3   119  SER119      0.2089
     79  OG         0.0030   21.8820  -28.2990 O.3   119  SER119     -0.2183
     80  N         -0.4870   21.3500  -21.1460 N.3   122  TYR122     -0.1241
     81  CA        -1.4010   21.0070  -20.0710 C.3   122  TYR122      0.1605
     82  C         -0.7240   20.0730  -19.0800 C.2   122  TYR122      0.2264
     83  O          0.2030   19.3340  -19.4210 O.2   122  TYR122     -0.2867
     84  CB        -2.6650   20.3320  -20.6070 C.3   122  TYR122      0.0534
     85  CG        -3.2650   21.0000  -21.8150 C.ar  122  TYR122     -0.0201
     86  CD1       -4.0920   22.1080  -21.6830 C.ar  122  TYR122     -0.0009
     87  CD2       -3.0170   20.5140  -23.0900 C.ar  122  TYR122     -0.0009
     88  CE1       -4.6510   22.7160  -22.7880 C.ar  122  TYR122      0.0417
     89  CE2       -3.5680   21.1160  -24.2030 C.ar  122  TYR122      0.0417
     90  CZ        -4.3840   22.2160  -24.0450 C.ar  122  TYR122      0.1957
     91  OH        -4.9370   22.8170  -25.1480 O.3   122  TYR122     -0.2866
     92  N         -4.1930   14.3030  -23.3280 N.3   126  ILE126     -0.1245
     93  CA        -5.3620   14.5280  -24.1700 C.3   126  ILE126      0.1561
     94  C         -5.3800   13.4910  -25.2850 C.2   126  ILE126      0.2260
     95  O         -4.3320   13.0660  -25.7800 O.2   126  ILE126     -0.2867
     96  CB        -5.3690   15.9580  -24.7490 C.3   126  ILE126      0.0252
     97  CG1       -5.0690   16.9790  -23.6500 C.3   126  ILE126      0.0019
     98  CG2       -6.7020   16.2700  -25.4020 C.3   126  ILE126      0.0019
     99  CD1       -6.0930   16.9800  -22.5290 C.3   126  ILE126      0.0001
    100  N         -7.6070   12.7130  -28.9690 N.3   128  ASP128     -0.1239
    101  CA        -8.5680   13.2300  -29.9390 C.3   128  ASP128      0.1674
    102  C         -8.7840   12.1780  -31.0180 C.2   128  ASP128      0.2266
    103  O         -7.8600   11.8590  -31.7710 O.2   128  ASP128     -0.2867
    104  CB        -8.0750   14.5440  -30.5450 C.3   128  ASP128      0.1410
    105  CG        -8.3000   15.7320  -29.6300 C.2   128  ASP128      0.3668
    106  OD1       -9.4440   16.2270  -29.5780 O.co2 128  ASP128     -0.2456
    107  OD2       -7.3380   16.1630  -28.9610 O.co2 128  ASP128     -0.2456
    108  N         -6.5060   16.3770  -39.3250 N.3   135  PHE135     -0.1241
    109  CA        -5.8060   16.9640  -38.1850 C.3   135  PHE135      0.1605
    110  C         -4.3170   17.0040  -38.4940 C.2   135  PHE135      0.2264
    111  O         -3.6920   15.9540  -38.6520 O.2   135  PHE135     -0.2867
    112  CB        -6.0690   16.1530  -36.9120 C.3   135  PHE135      0.0534
    113  CG        -5.5310   16.7810  -35.6570 C.ar  135  PHE135     -0.0203
    114  CD1       -4.1910   16.6650  -35.3220 C.ar  135  PHE135     -0.0042
    115  CD2       -6.3720   17.4620  -34.7940 C.ar  135  PHE135     -0.0042
    116  CE1       -3.6970   17.2350  -34.1630 C.ar  135  PHE135     -0.0003
    117  CE2       -5.8840   18.0300  -33.6300 C.ar  135  PHE135     -0.0003
    118  CZ        -4.5460   17.9190  -33.3150 C.ar  135  PHE135     -0.0000
    119  N         -0.6040   17.9590  -37.1860 N.3   137  GLN137     -0.1245
    120  CA         0.1730   18.1770  -35.9760 C.3   137  GLN137      0.1566
    121  C          1.6290   18.3980  -36.3550 C.2   137  GLN137      0.2260
    122  O          2.1740   17.6760  -37.1970 O.2   137  GLN137     -0.2867
    123  CB         0.0400   16.9900  -35.0160 C.3   137  GLN137      0.0367
    124  CG         0.6690   17.2120  -33.6520 C.3   137  GLN137      0.0905
    125  CD         0.7270   15.9420  -32.8300 C.2   137  GLN137      0.2608
    126  OE1        0.8270   14.8400  -33.3750 O.2   137  GLN137     -0.2717
    127  NE2        0.6600   16.0870  -31.5090 N.am  137  GLN137     -0.0878
    128  N         -5.1500   10.9980  -32.1100 N.3   154  VAL154     -0.1231
    129  CA        -3.9440   11.7540  -31.8040 C.3   154  VAL154      0.1692
    130  C         -3.8260   11.8680  -30.2910 C.2   154  VAL154      0.2592
    131  O         -4.7820   12.2680  -29.6120 O.2   154  VAL154     -0.2718
    132  CB        -3.9750   13.1440  -32.4610 C.3   154  VAL154      0.0266
    133  CG1       -2.5790   13.7280  -32.5230 C.3   154  VAL154      0.0020
    134  CG2       -4.5890   13.0590  -33.8470 C.3   154  VAL154      0.0020
    135  N         -2.6580   11.5130  -29.7640 N.am  155  VAL155     -0.1966
    136  CA        -2.3970   11.5130  -28.3300 C.3   155  VAL155      0.1727
    137  C         -1.4310   12.6460  -28.0130 C.2   155  VAL155      0.2616
    138  O         -0.3680   12.7610  -28.6360 O.2   155  VAL155     -0.2715
    139  CB        -1.8370   10.1600  -27.8600 C.3   155  VAL155      0.0290
    140  CG1       -1.6170   10.1710  -26.3560 C.3   155  VAL155      0.0023
    141  CG2       -2.7770    9.0340  -28.2590 C.3   155  VAL155      0.0023
    142  N         -1.8010   13.4790  -27.0440 N.am  156  HIS156     -0.1973
    143  CA        -1.0220   14.6370  -26.6230 C.3   156  HIS156      0.1656
    144  C         -0.6080   14.4110  -25.1750 C.2   156  HIS156      0.2291
    145  O         -1.4460   14.4770  -24.2670 O.2   156  HIS156     -0.2864
    146  CB        -1.8440   15.9170  -26.7720 C.3   156  HIS156      0.0771
    147  CG        -1.0360   17.1750  -26.6950 C.ar  156  HIS156      0.0820
    148  ND1       -0.0110   17.4540  -27.5730 N.ar  156  HIS156     -0.2267
    149  CD2       -1.1130   18.2360  -25.8570 C.ar  156  HIS156      0.1154
    150  CE1        0.5140   18.6280  -27.2740 C.ar  156  HIS156      0.1986
    151  NE2       -0.1360   19.1240  -26.2360 N.ar  156  HIS156     -0.2212
    152  N          2.6310   21.4190  -29.3710 N.3   162  THR162     -0.1218
    153  CA         2.6390   21.2300  -30.8140 C.3   162  THR162      0.1862
    154  C          1.8700   22.3650  -31.4730 C.2   162  THR162      0.2287
    155  O          1.0500   23.0370  -30.8420 O.2   162  THR162     -0.2866
    156  CB         2.0210   19.8820  -31.2260 C.3   162  THR162      0.1770
    157  OG1        0.6360   19.8510  -30.8570 O.3   162  THR162     -0.2211
    158  CG2        2.7450   18.7200  -30.5540 C.3   162  THR162      0.0375
    159  N         -0.9380   23.1380  -34.3910 N.3   164  VAL164     -0.1245
    160  CA        -2.0750   22.3520  -34.8470 C.3   164  VAL164      0.1561
    161  C         -2.8270   23.0840  -35.9470 C.2   164  VAL164      0.2260
    162  O         -2.8930   24.3190  -35.9760 O.2   164  VAL164     -0.2867
    163  CB        -3.0230   22.0110  -33.6820 C.3   164  VAL164      0.0252
    164  CG1       -2.3580   21.0290  -32.7570 C.3   164  VAL164      0.0019
    165  CG2       -3.4010   23.2740  -32.9300 C.3   164  VAL164      0.0019
    166  N         -6.6090   22.3730  -38.0740 N.3   166  TRP166     -0.1241
    167  CA        -7.8110   21.6390  -38.4400 C.3   166  TRP166      0.1605
    168  C         -8.3180   22.1490  -39.7810 C.2   166  TRP166      0.2264
    169  O         -8.4950   23.3600  -39.9650 O.2   166  TRP166     -0.2867
    170  CB        -8.9010   21.7940  -37.3810 C.3   166  TRP166      0.0550
    171  CG        -8.5050   21.3390  -36.0180 C.ar  166  TRP166      0.0003
    172  CD1       -8.5820   20.0730  -35.5210 C.ar  166  TRP166      0.0946
    173  CD2       -7.9910   22.1540  -34.9610 C.ar  166  TRP166      0.0152
    174  NE1       -8.1410   20.0480  -34.2220 N.ar  166  TRP166     -0.2442
    175  CE2       -7.7690   21.3140  -33.8550 C.ar  166  TRP166      0.0810
    176  CE3       -7.6940   23.5130  -34.8440 C.ar  166  TRP166      0.0012
    177  CZ2       -7.2600   21.7870  -32.6470 C.ar  166  TRP166      0.0191
    178  CZ3       -7.1890   23.9810  -33.6430 C.ar  166  TRP166      0.0001
    179  CH2       -6.9780   23.1210  -32.5610 C.ar  166  TRP166      0.0015
    180  N        -14.3510   15.7140  -33.9180 N.3   172  MET172     -0.1245
    181  CA       -13.6750   14.6750  -33.1590 C.3   172  MET172      0.1570
    182  C        -14.2820   14.6080  -31.7630 C.2   172  MET172      0.2261
    183  O        -14.9060   15.5620  -31.2930 O.2   172  MET172     -0.2867
    184  CB       -12.1740   14.9620  -33.0710 C.3   172  MET172      0.0387
    185  CG       -11.8670   16.2800  -32.3700 C.3   172  MET172      0.0595
    186  SD       -10.1950   16.8990  -32.6470 S.3   172  MET172     -0.1393
    187  CE       -10.2230   17.1550  -34.4190 C.3   172  MET172      0.0692
    188  N        -13.0600   13.8690  -27.6960 N.3   174  GLU174     -0.1245
    189  CA       -11.8370   14.1800  -26.9740 C.3   174  GLU174      0.1567
    190  C        -11.9810   13.7550  -25.5250 C.2   174  GLU174      0.2260
    191  O        -13.0160   14.0110  -24.8960 O.2   174  GLU174     -0.2867
    192  CB       -11.5100   15.6740  -27.0590 C.3   174  GLU174      0.0388
    193  CG       -10.1200   16.0240  -26.5640 C.3   174  GLU174      0.1160
    194  CD        -9.9180   17.5150  -26.4030 C.2   174  GLU174      0.3649
    195  OE1       -9.8360   17.9690  -25.2450 O.co2 174  GLU174     -0.2457
    196  OE2       -9.8540   18.2320  -27.4260 O.co2 174  GLU174     -0.2457
    197  N         -7.6920   19.1230  -14.7140 N.3   180  ILE180     -0.1245
    198  CA        -8.6130   19.7420  -15.6680 C.3   180  ILE180      0.1561
    199  C         -8.7170   21.2590  -15.4810 C.2   180  ILE180      0.2260
    200  O         -8.7020   21.9930  -16.4910 O.2   180  ILE180     -0.2867
    201  CB        -9.9670   19.0400  -15.6380 C.3   180  ILE180      0.0252
    202  CG1       -9.8010   17.5160  -15.7650 C.3   180  ILE180      0.0019
    203  CG2      -10.8680   19.5440  -16.7740 C.3   180  ILE180      0.0019
    204  CD1       -8.9650   17.0690  -16.9820 C.3   180  ILE180      0.0001
    205  N         -6.1790   23.1570  -17.4000 N.3   183  THR183     -0.1203
    206  CA        -6.4310   23.1960  -18.8390 C.3   183  THR183      0.1994
    207  C         -7.5520   24.1690  -19.1760 C.2   183  THR183      0.2617
    208  O         -7.5260   24.8160  -20.2320 O.2   183  THR183     -0.2717
    209  CB        -6.7740   21.8000  -19.3600 C.3   183  THR183      0.1784
    210  OG1       -8.0960   21.4470  -18.9360 O.3   183  THR183     -0.2211
    211  CG2       -5.7910   20.7790  -18.8250 C.3   183  THR183      0.0376
    212  N         -8.5530   24.2660  -18.2980 N.am  184  LEU184     -0.1979
    213  CA        -9.5730   25.2970  -18.4550 C.3   184  LEU184      0.1596
    214  C         -8.9580   26.6890  -18.4010 C.2   184  LEU184      0.2287
    215  O         -9.4530   27.6170  -19.0540 O.2   184  LEU184     -0.2864
    216  CB       -10.6450   25.1430  -17.3740 C.3   184  LEU184      0.0297
    217  CG       -11.7820   26.1640  -17.3480 C.3   184  LEU184      0.0022
    218  CD1      -12.6050   26.0980  -18.6270 C.3   184  LEU184      0.0001
    219  CD2      -12.6590   25.9500  -16.1260 C.3   184  LEU184      0.0001
    220  N         -6.1290   27.5330  -19.7090 N.3   186  PHE186     -0.1227
    221  CA        -5.6360   27.8010  -21.0560 C.3   186  PHE186      0.1736
    222  C         -6.7780   27.9850  -22.0470 C.2   186  PHE186      0.2595
    223  O         -6.6920   28.8230  -22.9520 O.2   186  PHE186     -0.2718
    224  CB        -4.7190   26.6690  -21.5170 C.3   186  PHE186      0.0547
    225  CG        -4.4340   26.6830  -22.9930 C.ar  186  PHE186     -0.0202
    226  CD1       -3.4600   27.5150  -23.5130 C.ar  186  PHE186     -0.0042
    227  CD2       -5.1310   25.8570  -23.8600 C.ar  186  PHE186     -0.0042
    228  CE1       -3.1920   27.5290  -24.8700 C.ar  186  PHE186     -0.0003
    229  CE2       -4.8660   25.8700  -25.2180 C.ar  186  PHE186     -0.0003
    230  CZ        -3.8960   26.7060  -25.7220 C.ar  186  PHE186     -0.0000
    231  N         -7.8540   27.2130  -21.8940 N.am  187  ALA187     -0.1980
    232  CA        -8.9390   27.2450  -22.8670 C.3   187  ALA187      0.1597
    233  C         -9.6840   28.5720  -22.8950 C.2   187  ALA187      0.2287
    234  O        -10.5020   28.7790  -23.7970 O.2   187  ALA187     -0.2864
    235  CB        -9.9260   26.1140  -22.5850 C.3   187  ALA187      0.0319
    236  N        -19.0340   28.2870  -20.9140 N.3   204  THR204     -0.1218
    237  CA       -18.0790   27.2200  -20.6270 C.3   204  THR204      0.1862
    238  C        -18.0110   26.9290  -19.1340 C.2   204  THR204      0.2287
    239  O        -17.9860   25.7590  -18.7230 O.2   204  THR204     -0.2866
    240  CB       -16.6930   27.5810  -21.1590 C.3   204  THR204      0.1770
    241  OG1      -16.2520   28.7980  -20.5470 O.3   204  THR204     -0.2211
    242  CG2      -16.7260   27.7560  -22.6670 C.3   204  THR204      0.0375
    243  N        -18.9850   23.4000  -17.2210 N.3   208  TYR208     -0.1241
    244  CA       -18.1350   22.7400  -16.2350 C.3   208  TYR208      0.1605
    245  C        -18.8680   22.5570  -14.9090 C.2   208  TYR208      0.2264
    246  O        -18.7500   21.5080  -14.2620 O.2   208  TYR208     -0.2867
    247  CB       -16.8480   23.5390  -16.0350 C.3   208  TYR208      0.0534
    248  CG       -15.7170   22.7350  -15.4360 C.ar  208  TYR208     -0.0201
    249  CD1      -15.7790   21.3490  -15.3780 C.ar  208  TYR208     -0.0009
    250  CD2      -14.5890   23.3610  -14.9230 C.ar  208  TYR208     -0.0009
    251  CE1      -14.7480   20.6110  -14.8300 C.ar  208  TYR208      0.0417
    252  CE2      -13.5530   22.6330  -14.3750 C.ar  208  TYR208      0.0417
    253  CZ       -13.6380   21.2580  -14.3290 C.ar  208  TYR208      0.1957
    254  OH       -12.6080   20.5270  -13.7800 O.3   208  TYR208     -0.2866
@<TRIPOS>BOND
     1   169   168    2
     2   168   167    1
     3   108   109    1
     4   111   110    2
     5   110   109    1
     6   167   166    1
     7   167   170    1
     8   109   112    1
     9   170   171    1
    10   122   121    2
    11   119   120    1
    12   112   113    1
    13   121   120    1
    14   171   172   ar
    15   171   173   ar
    16   162   161    2
    17   120   123    1
    18   161   160    1
    19   113   114   ar
    20   113   115   ar
    21   172   174   ar
    22   114   116   ar
    23   123   124    1
    24   173   176   ar
    25   173   175   ar
    26   160   159    1
    27   160   163    1
    28   176   178   ar
    29   115   117   ar
    30   187   186    1
    31   174   175   ar
    32   116   118   ar
    33   180   181    1
    34   175   177   ar
    35   134   132    1
    36   163   165    1
    37   163   164    1
    38   124   125    1
    39   178   179   ar
    40   117   118   ar
    41   126   125    2
    42   181   184    1
    43   181   182    1
    44   184   185    1
    45    12     9    1
    46    12    13    1
    47     9    10    1
    48     9     8    1
    49   125   127   am
    50   186   185    1
    51   177   179   ar
    52    66    65    2
    53   133   132    1
    54   132   129    1
    55    10    11    2
    56   128   129    1
    57    65    64    1
    58   129   130    1
    59   103   102    2
    60   182   183    2
    61    13    14   ar
    62    13    15   ar
    63    72    70   ar
    64    72    73   ar
    65   154   155    2
    66   154   153    1
    67   156   157    1
    68   156   153    1
    69   156   158    1
    70    14    16   ar
    71    70    68   ar
    72    73    71   ar
    73   102   101    1
    74   153   152    1
    75    15    18   ar
    76    15    17   ar
    77    18    20   ar
    78   104   101    1
    79   104   105    1
    80    64    63    1
    81    64    67    1
    82   130   135   am
    83   130   131    2
    84    68    67    1
    85    68    69   ar
    86    71    69   ar
    87    16    17   ar
    88   101   100    1
    89   135   136    1
    90    17    19   ar
    91     4     3    2
    92   105   106   ar
    93   105   107   ar
    94    20    21   ar
    95    74    75    1
    96    78    75    1
    97    78    79    1
    98    22    23    1
    99    75    76    1
   100   138   137    2
   101    19    21   ar
   102     3     2    1
   103     1     2    1
   104   136   137    1
   105   136   139    1
   106   141   139    1
   107   137   142   am
   108    23    24    1
   109    23    26    1
   110   139   140    1
   111     2     5    1
   112   188   189    1
   113     5     6    1
   114     5     7    1
   115   148   150   ar
   116   148   147   ar
   117    24    25    2
   118   196   194   ar
   119    76    77    2
   120   150   151   ar
   121    58    57    2
   122   192   189    1
   123   192   193    1
   124   142   143    1
   125   189   190    1
   126    26    27    1
   127   146   147    1
   128   146   143    1
   129   147   149   ar
   130    57    56    1
   131   143   144    1
   132   193   194    1
   133   194   195   ar
   134    61    60    1
   135   151   149   ar
   136    95    94    2
   137   230   229   ar
   138   230   228   ar
   139    27    28    1
   140   190   191    2
   141    98    96    1
   142    94    93    1
   143   229   227   ar
   144   144   145    2
   145    56    59    1
   146    56    55    1
   147    91    90    1
   148    60    59    1
   149    60    62    1
   150   228   226   ar
   151    96    93    1
   152    96    97    1
   153    89    90   ar
   154    89    87   ar
   155    93    92    1
   156    30    31    1
   157    90    88   ar
   158    28    29    1
   159   227   225   ar
   160   234   233    2
   161    97    99    1
   162   226   225   ar
   163    54    53    1
   164    87    85   ar
   165    31    32    1
   166    31    34    1
   167   225   224    1
   168   223   222    2
   169   233   232    1
   170   232   235    1
   171   232   231    1
   172    88    86   ar
   173   242   240    1
   174    32    33    2
   175    51    53   ar
   176    51    49   ar
   177    53    52   ar
   178   222   231   am
   179   222   221    1
   180    34    35    1
   181    85    86   ar
   182    85    84    1
   183    49    48   ar
   184   224   221    1
   185   240   237    1
   186   240   241    1
   187    80    81    1
   188    46    45    2
   189    36    35    1
   190   221   220    1
   191    52    50   ar
   192   236   237    1
   193    35    37    1
   194   237   238    1
   195    84    81    1
   196    45    44    1
   197    48    50   ar
   198    48    47    1
   199   208   207    2
   200    81    82    1
   201    83    82    2
   202   209   210    1
   203   209   206    1
   204   209   211    1
   205    47    44    1
   206    44    43    1
   207   207   206    1
   208   207   212   am
   209   238   239    2
   210   215   214    2
   211   206   205    1
   212   218   217    1
   213   213   214    1
   214   213   212    1
   215   213   216    1
   216   216   217    1
   217   217   219    1
   218    38    39    1
   219   243   244    1
   220   204   202    1
   221    42    39    1
   222   203   201    1
   223    39    40    1
   224   200   199    2
   225   244   247    1
   226   244   245    1
   227   247   248    1
   228   202   201    1
   229   198   201    1
   230   198   199    1
   231   198   197    1
   232   248   249   ar
   233   248   250   ar
   234   249   251   ar
   235    40    41    2
   236   250   252   ar
   237   245   246    2
   238   251   253   ar
   239   252   253   ar
   240   253   254    1
