@<TRIPOS>MOLECULE
tmp/6dk0A00.pdb
 229 216 0 0 0
SMALL
GASTEIGER

@<TRIPOS>ATOM
      1  N          7.4540   30.3230  -31.4260 N.3    77  VAL77      -0.1245
      2  CA         7.3050   31.7680  -31.3060 C.3    77  VAL77       0.1561
      3  C          5.8780   32.1090  -31.7040 C.2    77  VAL77       0.2260
      4  O          5.5000   31.9500  -32.8710 O.2    77  VAL77      -0.2867
      5  CB         8.3040   32.5400  -32.1790 C.3    77  VAL77       0.0252
      6  CG1        7.9330   34.0140  -32.2310 C.3    77  VAL77       0.0019
      7  CG2        9.7070   32.3690  -31.6410 C.3    77  VAL77       0.0019
      8  N          0.3400   35.0450  -35.2490 N.3    82  TRP82      -0.1241
      9  CA         0.9470   33.9440  -35.9810 C.3    82  TRP82       0.1605
     10  C          1.8350   33.1110  -35.0640 C.2    82  TRP82       0.2264
     11  O          2.1990   33.5250  -33.9590 O.2    82  TRP82      -0.2867
     12  CB         1.7570   34.4500  -37.1800 C.3    82  TRP82       0.0550
     13  CG         2.7490   35.5300  -36.8590 C.ar   82  TRP82       0.0003
     14  CD1        2.5940   36.8710  -37.0660 C.ar   82  TRP82       0.0946
     15  CD2        4.0550   35.3620  -36.2900 C.ar   82  TRP82       0.0152
     16  NE1        3.7160   37.5480  -36.6550 N.ar   82  TRP82      -0.2442
     17  CE2        4.6290   36.6450  -36.1760 C.ar   82  TRP82       0.0810
     18  CE3        4.7950   34.2540  -35.8650 C.ar   82  TRP82       0.0012
     19  CZ2        5.9050   36.8500  -35.6540 C.ar   82  TRP82       0.0191
     20  CZ3        6.0610   34.4620  -35.3430 C.ar   82  TRP82       0.0001
     21  CH2        6.6030   35.7480  -35.2440 C.ar   82  TRP82       0.0015
     22  N         11.8250   29.3250  -34.3190 N.3    86  MET86      -0.1245
     23  CA        13.1130   29.9240  -34.6300 C.3    86  MET86       0.1570
     24  C         14.2300   29.2070  -33.8860 C.2    86  MET86       0.2261
     25  O         14.0270   28.6160  -32.8200 O.2    86  MET86      -0.2867
     26  CB        13.1500   31.4240  -34.2940 C.3    86  MET86       0.0387
     27  CG        12.9310   31.7620  -32.8260 C.3    86  MET86       0.0595
     28  SD        14.4100   31.7400  -31.7910 S.3    86  MET86      -0.1393
     29  CE        15.3530   33.0880  -32.4830 C.3    86  MET86       0.0692
     30  N         18.1710   30.3750  -32.8730 N.3    88  LEU88      -0.1245
     31  CA        19.0370   31.5450  -32.8110 C.3    88  LEU88       0.1561
     32  C         20.4880   31.1320  -33.0280 C.2    88  LEU88       0.2260
     33  O         21.0090   30.2800  -32.3000 O.2    88  LEU88      -0.2867
     34  CB        18.8740   32.2450  -31.4630 C.3    88  LEU88       0.0270
     35  CG        19.7120   33.4940  -31.2060 C.3    88  LEU88       0.0019
     36  CD1       19.3010   34.6070  -32.1500 C.3    88  LEU88       0.0001
     37  CD2       19.5640   33.9250  -29.7550 C.3    88  LEU88       0.0001
     38  N         21.1440   40.2690  -34.8540 N.3    96  TYR96      -0.1241
     39  CA        20.7680   38.8870  -34.6040 C.3    96  TYR96       0.1605
     40  C         20.6670   38.1470  -35.9270 C.2    96  TYR96       0.2264
     41  O         20.3110   38.7270  -36.9570 O.2    96  TYR96      -0.2867
     42  CB        19.4490   38.7620  -33.8170 C.3    96  TYR96       0.0534
     43  CG        18.1730   39.0990  -34.5720 C.ar   96  TYR96      -0.0201
     44  CD1       17.6000   38.1950  -35.4600 C.ar   96  TYR96      -0.0009
     45  CD2       17.5200   40.3040  -34.3610 C.ar   96  TYR96      -0.0009
     46  CE1       16.4370   38.4990  -36.1390 C.ar   96  TYR96       0.0417
     47  CE2       16.3510   40.6120  -35.0300 C.ar   96  TYR96       0.0417
     48  CZ        15.8150   39.7050  -35.9190 C.ar   96  TYR96       0.1957
     49  OH        14.6510   40.0030  -36.5890 O.3    96  TYR96      -0.2866
     50  N         19.0200   34.3090  -37.2210 N.3    98  LEU98      -0.1245
     51  CA        18.2410   33.1580  -36.7970 C.3    98  LEU98       0.1561
     52  C         17.6970   32.4320  -38.0160 C.2    98  LEU98       0.2260
     53  O         17.7350   32.9310  -39.1420 O.2    98  LEU98      -0.2867
     54  CB        17.1120   33.5710  -35.8410 C.3    98  LEU98       0.0270
     55  CG        16.0550   34.5780  -36.3050 C.3    98  LEU98       0.0019
     56  CD1       14.9140   33.8890  -37.0290 C.3    98  LEU98       0.0001
     57  CD2       15.5240   35.3660  -35.1240 C.3    98  LEU98       0.0001
     58  N         14.0910   30.8480  -39.1840 N.3   100  PHE100     -0.1241
     59  CA        12.6850   30.9610  -38.8310 C.3   100  PHE100      0.1605
     60  C         11.8460   30.1710  -39.8210 C.2   100  PHE100      0.2264
     61  O         12.2640   29.9070  -40.9500 O.2   100  PHE100     -0.2867
     62  CB        12.2330   32.4280  -38.8050 C.3   100  PHE100      0.0534
     63  CG        10.8200   32.6180  -38.3440 C.ar  100  PHE100     -0.0203
     64  CD1       10.5040   32.5700  -36.9970 C.ar  100  PHE100     -0.0042
     65  CD2        9.8080   32.8450  -39.2600 C.ar  100  PHE100     -0.0042
     66  CE1        9.2010   32.7450  -36.5720 C.ar  100  PHE100     -0.0003
     67  CE2        8.5060   33.0190  -38.8420 C.ar  100  PHE100     -0.0003
     68  CZ         8.2010   32.9690  -37.4960 C.ar  100  PHE100     -0.0000
     69  N          3.1080   41.4870  -38.6850 N.3   110  SER110     -0.1217
     70  CA         4.5590   41.3930  -38.8120 C.3   110  SER110      0.1889
     71  C          5.2730   41.9520  -37.5910 C.2   110  SER110      0.2288
     72  O          6.3910   41.5260  -37.2800 O.2   110  SER110     -0.2866
     73  CB         5.0350   42.1280  -40.0640 C.3   110  SER110      0.2089
     74  OG         4.9580   43.5330  -39.8900 O.3   110  SER110     -0.2183
     75  N          8.6830   47.0900  -35.2700 N.3   113  TYR113     -0.1241
     76  CA         9.9600   46.9870  -34.5820 C.3   113  TYR113      0.1605
     77  C         10.7390   48.2950  -34.6390 C.2   113  TYR113      0.2264
     78  O         10.4700   49.1820  -35.4530 O.2   113  TYR113     -0.2867
     79  CB        10.8200   45.8740  -35.1860 C.3   113  TYR113      0.0534
     80  CG        10.1220   44.5500  -35.3570 C.ar  113  TYR113     -0.0201
     81  CD1        9.6940   43.8220  -34.2580 C.ar  113  TYR113     -0.0009
     82  CD2        9.9150   44.0160  -36.6210 C.ar  113  TYR113     -0.0009
     83  CE1        9.0640   42.6060  -34.4130 C.ar  113  TYR113      0.0417
     84  CE2        9.2880   42.8020  -36.7870 C.ar  113  TYR113      0.0417
     85  CZ         8.8640   42.0990  -35.6800 C.ar  113  TYR113      0.1957
     86  OH         8.2370   40.8850  -35.8420 O.3   113  TYR113     -0.2866
     87  N         14.7800   44.3350  -40.5970 N.3   117  ILE117     -0.1245
     88  CA        14.7940   42.8780  -40.6190 C.3   117  ILE117      0.1561
     89  C         14.8930   42.4090  -42.0640 C.2   117  ILE117      0.2260
     90  O         14.2510   42.9750  -42.9530 O.2   117  ILE117     -0.2867
     91  CB        13.5390   42.2990  -39.9350 C.3   117  ILE117      0.0252
     92  CG1       13.2280   43.0640  -38.6450 C.3   117  ILE117      0.0019
     93  CG2       13.7360   40.8400  -39.6270 C.3   117  ILE117      0.0019
     94  CD1       14.3190   42.9890  -37.5940 C.3   117  ILE117      0.0001
     95  N         14.7600   38.8470  -44.4390 N.3   119  ASP119     -0.1239
     96  CA        14.3960   37.4370  -44.4850 C.3   119  ASP119      0.1674
     97  C         14.6610   36.8990  -45.8820 C.2   119  ASP119      0.2266
     98  O         14.0420   37.3520  -46.8500 O.2   119  ASP119     -0.2867
     99  CB        12.9270   37.2420  -44.1060 C.3   119  ASP119      0.1410
    100  CG        12.7070   37.2520  -42.6100 C.2   119  ASP119      0.3668
    101  OD1       13.1170   36.2790  -41.9480 O.co2 119  ASP119     -0.2456
    102  OD2       12.1350   38.2340  -42.0950 O.co2 119  ASP119     -0.2456
    103  N          6.2300   33.5290  -48.9990 N.3   126  PHE126     -0.1241
    104  CA         6.0450   34.6010  -48.0230 C.3   126  PHE126      0.1605
    105  C          5.1850   35.6870  -48.6540 C.2   126  PHE126      0.2264
    106  O          5.6370   36.3890  -49.5620 O.2   126  PHE126     -0.2867
    107  CB         7.3880   35.1650  -47.5600 C.3   126  PHE126      0.0534
    108  CG         7.2680   36.3210  -46.6120 C.ar  126  PHE126     -0.0203
    109  CD1        7.0490   36.1060  -45.2650 C.ar  126  PHE126     -0.0042
    110  CD2        7.3800   37.6230  -47.0680 C.ar  126  PHE126     -0.0042
    111  CE1        6.9360   37.1660  -44.3880 C.ar  126  PHE126     -0.0003
    112  CE2        7.2690   38.6890  -46.1960 C.ar  126  PHE126     -0.0003
    113  CZ         7.0480   38.4590  -44.8530 C.ar  126  PHE126     -0.0000
    114  N         13.1610   39.6020  -48.4190 N.3   145  VAL145     -0.1245
    115  CA        12.2020   40.6480  -48.0880 C.3   145  VAL145      0.1561
    116  C         12.7560   41.4530  -46.9210 C.2   145  VAL145      0.2260
    117  O         13.2840   40.8890  -45.9530 O.2   145  VAL145     -0.2867
    118  CB        10.8100   40.0680  -47.7620 C.3   145  VAL145      0.0252
    119  CG1       10.8950   39.0380  -46.6400 C.3   145  VAL145      0.0019
    120  CG2        9.8360   41.1820  -47.3980 C.3   145  VAL145      0.0019
    121  N         11.9720   44.3590  -44.0150 N.3   147  HIS147     -0.1241
    122  CA        10.9810   45.0320  -43.1870 C.3   147  HIS147      0.1621
    123  C         11.7010   46.1650  -42.4680 C.2   147  HIS147      0.2264
    124  O         12.5010   45.9200  -41.5570 O.2   147  HIS147     -0.2867
    125  CB        10.3530   44.0530  -42.1990 C.3   147  HIS147      0.0745
    126  CG         9.1260   44.5710  -41.5180 C.ar  147  HIS147      0.0817
    127  ND1        7.9600   44.8510  -42.1970 N.ar  147  HIS147     -0.2268
    128  CD2        8.8760   44.8430  -40.2150 C.ar  147  HIS147      0.1154
    129  CE1        7.0480   45.2830  -41.3440 C.ar  147  HIS147      0.1986
    130  NE2        7.5780   45.2860  -40.1350 N.ar  147  HIS147     -0.2212
    131  N          1.4590   39.4260  -42.6590 N.3   155  VAL155     -0.1245
    132  CA         2.3300   38.3810  -43.1730 C.3   155  VAL155      0.1561
    133  C          1.5660   37.0680  -43.2420 C.2   155  VAL155      0.2260
    134  O          0.6930   36.7880  -42.4130 O.2   155  VAL155     -0.2867
    135  CB         3.6030   38.2330  -42.3140 C.3   155  VAL155      0.0252
    136  CG1        4.4830   39.4600  -42.4760 C.3   155  VAL155      0.0019
    137  CG2        3.2350   38.0290  -40.8540 C.3   155  VAL155      0.0019
    138  N          2.7220   33.0000  -44.1910 N.3   157  TRP157     -0.1241
    139  CA         3.6200   31.9400  -44.6240 C.3   157  TRP157      0.1605
    140  C          2.7960   30.7270  -45.0260 C.2   157  TRP157      0.2264
    141  O          1.9700   30.2430  -44.2410 O.2   157  TRP157     -0.2867
    142  CB         4.6050   31.5580  -43.5190 C.3   157  TRP157      0.0550
    143  CG         5.3510   32.7160  -42.9380 C.ar  157  TRP157      0.0003
    144  CD1        6.3620   33.4150  -43.5250 C.ar  157  TRP157      0.0946
    145  CD2        5.1570   33.3000  -41.6450 C.ar  157  TRP157      0.0152
    146  NE1        6.8050   34.4050  -42.6820 N.ar  157  TRP157     -0.2442
    147  CE2        6.0800   34.3550  -41.5210 C.ar  157  TRP157      0.0810
    148  CE3        4.2900   33.0350  -40.5810 C.ar  157  TRP157      0.0012
    149  CZ2        6.1610   35.1450  -40.3780 C.ar  157  TRP157      0.0191
    150  CZ3        4.3730   33.8200  -39.4470 C.ar  157  TRP157      0.0001
    151  CH2        5.3020   34.8610  -39.3540 C.ar  157  TRP157      0.0015
    152  N         13.1310   30.1930  -43.6830 N.3   163  MET163     -0.1245
    153  CA        13.9260   31.3300  -44.1180 C.3   163  MET163      0.1570
    154  C         15.0250   31.6070  -43.1010 C.2   163  MET163      0.2261
    155  O         14.9770   31.1420  -41.9580 O.2   163  MET163     -0.2867
    156  CB        13.0540   32.5750  -44.2890 C.3   163  MET163      0.0387
    157  CG        12.4590   33.0530  -42.9780 C.3   163  MET163      0.0595
    158  SD        10.9630   34.0220  -43.2060 S.3   163  MET163     -0.1393
    159  CE         9.8600   32.7760  -43.8630 C.3   163  MET163      0.0692
    160  N         16.8760   34.7670  -41.1840 N.3   165  GLU165     -0.1245
    161  CA        16.5630   36.1330  -40.8000 C.3   165  GLU165      0.1567
    162  C         17.7850   36.8040  -40.1940 C.2   165  GLU165      0.2260
    163  O         18.4770   36.2190  -39.3540 O.2   165  GLU165     -0.2867
    164  CB        15.4060   36.1670  -39.7990 C.3   165  GLU165      0.0388
    165  CG        14.8640   37.5590  -39.5470 C.3   165  GLU165      0.1160
    166  CD        13.5500   37.5530  -38.7880 C.2   165  GLU165      0.3649
    167  OE1       13.5370   37.9930  -37.6210 O.co2 165  GLU165     -0.2457
    168  OE2       12.5310   37.1100  -39.3580 O.co2 165  GLU165     -0.2457
    169  N         17.5760   45.4370  -30.5640 N.3   171  ILE171     -0.1245
    170  CA        17.0610   44.0690  -30.4670 C.3   171  ILE171      0.1561
    171  C         16.1870   43.8540  -29.2360 C.2   171  ILE171      0.2260
    172  O         15.1530   43.1810  -29.3550 O.2   171  ILE171     -0.2867
    173  CB        18.2110   43.0630  -30.5730 C.3   171  ILE171      0.0252
    174  CG1       19.0900   43.3910  -31.7850 C.3   171  ILE171      0.0019
    175  CG2       17.6780   41.6400  -30.6680 C.3   171  ILE171      0.0019
    176  CD1       18.3340   43.4610  -33.0980 C.3   171  ILE171      0.0001
    177  N         12.2450   44.2000  -29.7360 N.3   174  THR174     -0.1203
    178  CA        11.4390   43.1950  -30.4170 C.3   174  THR174      0.1994
    179  C         10.9440   42.1120  -29.4700 C.2   174  THR174      0.2617
    180  O          9.9850   41.4080  -29.8020 O.2   174  THR174     -0.2717
    181  CB        12.2360   42.5500  -31.5510 C.3   174  THR174      0.1784
    182  OG1       13.2820   41.7440  -30.9960 O.3   174  THR174     -0.2211
    183  CG2       12.8480   43.6170  -32.4440 C.3   174  THR174      0.0376
    184  N         11.5760   41.9590  -28.3030 N.am  175  LEU175     -0.1979
    185  CA        11.1620   40.9160  -27.3710 C.3   175  LEU175      0.1596
    186  C          9.7450   41.1480  -26.8590 C.2   175  LEU175      0.2287
    187  O          9.0340   40.1850  -26.5470 O.2   175  LEU175     -0.2864
    188  CB        12.1490   40.8330  -26.2050 C.3   175  LEU175      0.0297
    189  CG        13.5960   40.5290  -26.5730 C.3   175  LEU175      0.0022
    190  CD1       14.5150   40.6690  -25.3770 C.3   175  LEU175      0.0001
    191  CD2       13.7470   39.1420  -27.1710 C.3   175  LEU175      0.0001
    192  N          7.5490   39.8490  -29.6610 N.3   178  ALA178     -0.1231
    193  CA         7.7650   38.4360  -29.9450 C.3   178  ALA178      0.1694
    194  C          7.2020   37.5300  -28.8590 C.2   178  ALA178      0.2591
    195  O          6.9430   36.3500  -29.1240 O.2   178  ALA178     -0.2718
    196  CB         9.2570   38.1640  -30.1440 C.3   178  ALA178      0.0304
    197  N          6.9860   38.0540  -27.6530 N.am  179  LEU179     -0.1980
    198  CA         6.5110   37.2550  -26.5310 C.3   179  LEU179      0.1596
    199  C          5.1350   37.6880  -26.0360 C.2   179  LEU179      0.2287
    200  O          4.6970   37.2250  -24.9750 O.2   179  LEU179     -0.2864
    201  CB         7.5250   37.3120  -25.3850 C.3   179  LEU179      0.0297
    202  CG         8.9470   36.8960  -25.7760 C.3   179  LEU179      0.0022
    203  CD1        9.9720   37.3580  -24.7490 C.3   179  LEU179      0.0001
    204  CD2        9.0270   35.3890  -25.9770 C.3   179  LEU179      0.0001
    205  N         13.1450   30.9290  -24.8470 N.3   195  THR195     -0.1218
    206  CA        13.5120   32.0900  -25.6530 C.3   195  THR195      0.1862
    207  C         14.4920   32.9880  -24.9050 C.2   195  THR195      0.2287
    208  O         15.5270   33.4030  -25.4530 O.2   195  THR195     -0.2866
    209  CB        12.2560   32.8730  -26.0420 C.3   195  THR195      0.1770
    210  OG1       11.2930   31.9850  -26.6240 O.3   195  THR195     -0.2211
    211  CG2       12.5990   33.9650  -27.0450 C.3   195  THR195      0.0375
    212  N         17.9110   31.3340  -24.7620 N.3   198  SER198     -0.1202
    213  CA        18.6430   31.4450  -26.0220 C.3   198  SER198      0.2020
    214  C         19.2420   32.8360  -26.1840 C.2   198  SER198      0.2618
    215  O         20.4030   32.9830  -26.5990 O.2   198  SER198     -0.2717
    216  CB        17.7260   31.1170  -27.2010 C.3   198  SER198      0.2103
    217  OG        17.3570   29.7500  -27.1980 O.3   198  SER198     -0.2182
    218  N         18.4670   33.8710  -25.8520 N.am  199  TYR199     -0.1975
    219  CA        19.0000   35.2290  -25.9170 C.3   199  TYR199      0.1639
    220  C         20.1860   35.4010  -24.9710 C.2   199  TYR199      0.2290
    221  O         21.2130   35.9910  -25.3390 O.2   199  TYR199     -0.2864
    222  CB        17.9010   36.2390  -25.5900 C.3   199  TYR199      0.0560
    223  CG        18.2190   37.6490  -26.0290 C.ar  199  TYR199     -0.0198
    224  CD1       19.0040   37.8880  -27.1490 C.ar  199  TYR199     -0.0009
    225  CD2       17.7420   38.7430  -25.3180 C.ar  199  TYR199     -0.0009
    226  CE1       19.2990   39.1770  -27.5550 C.ar  199  TYR199      0.0417
    227  CE2       18.0330   40.0350  -25.7140 C.ar  199  TYR199      0.0417
    228  CZ        18.8120   40.2460  -26.8330 C.ar  199  TYR199      0.1957
    229  OH        19.1040   41.5290  -27.2320 O.3   199  TYR199     -0.2866
@<TRIPOS>BOND
     1   106   105    2
     2   103   104    1
     3   105   104    1
     4   114   115    1
     5   115   118    1
     6   115   116    1
     7   104   107    1
     8   118   120    1
     9   118   119    1
    10   107   108    1
    11   110   108   ar
    12   110   112   ar
    13   116   117    2
    14    98    97    2
    15   108   109   ar
    16   112   113   ar
    17    97    96    1
    18   109   111   ar
    19   140   139    1
    20   140   141    2
    21   113   111   ar
    22   139   138    1
    23   139   142    1
    24    96    95    1
    25    96    99    1
    26   156   153    1
    27   156   157    1
    28   153   152    1
    29   153   154    1
    30    99   100    1
    31   121   122    1
    32   159   158    1
    33   144   143   ar
    34   144   146   ar
    35   142   143    1
    36   133   132    1
    37   133   134    2
    38   158   157    1
    39   122   123    1
    40   122   125    1
    41   132   131    1
    42   132   135    1
    43   154   155    2
    44    90    89    2
    45   143   145   ar
    46   146   147   ar
    47   100   102   ar
    48   100   101   ar
    49   136   135    1
    50   123   124    2
    51   135   137    1
    52   125   126    1
    53   127   126   ar
    54   127   129   ar
    55    89    88    1
    56   145   147   ar
    57   145   148   ar
    58   147   149   ar
    59   126   128   ar
    60   129   130   ar
    61   160   161    1
    62    61    60    2
    63   161   162    1
    64   161   164    1
    65    88    87    1
    66    88    91    1
    67   148   150   ar
    68   149   151   ar
    69   128   130   ar
    70   162   163    2
    71    73    74    1
    72    73    70    1
    73    91    93    1
    74    91    92    1
    75    60    59    1
    76   164   165    1
    77   165   166    1
    78   150   151   ar
    79   168   166   ar
    80    65    67   ar
    81    65    63   ar
    82    58    59    1
    83    53    52    2
    84    67    68   ar
    85    59    62    1
    86    70    69    1
    87    70    71    1
    88    62    63    1
    89   166   167   ar
    90    92    94    1
    91    63    64   ar
    92    52    51    1
    93    71    72    2
    94    68    66   ar
    95    50    51    1
    96    12    13    1
    97    12     9    1
    98    14    13   ar
    99    14    16   ar
   100    56    55    1
   101    64    66   ar
   102    41    40    2
   103    13    15   ar
   104    51    54    1
   105    84    82   ar
   106    84    85   ar
   107    16    17   ar
   108    82    80   ar
   109    49    48    1
   110    55    54    1
   111    55    57    1
   112    15    17   ar
   113    15    18   ar
   114    17    19   ar
   115    46    48   ar
   116    46    44   ar
   117     9     8    1
   118     9    10    1
   119    40    39    1
   120    48    47   ar
   121    18    20   ar
   122    86    85    1
   123    85    83   ar
   124    19    21   ar
   125    44    43   ar
   126    78    77    2
   127    80    79    1
   128    80    81   ar
   129    20    21   ar
   130    75    76    1
   131    79    76    1
   132    10    11    2
   133    47    45   ar
   134    38    39    1
   135    77    76    1
   136    23    22    1
   137    23    26    1
   138    23    24    1
   139    39    42    1
   140    43    45   ar
   141    43    42    1
   142    83    81   ar
   143    26    27    1
   144    24    25    2
   145   176   174    1
   146    32    31    1
   147    32    33    2
   148    30    31    1
   149     4     3    2
   150    27    28    1
   151    31    34    1
   152    29    28    1
   153   183   181    1
   154     6     5    1
   155     5     7    1
   156     5     2    1
   157    36    35    1
   158   174   173    1
   159     3     2    1
   160   181   182    1
   161   181   178    1
   162    34    35    1
   163     1     2    1
   164    35    37    1
   165   175   173    1
   166   173   170    1
   167   169   170    1
   168   170   171    1
   169   178   177    1
   170   178   179    1
   171   196   193    1
   172   193   192    1
   173   193   194    1
   174   180   179    2
   175   179   184   am
   176   172   171    2
   177   195   194    2
   178   194   197   am
   179   184   185    1
   180   197   198    1
   181   226   224   ar
   182   226   228   ar
   183   185   186    1
   184   185   188    1
   185   229   228    1
   186   216   217    1
   187   216   213    1
   188   191   189    1
   189   224   223   ar
   190   211   209    1
   191   186   187    2
   192   228   227   ar
   193   210   209    1
   194   215   214    2
   195   189   188    1
   196   189   190    1
   197   198   199    1
   198   198   201    1
   199   214   213    1
   200   214   218   am
   201   209   206    1
   202   199   200    2
   203   223   222    1
   204   223   225   ar
   205   213   212    1
   206   204   202    1
   207   219   218    1
   208   219   222    1
   209   219   220    1
   210   202   201    1
   211   202   203    1
   212   227   225   ar
   213   206   207    1
   214   206   205    1
   215   208   207    2
   216   221   220    2
