@<TRIPOS>MOLECULE
tmp/6dk1B00.pdb
 211 202 0 0 0
SMALL
GASTEIGER

@<TRIPOS>ATOM
      1  N        -14.8340   29.0780  -28.0320 N.3    85  VAL85      -0.1231
      2  CA       -13.6140   28.7480  -27.3040 C.3    85  VAL85       0.1692
      3  C        -12.4500   29.4310  -28.0120 C.2    85  VAL85       0.2592
      4  O        -12.0560   29.0130  -29.1040 O.2    85  VAL85      -0.2718
      5  CB       -13.3920   27.2290  -27.2280 C.3    85  VAL85       0.0266
      6  CG1      -11.9570   26.9070  -26.9170 C.3    85  VAL85       0.0020
      7  CG2      -14.3190   26.6070  -26.1900 C.3    85  VAL85       0.0020
      8  N        -11.9040   30.4790  -27.4070 N.am   86  ASN86      -0.1960
      9  CA       -10.7930   31.2130  -28.0000 C.3    86  ASN86       0.1819
     10  C         -9.6070   31.1690  -27.0510 C.2    86  ASN86       0.2621
     11  O         -9.7220   31.5860  -25.8940 O.2    86  ASN86      -0.2715
     12  CB       -11.1900   32.6550  -28.3120 C.3    86  ASN86       0.1195
     13  CG       -12.2530   32.7460  -29.3870 C.2    86  ASN86       0.2630
     14  OD1      -13.2380   32.0110  -29.3720 O.2    86  ASN86      -0.2716
     15  ND2      -12.0530   33.6510  -30.3350 N.am   86  ASN86      -0.0877
     16  N         -8.4740   30.6650  -27.5400 N.am   87  ALA87      -0.1977
     17  CA        -7.2760   30.5760  -26.7150 C.3    87  ALA87       0.1597
     18  C         -6.0650   30.3220  -27.5980 C.2    87  ALA87       0.2287
     19  O         -6.1820   29.7540  -28.6870 O.2    87  ALA87      -0.2864
     20  CB        -7.3920   29.4730  -25.6570 C.3    87  ALA87       0.0319
     21  N         -6.1800   30.8320  -31.3870 N.3    90  TRP90      -0.1241
     22  CA        -7.1110   30.1040  -32.2340 C.3    90  TRP90       0.1605
     23  C         -8.5140   30.1520  -31.6430 C.2    90  TRP90       0.2264
     24  O         -8.7120   30.4810  -30.4670 O.2    90  TRP90      -0.2867
     25  CB        -6.6730   28.6440  -32.4360 C.3    90  TRP90       0.0550
     26  CG        -6.3780   27.8980  -31.1720 C.ar   90  TRP90       0.0003
     27  CD1       -5.1500   27.6710  -30.6240 C.ar   90  TRP90       0.0946
     28  CD2       -7.3270   27.2670  -30.3030 C.ar   90  TRP90       0.0152
     29  NE1       -5.2740   26.9440  -29.4660 N.ar   90  TRP90      -0.2442
     30  CE2       -6.6000   26.6830  -29.2470 C.ar   90  TRP90       0.0810
     31  CE3       -8.7190   27.1430  -30.3120 C.ar   90  TRP90       0.0012
     32  CZ2       -7.2180   25.9850  -28.2120 C.ar   90  TRP90       0.0191
     33  CZ3       -9.3300   26.4510  -29.2830 C.ar   90  TRP90       0.0001
     34  CH2       -8.5810   25.8800  -28.2490 C.ar   90  TRP90       0.0015
     35  N        -16.8850   24.1730  -28.2920 N.3    94  MET94      -0.1245
     36  CA       -16.9250   22.9450  -27.5140 C.3    94  MET94       0.1570
     37  C        -18.3290   22.7150  -26.9730 C.2    94  MET94       0.2261
     38  O        -19.1360   23.6400  -26.8400 O.2    94  MET94      -0.2867
     39  CB       -15.9270   22.9760  -26.3490 C.3    94  MET94       0.0387
     40  CG       -16.3990   23.8110  -25.1700 C.3    94  MET94       0.0595
     41  SD       -15.2960   23.7790  -23.7480 S.3    94  MET94      -0.1393
     42  CE       -16.1920   24.8230  -22.6020 C.3    94  MET94       0.0692
     43  N        -11.9210   15.2300  -18.0590 N.3   104  TYR104     -0.1241
     44  CA       -12.9960   15.9350  -18.7420 C.3   104  TYR104      0.1605
     45  C        -13.2180   15.3120  -20.1130 C.2   104  TYR104      0.2264
     46  O        -12.2900   14.7740  -20.7250 O.2   104  TYR104     -0.2867
     47  CB       -12.6930   17.4340  -18.8850 C.3   104  TYR104      0.0534
     48  CG       -11.7370   17.7700  -20.0120 C.ar  104  TYR104     -0.0201
     49  CD1      -10.3620   17.7090  -19.8250 C.ar  104  TYR104     -0.0009
     50  CD2      -12.2110   18.1530  -21.2610 C.ar  104  TYR104     -0.0009
     51  CE1       -9.4880   18.0150  -20.8520 C.ar  104  TYR104      0.0417
     52  CE2      -11.3450   18.4560  -22.2910 C.ar  104  TYR104      0.0417
     53  CZ        -9.9860   18.3870  -22.0820 C.ar  104  TYR104      0.1957
     54  OH        -9.1240   18.6930  -23.1100 O.3   104  TYR104     -0.2866
     55  N        -15.4540   16.2020  -23.8650 N.3   106  LEU106     -0.1245
     56  CA       -16.2480   17.1690  -24.6140 C.3   106  LEU106      0.1561
     57  C        -16.1600   16.8520  -26.1030 C.2   106  LEU106      0.2260
     58  O        -15.4440   15.9420  -26.5290 O.2   106  LEU106     -0.2867
     59  CB       -15.8000   18.6050  -24.3130 C.3   106  LEU106      0.0270
     60  CG       -14.3250   19.0080  -24.4240 C.3   106  LEU106      0.0019
     61  CD1      -13.8980   19.2470  -25.8660 C.3   106  LEU106      0.0001
     62  CD2      -14.0680   20.2490  -23.5860 C.3   106  LEU106      0.0001
     63  N        -15.2710   18.9400  -29.5730 N.3   108  PHE108     -0.1241
     64  CA       -14.6240   20.1740  -29.9890 C.3   108  PHE108      0.1605
     65  C        -14.5950   20.2670  -31.5100 C.2   108  PHE108      0.2264
     66  O        -14.7430   19.2670  -32.2190 O.2   108  PHE108     -0.2867
     67  CB       -13.1960   20.2590  -29.4250 C.3   108  PHE108      0.0534
     68  CG       -12.4630   21.5100  -29.8090 C.ar  108  PHE108     -0.0203
     69  CD1      -12.7110   22.7030  -29.1510 C.ar  108  PHE108     -0.0042
     70  CD2      -11.5260   21.4950  -30.8290 C.ar  108  PHE108     -0.0042
     71  CE1      -12.0410   23.8570  -29.5040 C.ar  108  PHE108     -0.0003
     72  CE2      -10.8530   22.6460  -31.1870 C.ar  108  PHE108     -0.0003
     73  CZ       -11.1110   23.8280  -30.5230 C.ar  108  PHE108     -0.0000
     74  N         -1.0490   25.3210  -28.7390 N.3   118  SER118     -0.1217
     75  CA        -1.7600   24.2830  -27.9970 C.3   118  SER118      0.1889
     76  C         -1.9440   24.6770  -26.5350 C.2   118  SER118      0.2288
     77  O         -3.0740   24.7970  -26.0470 O.2   118  SER118     -0.2866
     78  CB        -1.0120   22.9530  -28.1070 C.3   118  SER118      0.2089
     79  OG         0.2630   23.0340  -27.4940 O.3   118  SER118     -0.2183
     80  N         -0.1970   22.8810  -20.2050 N.3   121  TYR121     -0.1241
     81  CA        -0.9250   22.5090  -19.0050 C.3   121  TYR121      0.1605
     82  C         -0.6240   21.0590  -18.6490 C.2   121  TYR121      0.2264
     83  O         -0.1920   20.2670  -19.4910 O.2   121  TYR121     -0.2867
     84  CB        -2.4360   22.7090  -19.1860 C.3   121  TYR121      0.0534
     85  CG        -2.9340   22.3950  -20.5790 C.ar  121  TYR121     -0.0201
     86  CD1       -3.0730   21.0820  -21.0110 C.ar  121  TYR121     -0.0009
     87  CD2       -3.2700   23.4150  -21.4600 C.ar  121  TYR121     -0.0009
     88  CE1       -3.5290   20.7940  -22.2850 C.ar  121  TYR121      0.0417
     89  CE2       -3.7250   23.1370  -22.7350 C.ar  121  TYR121      0.0417
     90  CZ        -3.8530   21.8250  -23.1430 C.ar  121  TYR121      0.1957
     91  OH        -4.3080   21.5470  -24.4120 O.3   121  TYR121     -0.2866
     92  N         -4.1900   14.9920  -23.2730 N.3   125  ILE125     -0.1245
     93  CA        -5.3790   15.2670  -24.0720 C.3   125  ILE125      0.1561
     94  C         -5.4560   14.2660  -25.2160 C.2   125  ILE125      0.2260
     95  O         -4.4450   13.9680  -25.8640 O.2   125  ILE125     -0.2867
     96  CB        -5.3560   16.7140  -24.6000 C.3   125  ILE125      0.0252
     97  CG1       -5.1180   17.6940  -23.4490 C.3   125  ILE125      0.0019
     98  CG2       -6.6430   17.0440  -25.3250 C.3   125  ILE125      0.0019
     99  CD1       -6.1560   17.6150  -22.3550 C.3   125  ILE125      0.0001
    100  N         -7.5620   13.8390  -28.6110 N.3   127  ASP127     -0.1239
    101  CA        -8.4870   14.3870  -29.6000 C.3   127  ASP127      0.1674
    102  C         -8.7140   13.3440  -30.6890 C.2   127  ASP127      0.2266
    103  O         -7.8330   13.1050  -31.5200 O.2   127  ASP127     -0.2867
    104  CB        -7.9420   15.6850  -30.1910 C.3   127  ASP127      0.1410
    105  CG        -8.3560   16.9090  -29.3980 C.2   127  ASP127      0.3668
    106  OD1       -9.5660   17.2170  -29.3630 O.co2 127  ASP127     -0.2456
    107  OD2       -7.4710   17.5620  -28.8050 O.co2 127  ASP127     -0.2456
    108  N         -6.4890   17.3800  -38.9620 N.3   134  PHE134     -0.1241
    109  CA        -5.7410   17.9250  -37.8370 C.3   134  PHE134      0.1605
    110  C         -4.2910   18.0670  -38.2680 C.2   134  PHE134      0.2264
    111  O         -3.7360   17.1510  -38.8790 O.2   134  PHE134     -0.2867
    112  CB        -5.8490   17.0150  -36.6060 C.3   134  PHE134      0.0534
    113  CG        -5.4790   17.6820  -35.3090 C.ar  134  PHE134     -0.0203
    114  CD1       -4.1780   18.0910  -35.0620 C.ar  134  PHE134     -0.0042
    115  CD2       -6.4300   17.8680  -34.3200 C.ar  134  PHE134     -0.0042
    116  CE1       -3.8370   18.6960  -33.8650 C.ar  134  PHE134     -0.0003
    117  CE2       -6.0940   18.4660  -33.1180 C.ar  134  PHE134     -0.0003
    118  CZ        -4.7970   18.8820  -32.8920 C.ar  134  PHE134     -0.0000
    119  N         -5.1300   12.1950  -31.8630 N.3   153  VAL153     -0.1245
    120  CA        -3.9920   13.0260  -31.4880 C.3   153  VAL153      0.1561
    121  C         -3.8200   12.9510  -29.9780 C.2   153  VAL153      0.2260
    122  O         -4.7810   13.1540  -29.2240 O.2   153  VAL153     -0.2867
    123  CB        -4.1890   14.4820  -31.9450 C.3   153  VAL153      0.0252
    124  CG1       -2.9990   15.3380  -31.5340 C.3   153  VAL153      0.0019
    125  CG2       -4.4060   14.5400  -33.4480 C.3   153  VAL153      0.0019
    126  N         -1.9640   14.7120  -27.1220 N.3   155  HIS155     -0.1241
    127  CA        -1.2220   15.8580  -26.6080 C.3   155  HIS155      0.1621
    128  C         -0.7140   15.5090  -25.2140 C.2   155  HIS155      0.2264
    129  O         -1.5020   15.3950  -24.2700 O.2   155  HIS155     -0.2867
    130  CB        -2.1120   17.0990  -26.5820 C.3   155  HIS155      0.0745
    131  CG        -1.4610   18.3050  -25.9780 C.ar  155  HIS155      0.0817
    132  ND1       -0.7860   19.2420  -26.7310 N.ar  155  HIS155     -0.2268
    133  CD2       -1.3890   18.7300  -24.6950 C.ar  155  HIS155      0.1154
    134  CE1       -0.3250   20.1910  -25.9370 C.ar  155  HIS155      0.1986
    135  NE2       -0.6760   19.9050  -24.6960 N.ar  155  HIS155     -0.2212
    136  N         -1.1070   23.9540  -33.3630 N.3   163  VAL163     -0.1245
    137  CA        -2.3010   23.2270  -33.7730 C.3   163  VAL163      0.1561
    138  C         -2.9530   23.9500  -34.9420 C.2   163  VAL163      0.2260
    139  O         -2.9800   25.1870  -34.9870 O.2   163  VAL163     -0.2867
    140  CB        -3.2900   23.0690  -32.6000 C.3   163  VAL163      0.0252
    141  CG1       -2.7590   22.0660  -31.5920 C.3   163  VAL163      0.0019
    142  CG2       -3.5380   24.4110  -31.9290 C.3   163  VAL163      0.0019
    143  N         -6.5410   23.3910  -37.5900 N.3   165  TRP165     -0.1241
    144  CA        -7.7480   22.6630  -37.9500 C.3   165  TRP165      0.1605
    145  C         -8.2770   23.2160  -39.2630 C.2   165  TRP165      0.2264
    146  O         -8.5050   24.4250  -39.3840 O.2   165  TRP165     -0.2867
    147  CB        -8.8110   22.7730  -36.8540 C.3   165  TRP165      0.0550
    148  CG        -8.3110   22.3470  -35.5130 C.ar  165  TRP165      0.0003
    149  CD1       -8.0010   21.0800  -35.1220 C.ar  165  TRP165      0.0946
    150  CD2       -8.0590   23.1900  -34.3830 C.ar  165  TRP165      0.0152
    151  NE1       -7.5700   21.0800  -33.8190 N.ar  165  TRP165     -0.2442
    152  CE2       -7.5960   22.3630  -33.3420 C.ar  165  TRP165      0.0810
    153  CE3       -8.1790   24.5630  -34.1510 C.ar  165  TRP165      0.0012
    154  CZ2       -7.2520   22.8620  -32.0890 C.ar  165  TRP165      0.0191
    155  CZ3       -7.8380   25.0570  -32.9070 C.ar  165  TRP165      0.0001
    156  CH2       -7.3810   24.2090  -31.8910 C.ar  165  TRP165      0.0015
    157  N        -12.9430   14.8320  -27.4130 N.3   173  GLU173     -0.1245
    158  CA       -11.7490   15.1350  -26.6390 C.3   173  GLU173      0.1567
    159  C        -11.9180   14.6400  -25.2140 C.2   173  GLU173      0.2260
    160  O        -12.9500   14.8870  -24.5830 O.2   173  GLU173     -0.2867
    161  CB       -11.4560   16.6370  -26.6420 C.3   173  GLU173      0.0388
    162  CG       -10.0390   16.9700  -26.2390 C.3   173  GLU173      0.1160
    163  CD        -9.7630   18.4540  -26.2650 C.2   173  GLU173      0.3649
    164  OE1      -10.0620   19.1260  -25.2580 O.co2 173  GLU173     -0.2457
    165  OE2       -9.2580   18.9480  -27.2940 O.co2 173  GLU173     -0.2457
    166  N         -5.5700   23.6130  -16.9220 N.3   182  THR182     -0.1203
    167  CA        -6.0480   23.8310  -18.2830 C.3   182  THR182      0.1994
    168  C         -7.0410   24.9810  -18.3460 C.2   182  THR182      0.2617
    169  O         -7.0780   25.7130  -19.3400 O.2   182  THR182     -0.2717
    170  CB        -6.6990   22.5620  -18.8310 C.3   182  THR182      0.1784
    171  OG1       -7.9020   22.2890  -18.1000 O.3   182  THR182     -0.2211
    172  CG2       -5.7530   21.3770  -18.7080 C.3   182  THR182      0.0376
    173  N         -7.8520   25.1530  -17.3010 N.am  183  LEU183     -0.1979
    174  CA        -8.8560   26.2110  -17.3070 C.3   183  LEU183      0.1596
    175  C         -8.2190   27.5890  -17.1720 C.2   183  LEU183      0.2287
    176  O         -8.7680   28.5770  -17.6730 O.2   183  LEU183     -0.2864
    177  CB        -9.8670   25.9750  -16.1830 C.3   183  LEU183      0.0297
    178  CG       -11.2650   26.5710  -16.3630 C.3   183  LEU183      0.0022
    179  CD1      -12.0000   25.8870  -17.5090 C.3   183  LEU183      0.0001
    180  CD2      -12.0630   26.4690  -15.0710 C.3   183  LEU183      0.0001
    181  N         -5.4020   28.6130  -18.5730 N.3   185  PHE185     -0.1227
    182  CA        -5.0380   28.9920  -19.9320 C.3   185  PHE185      0.1736
    183  C         -6.2410   29.0470  -20.8610 C.2   185  PHE185      0.2595
    184  O         -6.2050   29.7700  -21.8640 O.2   185  PHE185     -0.2718
    185  CB        -3.9930   28.0090  -20.4770 C.3   185  PHE185      0.0547
    186  CG        -4.0670   27.7910  -21.9660 C.ar  185  PHE185     -0.0202
    187  CD1       -3.4640   28.6790  -22.8420 C.ar  185  PHE185     -0.0042
    188  CD2       -4.7230   26.6860  -22.4880 C.ar  185  PHE185     -0.0042
    189  CE1       -3.5260   28.4770  -24.2090 C.ar  185  PHE185     -0.0003
    190  CE2       -4.7880   26.4800  -23.8530 C.ar  185  PHE185     -0.0003
    191  CZ        -4.1890   27.3770  -24.7140 C.ar  185  PHE185     -0.0000
    192  N         -7.3120   28.3230  -20.5300 N.am  186  ALA186     -0.1966
    193  CA        -8.4240   28.1560  -21.4560 C.3   186  ALA186      0.1728
    194  C         -9.1530   29.4640  -21.7270 C.2   186  ALA186      0.2616
    195  O         -9.7600   29.6260  -22.7910 O.2   186  ALA186     -0.2715
    196  CB        -9.3980   27.1120  -20.9090 C.3   186  ALA186      0.0334
    197  N         -9.1080   30.4050  -20.7880 N.am  187  LEU187     -0.1977
    198  CA        -9.9180   31.6140  -20.8590 C.3   187  LEU187      0.1596
    199  C         -9.0570   32.8740  -20.8590 C.2   187  LEU187      0.2287
    200  O         -9.4890   33.9300  -20.3920 O.2   187  LEU187     -0.2864
    201  CB       -10.9230   31.6340  -19.7080 C.3   187  LEU187      0.0297
    202  CG       -11.6290   30.2880  -19.5030 C.3   187  LEU187      0.0022
    203  CD1      -12.3900   30.2390  -18.1880 C.3   187  LEU187      0.0001
    204  CD2      -12.5530   29.9780  -20.6740 C.3   187  LEU187      0.0001
    205  N        -18.9690   29.1730  -20.2960 N.3   203  THR203     -0.1218
    206  CA       -18.0180   28.0850  -20.0870 C.3   203  THR203      0.1862
    207  C        -17.8610   27.7590  -18.6050 C.2   203  THR203      0.2287
    208  O        -17.8160   26.5800  -18.2230 O.2   203  THR203     -0.2866
    209  CB       -16.6660   28.4390  -20.7080 C.3   203  THR203      0.1770
    210  OG1      -16.2230   29.7070  -20.2080 O.3   203  THR203     -0.2211
    211  CG2      -16.7770   28.5070  -22.2260 C.3   203  THR203      0.0375
@<TRIPOS>BOND
     1   146   145    2
     2   145   144    1
     3   108   109    1
     4   111   110    2
     5   110   109    1
     6   144   143    1
     7   144   147    1
     8   109   112    1
     9   147   148    1
    10   112   113    1
    11   148   149   ar
    12   148   150   ar
    13   113   114   ar
    14   113   115   ar
    15   149   151   ar
    16   114   116   ar
    17   139   138    2
    18   138   137    1
    19   150   153   ar
    20   150   152   ar
    21   115   117   ar
    22   153   155   ar
    23   116   118   ar
    24   151   152   ar
    25   137   136    1
    26   137   140    1
    27   125   123    1
    28   152   154   ar
    29   117   118   ar
    30   155   156   ar
    31   140   142    1
    32   140   141    1
    33    25    22    1
    34    25    26    1
    35    22    23    1
    36    22    21    1
    37    66    65    2
    38   154   156   ar
    39   123   124    1
    40   123   120    1
    41   119   120    1
    42    23    24    2
    43   103   102    2
    44    65    64    1
    45   120   121    1
    46    72    70   ar
    47    72    73   ar
    48    26    27   ar
    49    26    28   ar
    50    70    68   ar
    51   102   101    1
    52    27    29   ar
    53    73    71   ar
    54    15    13   am
    55    31    28   ar
    56    31    33   ar
    57    28    30   ar
    58   104   101    1
    59   104   105    1
    60    64    63    1
    61    64    67    1
    62   121   122    2
    63    68    67    1
    64    68    69   ar
    65   101   100    1
    66    71    69   ar
    67    29    30   ar
    68   105   106   ar
    69   105   107   ar
    70    13    14    2
    71    13    12    1
    72    33    34   ar
    73    30    32   ar
    74     4     3    2
    75    74    75    1
    76    19    18    2
    77    12     9    1
    78    35    36    1
    79    34    32   ar
    80    78    75    1
    81    78    79    1
    82     1     2    1
    83     3     8   am
    84     3     2    1
    85     9     8    1
    86     9    10    1
    87    75    76    1
    88    18    17    1
    89    16    10   am
    90    16    17    1
    91    36    37    1
    92    36    39    1
    93   157   158    1
    94     2     5    1
    95   165   163   ar
    96     5     6    1
    97     5     7    1
    98   126   127    1
    99    10    11    2
   100    37    38    2
   101   132   131   ar
   102   132   134   ar
   103    17    20    1
   104   161   158    1
   105   161   162    1
   106   158   159    1
   107   127   130    1
   108   127   128    1
   109   130   131    1
   110    76    77    2
   111    58    57    2
   112    39    40    1
   113   163   162    1
   114   163   164   ar
   115    57    56    1
   116   131   133   ar
   117   134   135   ar
   118    61    60    1
   119    95    94    2
   120    98    96    1
   121    94    93    1
   122   128   129    2
   123   159   160    2
   124    40    41    1
   125   191   189   ar
   126   191   190   ar
   127   135   133   ar
   128    56    59    1
   129    56    55    1
   130    96    93    1
   131    96    97    1
   132    60    59    1
   133    60    62    1
   134    91    90    1
   135   189   187   ar
   136    93    92    1
   137   190   188   ar
   138    41    42    1
   139    97    99    1
   140    90    89   ar
   141    90    88   ar
   142    54    53    1
   143   187   186   ar
   144   195   194    2
   145    89    87   ar
   146   188   186   ar
   147    52    53   ar
   148    52    50   ar
   149    88    86   ar
   150   211   209    1
   151    53    51   ar
   152   186   185    1
   153   184   183    2
   154   194   193    1
   155   194   197   am
   156    87    85   ar
   157   193   196    1
   158   193   192    1
   159    50    48   ar
   160    86    85   ar
   161   183   192   am
   162   183   182    1
   163   199   198    1
   164   199   200    2
   165   198   197    1
   166   198   201    1
   167    51    49   ar
   168    46    45    2
   169   209   210    1
   170   209   206    1
   171   204   202    1
   172    85    84    1
   173   185   182    1
   174   205   206    1
   175    80    81    1
   176    45    44    1
   177   206   207    1
   178    48    49   ar
   179    48    47    1
   180   182   181    1
   181   201   202    1
   182   202   203    1
   183    83    82    2
   184   169   168    2
   185    84    81    1
   186    81    82    1
   187    47    44    1
   188   170   172    1
   189   170   167    1
   190   170   171    1
   191    44    43    1
   192   207   208    2
   193   168   167    1
   194   168   173   am
   195   167   166    1
   196   176   175    2
   197   179   178    1
   198   174   173    1
   199   174   175    1
   200   174   177    1
   201   178   177    1
   202   178   180    1
