@<TRIPOS>MOLECULE
tmp/6dkbA00.pdb
 225 216 0 0 0
SMALL
GASTEIGER

@<TRIPOS>ATOM
      1  N        -25.5040    4.9820  -30.2660 N.3    16  LEU16      -0.1231
      2  CA       -24.2260    4.3180  -29.9910 C.3    16  LEU16       0.1693
      3  C        -24.4160    2.9180  -29.3940 C.2    16  LEU16       0.2592
      4  O        -23.5960    2.0290  -29.6540 O.2    16  LEU16      -0.2718
      5  CB       -23.3140    5.1780  -29.0990 C.3    16  LEU16       0.0284
      6  CG       -22.7810    6.4840  -29.6850 C.3    16  LEU16       0.0019
      7  CD1      -22.2310    7.3630  -28.6070 C.3    16  LEU16       0.0001
      8  CD2      -21.7230    6.2440  -30.7340 C.3    16  LEU16       0.0001
      9  N        -25.5000    2.7410  -28.6280 N.am   17  GLY17      -0.1957
     10  CA       -25.8530    1.4800  -27.9810 C.3    17  GLY17       0.1869
     11  C        -27.1850    1.5090  -27.2520 C.2    17  GLY17       0.2309
     12  O        -27.8070    2.5730  -27.1330 O.2    17  GLY17      -0.2863
     13  N        -28.4730    5.0180  -25.7010 N.3    24  VAL24      -0.1245
     14  CA       -27.3330    5.9570  -25.6970 C.3    24  VAL24       0.1561
     15  C        -27.0950    6.4860  -27.1300 C.2    24  VAL24       0.2260
     16  O        -26.9480    5.6980  -28.0620 O.2    24  VAL24      -0.2867
     17  CB       -26.0290    5.4260  -25.0260 C.3    24  VAL24       0.0252
     18  CG1      -25.0150    6.5520  -24.8280 C.3    24  VAL24       0.0019
     19  CG2      -26.3230    4.7430  -23.6980 C.3    24  VAL24       0.0019
     20  N        -22.4060   12.2130  -25.3030 N.3    42  ALA42      -0.1245
     21  CA       -23.1290   10.9460  -25.2210 C.3    42  ALA42       0.1562
     22  C        -24.3860   11.1950  -24.3870 C.2    42  ALA42       0.2260
     23  O        -24.2960   11.6600  -23.2520 O.2    42  ALA42      -0.2867
     24  CB       -22.2660    9.8930  -24.5600 C.3    42  ALA42       0.0290
     25  N        -27.8470    9.6350  -22.7620 N.3    44  LYS44      -0.1245
     26  CA       -28.5520    8.4730  -22.2520 C.3    44  LYS44       0.1561
     27  C        -29.9920    8.9020  -21.9990 C.2    44  LYS44       0.2260
     28  O        -30.2500    9.8350  -21.2400 O.2    44  LYS44      -0.2867
     29  CB       -27.8790    7.9530  -20.9780 C.3    44  LYS44       0.0271
     30  CG       -28.5140    6.7190  -20.3560 C.3    44  LYS44       0.0035
     31  CD       -27.8690    6.4380  -19.0180 C.3    44  LYS44       0.0206
     32  CE       -28.6340    5.4200  -18.2230 C.3    44  LYS44       0.1093
     33  NZ       -28.1550    5.3590  -16.8180 N.3    44  LYS44      -0.1314
     34  N        -29.2340    9.2440   -8.9600 N.3    60  GLU60      -0.1245
     35  CA       -28.1020    8.8870   -9.8160 C.3    60  GLU60       0.1567
     36  C        -27.4200   10.1680  -10.3220 C.2    60  GLU60       0.2260
     37  O        -26.2060   10.3020  -10.1750 O.2    60  GLU60      -0.2867
     38  CB       -28.5990    8.0410  -10.9890 C.3    60  GLU60       0.0388
     39  CG       -27.6180    7.0000  -11.4970 C.3    60  GLU60       0.1160
     40  CD       -28.2490    5.9610  -12.4100 C.2    60  GLU60       0.3649
     41  OE1      -29.2690    5.3480  -12.0100 O.co2  60  GLU60      -0.2457
     42  OE2      -27.7180    5.7580  -13.5280 O.co2  60  GLU60      -0.2457
     43  N        -23.6250   11.3120   -9.7130 N.3    64  LEU64      -0.1245
     44  CA       -22.8240   11.5330  -10.9100 C.3    64  LEU64       0.1561
     45  C        -22.1940   12.9270  -10.8990 C.2    64  LEU64       0.2260
     46  O        -21.0220   13.0600  -11.2570 O.2    64  LEU64      -0.2867
     47  CB       -23.6770   11.2880  -12.1730 C.3    64  LEU64       0.0270
     48  CG       -23.6410    9.8730  -12.8440 C.3    64  LEU64       0.0019
     49  CD1      -22.3910    9.6710  -13.6300 C.3    64  LEU64       0.0001
     50  CD2      -23.7560    8.7320  -11.8590 C.3    64  LEU64       0.0001
     51  N        -19.1160   13.0710   -8.5010 N.3    67  LEU67      -0.1245
     52  CA       -17.9290   12.3220   -8.9370 C.3    67  LEU67       0.1561
     53  C        -17.2250   13.0910  -10.0630 C.2    67  LEU67       0.2260
     54  O        -17.7130   13.1540  -11.1900 O.2    67  LEU67      -0.2867
     55  CB       -18.2740   10.8740   -9.3450 C.3    67  LEU67       0.0270
     56  CG       -18.9830    9.9850   -8.3070 C.3    67  LEU67       0.0019
     57  CD1      -19.6990    8.8180   -8.9840 C.3    67  LEU67       0.0001
     58  CD2      -18.0210    9.4500   -7.2850 C.3    67  LEU67       0.0001
     59  N        -12.7460    9.2480  -14.6110 N.3    72  ILE72      -0.1231
     60  CA       -14.1430    8.9320  -14.3340 C.3    72  ILE72       0.1692
     61  C        -14.8340    9.6420  -15.4750 C.2    72  ILE72       0.2591
     62  O        -14.4920   10.8010  -15.7470 O.2    72  ILE72      -0.2718
     63  CB       -14.6040    9.4510  -12.9360 C.3    72  ILE72       0.0266
     64  CG1      -13.8130    8.7900  -11.7610 C.3    72  ILE72       0.0019
     65  CG2      -16.1370    9.3270  -12.7450 C.3    72  ILE72       0.0020
     66  CD1      -13.9500    7.2410  -11.5460 C.3    72  ILE72       0.0001
     67  N        -15.7250    8.9450  -16.2110 N.am   73  VAL73      -0.1980
     68  CA       -16.4010    9.5880  -17.3540 C.3    73  VAL73       0.1595
     69  C        -17.2350   10.7760  -16.8430 C.2    73  VAL73       0.2287
     70  O        -17.9770   10.6510  -15.8690 O.2    73  VAL73      -0.2864
     71  CB       -17.1680    8.6270  -18.3300 C.3    73  VAL73       0.0276
     72  CG1      -18.0390    7.6360  -17.6030 C.3    73  VAL73       0.0022
     73  CG2      -17.9710    9.3830  -19.3830 C.3    73  VAL73       0.0022
     74  N        -23.3780   13.0900  -21.0050 N.3    89  PHE89      -0.1227
     75  CA       -22.0250   12.6630  -20.6930 C.3    89  PHE89       0.1736
     76  C        -21.0820   13.0860  -21.8080 C.2    89  PHE89       0.2595
     77  O        -21.5330   13.4070  -22.9110 O.2    89  PHE89      -0.2718
     78  CB       -21.9750   11.1360  -20.5470 C.3    89  PHE89       0.0547
     79  CG       -22.8460   10.5780  -19.4520 C.ar   89  PHE89      -0.0202
     80  CD1      -24.1620   10.2000  -19.7120 C.ar   89  PHE89      -0.0042
     81  CD2      -22.3430   10.3880  -18.1720 C.ar   89  PHE89      -0.0042
     82  CE1      -24.9660    9.6750  -18.7020 C.ar   89  PHE89      -0.0003
     83  CE2      -23.1520    9.8720  -17.1620 C.ar   89  PHE89      -0.0003
     84  CZ       -24.4530    9.5100  -17.4370 C.ar   89  PHE89      -0.0000
     85  N        -19.7730   13.0800  -21.5270 N.am   90  GLU90      -0.1965
     86  CA       -18.7710   13.4010  -22.5490 C.3    90  GLU90       0.1733
     87  C        -18.7330   12.2700  -23.5890 C.2    90  GLU90       0.2616
     88  O        -19.1350   11.1370  -23.3110 O.2    90  GLU90      -0.2715
     89  CB       -17.3750   13.6270  -21.9310 C.3    90  GLU90       0.0429
     90  CG       -16.6900   12.3450  -21.4740 C.3    90  GLU90       0.1163
     91  CD       -15.4070   12.5220  -20.7020 C.2    90  GLU90       0.3649
     92  OE1      -14.5320   13.3040  -21.1350 O.co2  90  GLU90      -0.2457
     93  OE2      -15.2850   11.8750  -19.6430 O.co2  90  GLU90      -0.2457
     94  N        -18.2560   12.5910  -24.7760 N.am   91  TYR91      -0.1960
     95  CA       -18.1520   11.6290  -25.8480 C.3    91  TYR91       0.1771
     96  C        -16.7950   10.9090  -25.8350 C.2    91  TYR91       0.2619
     97  O        -15.7530   11.5520  -25.9590 O.2    91  TYR91      -0.2715
     98  CB       -18.4190   12.2970  -27.1980 C.3    91  TYR91       0.0574
     99  CG       -18.3170   11.3150  -28.3380 C.ar   91  TYR91      -0.0198
    100  CD1      -19.0150   10.1100  -28.3090 C.ar   91  TYR91      -0.0009
    101  CD2      -17.4990   11.5730  -29.4350 C.ar   91  TYR91      -0.0009
    102  CE1      -18.9180    9.2000  -29.3470 C.ar   91  TYR91       0.0417
    103  CE2      -17.3960   10.6650  -30.4850 C.ar   91  TYR91       0.0417
    104  CZ       -18.1220    9.4880  -30.4430 C.ar   91  TYR91       0.1957
    105  OH       -17.9960    8.5500  -31.4380 O.3    91  TYR91      -0.2866
    106  N        -16.8290    9.5850  -25.6570 N.am   92  MET92      -0.1963
    107  CA       -15.6900    8.6600  -25.6910 C.3    92  MET92       0.1736
    108  C        -15.8580    7.8520  -27.0060 C.2    92  MET92       0.2616
    109  O        -16.6210    6.8810  -27.0480 O.2    92  MET92      -0.2715
    110  CB       -15.7090    7.7190  -24.4640 C.3    92  MET92       0.0427
    111  CG       -15.7910    8.4440  -23.1190 C.3    92  MET92       0.0599
    112  SD       -14.2990    9.3320  -22.6430 S.3    92  MET92      -0.1393
    113  CE       -13.3580    8.0730  -21.9270 C.3    92  MET92       0.0692
    114  N        -15.1670    8.2940  -28.0700 N.am   93  ARG93      -0.1963
    115  CA       -15.2870    7.7790  -29.4360 C.3    93  ARG93       0.1729
    116  C        -15.0170    6.2880  -29.6270 C.2    93  ARG93       0.2616
    117  O        -15.7560    5.6660  -30.4060 O.2    93  ARG93      -0.2715
    118  CB       -14.4590    8.5920  -30.4480 C.3    93  ARG93       0.0348
    119  CG       -12.9700    8.6440  -30.1950 C.3    93  ARG93       0.0492
    120  CD       -12.3780    9.8790  -30.8220 C.3    93  ARG93       0.2205
    121  NE       -11.0210    9.6330  -31.3090 N.pl3  93  ARG93      -0.0865
    122  CZ       -10.6960    9.5210  -32.5910 C.cat  93  ARG93       0.5346
    123  NH1      -11.6280    9.6310  -33.5320 N.pl3  93  ARG93       0.1354
    124  NH2       -9.4360    9.3030  -32.9460 N.pl3  93  ARG93       0.1354
    125  N        -14.0090    5.7120  -28.9260 N.am   94  HIS94      -0.1959
    126  CA       -13.6520    4.2830  -29.0700 C.3    94  HIS94       0.1787
    127  C        -14.5430    3.2880  -28.2910 C.2    94  HIS94       0.2621
    128  O        -14.3530    2.0780  -28.4320 O.2    94  HIS94      -0.2715
    129  CB       -12.1780    4.0520  -28.7340 C.3    94  HIS94       0.0785
    130  CG       -11.2620    4.8950  -29.5650 C.ar   94  HIS94       0.0821
    131  ND1      -10.4550    5.8670  -28.9900 N.ar   94  HIS94      -0.2267
    132  CD2      -11.0940    4.9240  -30.9120 C.ar   94  HIS94       0.1154
    133  CE1       -9.8150    6.4440  -29.9980 C.ar   94  HIS94       0.1986
    134  NE2      -10.1750    5.9170  -31.1750 N.ar   94  HIS94      -0.2212
    135  N        -15.5250    3.7930  -27.5420 N.am   95  GLY95      -0.1940
    136  CA       -16.4580    2.9710  -26.7800 C.3    95  GLY95       0.2014
    137  C        -15.8410    2.3310  -25.5580 C.2    95  GLY95       0.2638
    138  O        -14.9010    2.8850  -24.9770 O.2    95  GLY95      -0.2714
    139  N        -16.3890    1.1730  -25.1420 N.am   96  ASP96      -0.1971
    140  CA       -15.9020    0.4550  -23.9610 C.3    96  ASP96       0.1709
    141  C        -14.5260   -0.1770  -24.1900 C.2    96  ASP96       0.2293
    142  O        -14.1760   -0.4860  -25.3340 O.2    96  ASP96      -0.2864
    143  CB       -16.9220   -0.5630  -23.4060 C.3    96  ASP96       0.1436
    144  CG       -17.2230   -1.7520  -24.2960 C.2    96  ASP96       0.3671
    145  OD1      -16.3050   -2.5780  -24.5220 O.co2  96  ASP96      -0.2456
    146  OD2      -18.3940   -1.9150  -24.6770 O.co2  96  ASP96      -0.2456
    147  N        -14.0980   -4.0370  -25.9920 N.3    99  ARG99      -0.1245
    148  CA       -14.1480   -4.0380  -27.4490 C.3    99  ARG99       0.1563
    149  C        -12.8530   -3.4380  -28.0340 C.2    99  ARG99       0.2260
    150  O        -12.3050   -4.0160  -28.9700 O.2    99  ARG99      -0.2867
    151  CB       -15.3860   -3.2810  -27.9540 C.3    99  ARG99       0.0307
    152  CG       -15.8380   -3.7160  -29.3510 C.3    99  ARG99       0.0489
    153  CD       -16.1570   -2.5190  -30.2390 C.3    99  ARG99       0.2205
    154  NE       -16.1950   -2.8770  -31.6600 N.pl3  99  ARG99      -0.0865
    155  CZ       -16.5970   -2.0630  -32.6320 C.cat  99  ARG99       0.5346
    156  NH1      -16.5980   -2.4760  -33.8930 N.pl3  99  ARG99       0.1354
    157  NH2      -17.0070   -0.8300  -32.3490 N.pl3  99  ARG99       0.1354
    158  N        -12.1060    6.7900   -6.3780 N.3   128  LEU128     -0.1245
    159  CA       -13.2890    6.1190   -5.8500 C.3   128  LEU128      0.1561
    160  C        -13.0970    5.6680   -4.4080 C.2   128  LEU128      0.2260
    161  O        -13.9100    6.0220   -3.5560 O.2   128  LEU128     -0.2867
    162  CB       -13.7430    4.9420   -6.7470 C.3   128  LEU128      0.0270
    163  CG       -14.3970    5.2870   -8.1220 C.3   128  LEU128      0.0019
    164  CD1      -15.0680    4.0480   -8.7240 C.3   128  LEU128      0.0001
    165  CD2      -15.3960    6.5070   -8.0520 C.3   128  LEU128      0.0001
    166  N        -16.3110    4.9960   -1.9250 N.3   133  PHE133     -0.1241
    167  CA       -17.1970    4.5460   -2.9850 C.3   133  PHE133      0.1605
    168  C        -16.8150    3.1450   -3.4210 C.2   133  PHE133      0.2264
    169  O        -15.6500    2.8820   -3.7580 O.2   133  PHE133     -0.2867
    170  CB       -17.1370    5.5140   -4.1830 C.3   133  PHE133      0.0534
    171  CG       -18.1700    5.2680   -5.2630 C.ar  133  PHE133     -0.0203
    172  CD1      -17.9310    4.3530   -6.2880 C.ar  133  PHE133     -0.0042
    173  CD2      -19.3630    5.9830   -5.2830 C.ar  133  PHE133     -0.0042
    174  CE1      -18.8830    4.1320   -7.2940 C.ar  133  PHE133     -0.0003
    175  CE2      -20.3110    5.7650   -6.2930 C.ar  133  PHE133     -0.0003
    176  CZ       -20.0590    4.8440   -7.2970 C.ar  133  PHE133     -0.0000
    177  N        -17.5350    0.5420   -6.3100 N.3   135  HIS135     -0.1241
    178  CA       -18.0470    0.4120   -7.6740 C.3   135  HIS135      0.1621
    179  C        -18.9460   -0.8350   -7.8280 C.2   135  HIS135      0.2264
    180  O        -20.0300   -0.7320   -8.4150 O.2   135  HIS135     -0.2867
    181  CB       -16.9020    0.4090   -8.7040 C.3   135  HIS135      0.0745
    182  CG       -17.3770    0.5610  -10.1210 C.ar  135  HIS135      0.0817
    183  ND1      -17.9170   -0.5010  -10.8200 N.ar  135  HIS135     -0.2268
    184  CD2      -17.4080    1.6590  -10.9100 C.ar  135  HIS135      0.1154
    185  CE1      -18.2600   -0.0190  -12.0030 C.ar  135  HIS135      0.1986
    186  NE2      -17.9630    1.2710  -12.1080 N.ar  135  HIS135     -0.2212
    187  N        -14.3230    3.2180  -20.3550 N.3   144  LEU144     -0.1245
    188  CA       -14.4520    3.8390  -21.6760 C.3   144  LEU144      0.1561
    189  C        -13.1280    4.3840  -22.1780 C.2   144  LEU144      0.2260
    190  O        -12.2910    4.8470  -21.3890 O.2   144  LEU144     -0.2867
    191  CB       -15.5510    4.9320  -21.6940 C.3   144  LEU144      0.0270
    192  CG       -17.0070    4.4440  -21.6250 C.3   144  LEU144      0.0019
    193  CD1      -17.8850    5.5390  -21.1190 C.3   144  LEU144      0.0001
    194  CD2      -17.5410    3.9940  -22.9990 C.3   144  LEU144      0.0001
    195  N        -13.4330    5.4450  -16.1440 N.3   153  ILE153     -0.1231
    196  CA       -14.3020    4.4640  -15.5240 C.3   153  ILE153      0.1692
    197  C        -15.7180    4.9620  -15.5460 C.2   153  ILE153      0.2593
    198  O        -15.9950    6.1110  -15.1880 O.2   153  ILE153     -0.2718
    199  CB       -13.8650    4.1040  -14.0940 C.3   153  ILE153      0.0266
    200  CG1      -12.4000    3.7000  -14.0650 C.3   153  ILE153      0.0019
    201  CG2      -14.7560    3.0130  -13.4900 C.3   153  ILE153      0.0020
    202  CD1      -11.8020    3.5150  -12.6890 C.3   153  ILE153      0.0001
    203  N        -16.5810    4.0990  -16.0300 N.am  154  GLY154     -0.1942
    204  CA       -18.0000    4.3470  -16.1170 C.3   154  GLY154      0.2014
    205  C        -18.7270    3.1490  -15.5690 C.2   154  GLY154      0.2639
    206  O        -18.1680    2.3800  -14.7610 O.2   154  GLY154     -0.2714
    207  N        -19.9710    2.9620  -16.0480 N.am  155  ASP155     -0.1957
    208  CA       -20.8700    1.8840  -15.6400 C.3   155  ASP155      0.1840
    209  C        -22.1250    1.8810  -16.4880 C.2   155  ASP155      0.2622
    210  O        -22.9170    2.8340  -16.4800 O.2   155  ASP155     -0.2715
    211  CB       -21.2610    2.0480  -14.1720 C.3   155  ASP155      0.1450
    212  CG       -22.0830    0.9390  -13.5660 C.2   155  ASP155      0.3671
    213  OD1      -22.1050   -0.1700  -14.1360 O.co2 155  ASP155     -0.2456
    214  OD2      -22.6460    1.1550  -12.4880 O.co2 155  ASP155     -0.2456
    215  N        -22.2920    0.7840  -17.2120 N.am  156  PHE156     -0.1974
    216  CA       -23.4580    0.4550  -18.0040 C.3   156  PHE156      0.1639
    217  C        -24.4290   -0.3190  -17.0220 C.2   156  PHE156      0.2290
    218  O        -24.5580    0.0380  -15.8360 O.2   156  PHE156     -0.2864
    219  CB       -23.0220   -0.4410  -19.1900 C.3   156  PHE156      0.0560
    220  CG       -22.1310    0.2240  -20.2210 C.ar  156  PHE156     -0.0200
    221  CD1      -20.7460    0.2350  -20.0670 C.ar  156  PHE156     -0.0042
    222  CD2      -22.6720    0.7890  -21.3730 C.ar  156  PHE156     -0.0042
    223  CE1      -19.9180    0.8360  -21.0270 C.ar  156  PHE156     -0.0003
    224  CE2      -21.8450    1.3770  -22.3370 C.ar  156  PHE156     -0.0003
    225  CZ       -20.4700    1.3890  -22.1630 C.ar  156  PHE156     -0.0000
@<TRIPOS>BOND
     1   156   155    1
     2   123   122    1
     3   124   122    1
     4   155   157    1
     5   155   154    2
     6   122   121    2
     7   154   153    1
     8   105   104    1
     9   121   120    1
    10   134   132   ar
    11   134   133   ar
    12   132   130   ar
    13   120   119    1
    14     8     6    1
    15   103   104   ar
    16   103   101   ar
    17   118   119    1
    18   118   115    1
    19   104   102   ar
    20   117   116    2
    21     1     2    1
    22   153   152    1
    23   133   131   ar
    24     2     3    1
    25     2     5    1
    26     6     5    1
    27     6     7    1
    28     4     3    2
    29   116   115    1
    30   116   125   am
    31   130   131   ar
    32   130   129    1
    33   115   114    1
    34   101    99   ar
    35     3     9   am
    36   152   151    1
    37   102   100   ar
    38   126   125    1
    39   126   129    1
    40   126   127    1
    41   150   149    2
    42     9    10    1
    43   128   127    2
    44    99   100   ar
    45    99    98    1
    46   127   135   am
    47   114   108   am
    48    16    15    2
    49   149   148    1
    50    10    11    1
    51   151   148    1
    52   135   136    1
    53   148   147    1
    54    11    12    2
    55    98    95    1
    56    15    14    1
    57   109   108    2
    58   108   107    1
    59   136   137    1
    60    97    96    2
    61    95    96    1
    62    95    94    1
    63    96   106   am
    64    13    14    1
    65    14    17    1
    66   107   106    1
    67   107   110    1
    68   137   139   am
    69   137   138    2
    70   142   141    2
    71    20    21    1
    72    21    24    1
    73    21    22    1
    74   139   140    1
    75    17    18    1
    76    17    19    1
    77    94    87   am
    78   146   144   ar
    79   145   144   ar
    80   110   111    1
    81    22    23    2
    82   144   143    1
    83   141   140    1
    84   140   143    1
    85    87    88    2
    86    87    86    1
    87   111   112    1
    88   194   192    1
    89    77    76    2
    90    25    26    1
    91   112   113    1
    92    86    89    1
    93    86    85    1
    94   224   225   ar
    95   224   222   ar
    96    26    27    1
    97    26    29    1
    98   189   188    1
    99   189   190    2
   100   225   223   ar
   101    27    28    2
   102    89    90    1
   103    76    85   am
   104    76    75    1
   105   191   188    1
   106   191   192    1
   107   188   187    1
   108   192   193    1
   109    90    91    1
   110   222   220   ar
   111    92    91   ar
   112   223   221   ar
   113    74    75    1
   114    29    30    1
   115    91    93   ar
   116    75    78    1
   117    78    79    1
   118    30    31    1
   119   220   221   ar
   120   220   219    1
   121    80    79   ar
   122    80    82   ar
   123    79    81   ar
   124    73    71    1
   125   219   216    1
   126    31    32    1
   127    82    84   ar
   128    71    72    1
   129    71    68    1
   130    32    33    1
   131    81    83   ar
   132   216   215    1
   133   216   217    1
   134    84    83   ar
   135    68    69    1
   136    68    67    1
   137   215   209   am
   138   217   218    2
   139    69    70    2
   140   209   210    2
   141   209   208    1
   142    67    61   am
   143   195   196    1
   144   204   203    1
   145   204   205    1
   146   207   208    1
   147   207   205   am
   148   203   197   am
   149    62    61    2
   150   208   211    1
   151   205   206    2
   152   197   196    1
   153   197   198    2
   154   196   199    1
   155    61    60    1
   156    59    60    1
   157    60    63    1
   158   211   212    1
   159   213   212   ar
   160   199   200    1
   161   199   201    1
   162   200   202    1
   163    49    48    1
   164   212   214   ar
   165    42    40   ar
   166    63    65    1
   167    63    64    1
   168    48    47    1
   169    48    50    1
   170    40    41   ar
   171    40    39    1
   172    47    44    1
   173   186   185   ar
   174   186   184   ar
   175   185   183   ar
   176    64    66    1
   177    39    38    1
   178    46    45    2
   179    54    53    2
   180    38    35    1
   181   184   182   ar
   182    44    45    1
   183    44    43    1
   184   183   182   ar
   185    36    37    2
   186    36    35    1
   187   182   181    1
   188    53    52    1
   189    35    34    1
   190    55    52    1
   191    55    56    1
   192    57    56    1
   193    52    51    1
   194   164   163    1
   195   181   178    1
   196   180   179    2
   197    56    58    1
   198   163   165    1
   199   163   162    1
   200   179   178    1
   201   178   177    1
   202   176   174   ar
   203   176   175   ar
   204   174   172   ar
   205   162   159    1
   206   158   159    1
   207   175   173   ar
   208   172   171   ar
   209   159   160    1
   210   173   171   ar
   211   171   170    1
   212   160   161    2
   213   170   167    1
   214   169   168    2
   215   168   167    1
   216   167   166    1
