@<TRIPOS>MOLECULE
tmp/6dkgA01.pdb
 225 214 0 0 0
SMALL
GASTEIGER

@<TRIPOS>ATOM
      1  N        -25.6540    4.6740  -30.0730 N.3    17  LEU17      -0.1231
      2  CA       -24.4540    3.9430  -29.6680 C.3    17  LEU17       0.1693
      3  C        -24.7510    2.5370  -29.1030 C.2    17  LEU17       0.2593
      4  O        -23.9070    1.6560  -29.1870 O.2    17  LEU17      -0.2718
      5  CB       -23.5950    4.7840  -28.6970 C.3    17  LEU17       0.0284
      6  CG       -23.0590    6.1210  -29.2780 C.3    17  LEU17       0.0019
      7  CD1      -22.3800    6.9590  -28.2230 C.3    17  LEU17       0.0001
      8  CD2      -22.1450    5.9170  -30.4770 C.3    17  LEU17       0.0001
      9  N        -25.9500    2.3370  -28.5940 N.am   18  GLY18      -0.1942
     10  CA       -26.3870    1.0740  -28.0180 C.3    18  GLY18       0.2014
     11  C        -27.6760    1.2170  -27.2360 C.2    18  GLY18       0.2641
     12  O        -28.2200    2.3280  -27.1210 O.2    18  GLY18      -0.2714
     13  N        -28.1770    0.0780  -26.6950 N.am   19  GLU19      -0.1931
     14  CA       -29.4080    0.0110  -25.9110 C.3    19  GLU19       0.1818
     15  C        -29.4540   -1.1630  -24.9210 C.2    19  GLU19       0.2332
     16  O        -28.6050   -2.0610  -24.9600 O.2    19  GLU19      -0.2860
     17  CB       -30.6510    0.0230  -26.8110 C.2    19  GLU19       0.0097
     18  CG       -30.7460   -1.1210  -27.7970 C.2    19  GLU19       0.0837
     19  CD       -32.1090   -1.3700  -28.4250 C.2    19  GLU19       0.3877
     20  OE1      -32.1840   -2.2610  -29.3030 O.co2  19  GLU19      -0.2406
     21  OE2      -33.1000   -0.7010  -28.0420 O.co2  19  GLU19      -0.2406
     22  N        -28.7610    4.6290  -25.5440 N.3    25  VAL25      -0.1245
     23  CA       -27.5940    5.5280  -25.4520 C.3    25  VAL25       0.1561
     24  C        -27.3780    6.1080  -26.8610 C.2    25  VAL25       0.2260
     25  O        -27.2880    5.3470  -27.8220 O.2    25  VAL25      -0.2867
     26  CB       -26.3020    4.9120  -24.8320 C.3    25  VAL25       0.0252
     27  CG1      -25.1840    5.9540  -24.7050 C.3    25  VAL25       0.0019
     28  CG2      -26.5900    4.2940  -23.4690 C.3    25  VAL25       0.0019
     29  N        -22.5880   11.7900  -25.2490 N.3    43  ALA43      -0.1245
     30  CA       -23.2840   10.5110  -25.2340 C.3    43  ALA43       0.1562
     31  C        -24.4710   10.7650  -24.3110 C.2    43  ALA43       0.2260
     32  O        -24.3100   11.3860  -23.2610 O.2    43  ALA43      -0.2867
     33  CB       -22.4110    9.4160  -24.6850 C.3    43  ALA43       0.0290
     34  N        -27.6970    9.1830  -22.3200 N.3    45  LYS45      -0.1245
     35  CA       -28.3510    7.9790  -21.7940 C.3    45  LYS45       0.1561
     36  C        -29.8070    8.3830  -21.5800 C.2    45  LYS45       0.2260
     37  O        -30.0740    9.3500  -20.8640 O.2    45  LYS45      -0.2867
     38  CB       -27.6830    7.4710  -20.5000 C.3    45  LYS45       0.0271
     39  CG       -28.2620    6.1630  -19.9800 C.3    45  LYS45       0.0035
     40  CD       -27.9070    5.9950  -18.5300 C.3    45  LYS45       0.0206
     41  CE       -28.6850    4.8900  -17.8520 C.3    45  LYS45       0.1093
     42  NZ       -27.9210    3.6140  -17.8110 N.3    45  LYS45      -0.1314
     43  N        -29.0030    9.2610   -8.6910 N.3    61  GLU61      -0.1245
     44  CA       -27.9100    8.9140   -9.5960 C.3    61  GLU61       0.1567
     45  C        -27.2180   10.1620  -10.2080 C.2    61  GLU61       0.2260
     46  O        -25.9950   10.2270  -10.1950 O.2    61  GLU61      -0.2867
     47  CB       -28.4460    7.9810  -10.6920 C.3    61  GLU61       0.0388
     48  CG       -27.3740    7.3910  -11.5920 C.3    61  GLU61       0.1160
     49  CD       -27.8340    6.4830  -12.7140 C.2    61  GLU61       0.3649
     50  OE1      -29.0460    6.4740  -13.0320 O.co2  61  GLU61      -0.2457
     51  OE2      -26.9650    5.7870  -13.2870 O.co2  61  GLU61      -0.2457
     52  N        -23.3730   11.3250   -9.7820 N.3    65  LEU65      -0.1245
     53  CA       -22.4970   11.5500  -10.9310 C.3    65  LEU65       0.1561
     54  C        -22.0080   13.0000  -10.9610 C.2    65  LEU65       0.2260
     55  O        -20.9330   13.2570  -11.4970 O.2    65  LEU65      -0.2867
     56  CB       -23.2000   11.1900  -12.2520 C.3    65  LEU65       0.0270
     57  CG       -23.6190    9.7310  -12.4360 C.3    65  LEU65       0.0019
     58  CD1      -24.6280    9.5950  -13.5350 C.3    65  LEU65       0.0001
     59  CD2      -22.4490    8.8790  -12.7280 C.3    65  LEU65       0.0001
     60  N        -18.9010   13.0830   -8.4530 N.3    68  LEU68      -0.1245
     61  CA       -17.7360   12.3800   -8.9960 C.3    68  LEU68       0.1561
     62  C        -17.0480   13.1580  -10.1230 C.2    68  LEU68       0.2260
     63  O        -17.4240   13.0370  -11.2910 O.2    68  LEU68      -0.2867
     64  CB       -18.0840   10.9350   -9.4130 C.3    68  LEU68       0.0270
     65  CG       -18.7700   10.0510   -8.3270 C.3    68  LEU68       0.0019
     66  CD1      -19.1270    8.6710   -8.8510 C.3    68  LEU68       0.0001
     67  CD2      -17.9230    9.9090   -7.0770 C.3    68  LEU68       0.0001
     68  N        -12.5320    9.5210  -14.5190 N.3    73  ILE73      -0.1231
     69  CA       -13.9360    9.2650  -14.2330 C.3    73  ILE73       0.1692
     70  C        -14.6600    9.9860  -15.3540 C.2    73  ILE73       0.2591
     71  O        -14.4050   11.1830  -15.5620 O.2    73  ILE73      -0.2718
     72  CB       -14.3970    9.7340  -12.8110 C.3    73  ILE73       0.0266
     73  CG1      -13.6210    9.0040  -11.6610 C.3    73  ILE73       0.0019
     74  CG2      -15.9030    9.5550  -12.6530 C.3    73  ILE73       0.0020
     75  CD1      -13.9270    7.4310  -11.4310 C.3    73  ILE73       0.0001
     76  N        -15.5230    9.2480  -16.0990 N.am   74  VAL74      -0.1980
     77  CA       -16.3150    9.7570  -17.2310 C.3    74  VAL74       0.1595
     78  C        -17.1470   10.9730  -16.7760 C.2    74  VAL74       0.2287
     79  O        -17.8910   10.8920  -15.7880 O.2    74  VAL74      -0.2864
     80  CB       -17.2000    8.6520  -17.8670 C.3    74  VAL74       0.0276
     81  CG1      -18.0650    9.2060  -19.0020 C.3    74  VAL74       0.0022
     82  CG2      -16.3650    7.4650  -18.3330 C.3    74  VAL74       0.0022
     83  N        -23.4130   12.8880  -20.8770 N.3    90  PHE90      -0.1227
     84  CA       -22.0230   12.5680  -20.5340 C.3    90  PHE90       0.1736
     85  C        -21.1520   12.9730  -21.6950 C.2    90  PHE90       0.2595
     86  O        -21.6740   13.2140  -22.7850 O.2    90  PHE90      -0.2718
     87  CB       -21.8440   11.0530  -20.3060 C.3    90  PHE90       0.0547
     88  CG       -22.7690   10.4300  -19.2930 C.ar   90  PHE90      -0.0202
     89  CD1      -23.9930    9.8970  -19.6820 C.ar   90  PHE90      -0.0042
     90  CD2      -22.4310   10.3960  -17.9460 C.ar   90  PHE90      -0.0042
     91  CE1      -24.8560    9.3320  -18.7390 C.ar   90  PHE90      -0.0003
     92  CE2      -23.2830    9.8140  -17.0130 C.ar   90  PHE90      -0.0003
     93  CZ       -24.4930    9.2920  -17.4110 C.ar   90  PHE90      -0.0000
     94  N        -19.8260   12.9870  -21.4870 N.am   91  GLU91      -0.1965
     95  CA       -18.8620   13.2640  -22.5480 C.3    91  GLU91       0.1733
     96  C        -18.8180   12.0820  -23.4880 C.2    91  GLU91       0.2616
     97  O        -19.0740   10.9440  -23.0700 O.2    91  GLU91      -0.2715
     98  CB       -17.4600   13.5540  -21.9730 C.3    91  GLU91       0.0429
     99  CG       -16.7170   12.3260  -21.4680 C.3    91  GLU91       0.1163
    100  CD       -15.3800   12.5760  -20.8110 C.2    91  GLU91       0.3649
    101  OE1      -14.4870   13.2020  -21.4290 O.co2  91  GLU91      -0.2457
    102  OE2      -15.2220   12.1140  -19.6630 O.co2  91  GLU91      -0.2457
    103  N        -18.5100   12.3450  -24.7490 N.am   92  TYR92      -0.1960
    104  CA       -18.3870   11.2920  -25.7440 C.3    92  TYR92       0.1771
    105  C        -16.9440   10.7860  -25.7440 C.2    92  TYR92       0.2619
    106  O        -15.9890   11.5600  -25.9190 O.2    92  TYR92      -0.2715
    107  CB       -18.8070   11.7930  -27.1410 C.3    92  TYR92       0.0574
    108  CG       -18.6470   10.7500  -28.2290 C.ar   92  TYR92      -0.0198
    109  CD1      -19.3570    9.5500  -28.1820 C.ar   92  TYR92      -0.0009
    110  CD2      -17.8000   10.9660  -29.3140 C.ar   92  TYR92      -0.0009
    111  CE1      -19.1930    8.5730  -29.1550 C.ar   92  TYR92       0.0417
    112  CE2      -17.6490   10.0000  -30.3160 C.ar   92  TYR92       0.0417
    113  CZ       -18.3570    8.8090  -30.2340 C.ar   92  TYR92       0.1957
    114  OH       -18.2090    7.8130  -31.1740 O.3    92  TYR92      -0.2866
    115  N        -16.8020    9.4890  -25.5250 N.am   93  MET93      -0.1977
    116  CA       -15.5370    8.7580  -25.5330 C.3    93  MET93       0.1605
    117  C        -15.4840    8.1000  -26.9180 C.2    93  MET93       0.2287
    118  O        -16.1860    7.1170  -27.1700 O.2    93  MET93      -0.2864
    119  CB       -15.5120    7.7330  -24.3770 C.3    93  MET93       0.0413
    120  CG       -15.7180    8.3500  -22.9830 C.3    93  MET93       0.0598
    121  SD       -14.5030    9.6030  -22.4840 S.3    93  MET93      -0.1393
    122  CE       -13.1380    8.6030  -21.9890 C.3    93  MET93       0.0692
    123  N        -15.0150    4.1090  -27.4840 N.3    96  GLY96      -0.1210
    124  CA       -15.9320    3.1710  -26.8510 C.3    96  GLY96       0.1956
    125  C        -15.3740    2.5060  -25.6160 C.2    96  GLY96       0.2611
    126  O        -14.4570    3.0350  -24.9920 O.2    96  GLY96      -0.2717
    127  N        -15.9430    1.3700  -25.2210 N.am   97  ASP97      -0.1973
    128  CA       -15.5160    0.7070  -23.9880 C.3    97  ASP97       0.1709
    129  C        -14.1030    0.0790  -24.1000 C.2    97  ASP97       0.2293
    130  O        -13.6610   -0.3160  -25.1850 O.2    97  ASP97      -0.2864
    131  CB       -16.5790   -0.2900  -23.4650 C.3    97  ASP97       0.1436
    132  CG       -16.7790   -1.5090  -24.3260 C.2    97  ASP97       0.3671
    133  OD1      -17.7000   -1.4910  -25.1620 O.co2  97  ASP97      -0.2456
    134  OD2      -15.9920   -2.4780  -24.1810 O.co2  97  ASP97      -0.2456
    135  N        -13.7640   -3.6320  -25.7480 N.3   100  ARG100     -0.1245
    136  CA       -13.8610   -3.5850  -27.2000 C.3   100  ARG100      0.1563
    137  C        -12.5650   -3.0570  -27.8050 C.2   100  ARG100      0.2260
    138  O        -12.0550   -3.6540  -28.7570 O.2   100  ARG100     -0.2867
    139  CB       -15.0560   -2.7180  -27.6270 C.3   100  ARG100      0.0307
    140  CG       -15.6820   -3.2110  -28.9240 C.3   100  ARG100      0.0489
    141  CD       -16.9060   -2.4190  -29.3630 C.3   100  ARG100      0.2205
    142  NE       -17.1780   -2.6130  -30.7940 N.pl3 100  ARG100     -0.0865
    143  CZ       -17.9150   -3.5980  -31.3080 C.cat 100  ARG100      0.5346
    144  NH1      -18.0800   -3.6950  -32.6210 N.pl3 100  ARG100      0.1354
    145  NH2      -18.4920   -4.4920  -30.5130 N.pl3 100  ARG100      0.1354
    146  N        -12.1000    7.1380   -6.3200 N.3   130  LEU130     -0.1245
    147  CA       -13.2740    6.4630   -5.7550 C.3   130  LEU130      0.1561
    148  C        -13.0600    5.9580   -4.3430 C.2   130  LEU130      0.2260
    149  O        -13.9450    6.1320   -3.5020 O.2   130  LEU130     -0.2867
    150  CB       -13.7940    5.3330   -6.6670 C.3   130  LEU130      0.0270
    151  CG       -14.3200    5.7820   -8.0520 C.3   130  LEU130      0.0019
    152  CD1      -14.7840    4.5900   -8.8650 C.3   130  LEU130      0.0001
    153  CD2      -15.4210    6.8940   -7.9350 C.3   130  LEU130      0.0001
    154  N        -16.3210    5.2590   -2.0490 N.3   135  PHE135     -0.1241
    155  CA       -17.2360    4.8220   -3.1010 C.3   135  PHE135      0.1605
    156  C        -16.8250    3.4480   -3.5820 C.2   135  PHE135      0.2264
    157  O        -15.6830    3.2560   -4.0190 O.2   135  PHE135     -0.2867
    158  CB       -17.2580    5.8280   -4.2770 C.3   135  PHE135      0.0534
    159  CG       -18.1640    5.4360   -5.4320 C.ar  135  PHE135     -0.0203
    160  CD1      -17.6490    4.8060   -6.5630 C.ar  135  PHE135     -0.0042
    161  CD2      -19.5370    5.6600   -5.3730 C.ar  135  PHE135     -0.0042
    162  CE1      -18.4830    4.4360   -7.6310 C.ar  135  PHE135     -0.0003
    163  CE2      -20.3730    5.2700   -6.4330 C.ar  135  PHE135     -0.0003
    164  CZ       -19.8360    4.6640   -7.5580 C.ar  135  PHE135     -0.0000
    165  N        -17.4140    0.6280   -6.3390 N.3   137  HIS137     -0.1241
    166  CA       -17.9000    0.4970   -7.7040 C.3   137  HIS137      0.1621
    167  C        -18.8080   -0.7170   -7.8550 C.2   137  HIS137      0.2264
    168  O        -19.9200   -0.5710   -8.3680 O.2   137  HIS137     -0.2867
    169  CB       -16.7510    0.5130   -8.7240 C.3   137  HIS137      0.0745
    170  CG       -17.2170    0.6210  -10.1400 C.ar  137  HIS137      0.0817
    171  ND1      -17.7640   -0.4600  -10.8020 N.ar  137  HIS137     -0.2268
    172  CD2      -17.2250    1.6900  -10.9680 C.ar  137  HIS137      0.1154
    173  CE1      -18.0880   -0.0150  -12.0080 C.ar  137  HIS137      0.1986
    174  NE2      -17.7750    1.2670  -12.1580 N.ar  137  HIS137     -0.2212
    175  N        -14.0020    3.4830  -20.3370 N.3   146  LEU146     -0.1245
    176  CA       -14.1310    4.0570  -21.6730 C.3   146  LEU146      0.1561
    177  C        -12.8520    4.7020  -22.1120 C.2   146  LEU146      0.2260
    178  O        -12.0190    5.0620  -21.2660 O.2   146  LEU146     -0.2867
    179  CB       -15.3230    5.0210  -21.7650 C.3   146  LEU146      0.0270
    180  CG       -16.6850    4.3350  -21.6890 C.3   146  LEU146      0.0019
    181  CD1      -17.5640    5.0240  -20.7090 C.3   146  LEU146      0.0001
    182  CD2      -17.3240    4.1610  -23.0830 C.3   146  LEU146      0.0001
    183  N        -13.1600    5.6550  -16.0430 N.3   155  ILE155     -0.1231
    184  CA       -14.0840    4.6790  -15.4840 C.3   155  ILE155      0.1692
    185  C        -15.5210    5.2000  -15.5680 C.2   155  ILE155      0.2593
    186  O        -15.7780    6.3630  -15.2130 O.2   155  ILE155     -0.2718
    187  CB       -13.7000    4.2390  -14.0230 C.3   155  ILE155      0.0266
    188  CG1      -12.2910    3.6130  -13.9390 C.3   155  ILE155      0.0019
    189  CG2      -14.7360    3.2750  -13.4180 C.3   155  ILE155      0.0020
    190  CD1      -11.6840    3.7560  -12.5440 C.3   155  ILE155      0.0001
    191  N        -16.4170    4.3140  -16.0380 N.am  156  GLY156     -0.1942
    192  CA       -17.8680    4.4710  -16.0840 C.3   156  GLY156      0.2014
    193  C        -18.5990    3.2590  -15.4850 C.2   156  GLY156      0.2639
    194  O        -18.0500    2.5260  -14.6500 O.2   156  GLY156     -0.2714
    195  N        -19.8420    3.0200  -15.9350 N.am  157  ASP157     -0.1957
    196  CA       -20.7030    1.8800  -15.5650 C.3   157  ASP157      0.1840
    197  C        -21.8860    1.9210  -16.5160 C.2   157  ASP157      0.2622
    198  O        -22.6920    2.8500  -16.4590 O.2   157  ASP157     -0.2715
    199  CB       -21.1760    1.9460  -14.0890 C.3   157  ASP157      0.1450
    200  CG       -21.7260    0.6600  -13.4740 C.2   157  ASP157      0.3671
    201  OD1      -21.6820   -0.3960  -14.1470 O.co2 157  ASP157     -0.2456
    202  OD2      -22.1490    0.6980  -12.2980 O.co2 157  ASP157     -0.2456
    203  N        -21.9450    0.9730  -17.4460 N.am  158  PHE158     -0.1974
    204  CA       -23.0240    0.8940  -18.4290 C.3   158  PHE158      0.1639
    205  C        -24.3120    0.3200  -17.7810 C.2   158  PHE158      0.2290
    206  O        -25.4420    0.6610  -18.1800 O.2   158  PHE158     -0.2864
    207  CB       -22.5970    0.0110  -19.6120 C.3   158  PHE158      0.0560
    208  CG       -21.5570    0.5830  -20.5490 C.ar  158  PHE158     -0.0200
    209  CD1      -21.9060    1.0110  -21.8180 C.ar  158  PHE158     -0.0042
    210  CD2      -20.2130    0.6270  -20.1860 C.ar  158  PHE158     -0.0042
    211  CE1      -20.9320    1.4730  -22.7060 C.ar  158  PHE158     -0.0003
    212  CE2      -19.2470    1.1220  -21.0650 C.ar  158  PHE158     -0.0003
    213  CZ       -19.6080    1.5160  -22.3250 C.ar  158  PHE158     -0.0000
    214  N        -22.8320   -8.0520  -23.3130 N.3   160  TYR160     -0.1241
    215  CA       -22.0140   -8.3540  -22.1350 C.3   160  TYR160      0.1605
    216  C        -22.7940   -9.1070  -21.0300 C.2   160  TYR160      0.2264
    217  O        -22.3360   -9.1710  -19.8850 O.2   160  TYR160     -0.2867
    218  CB       -21.3240   -7.0840  -21.5780 C.3   160  TYR160      0.0534
    219  CG       -20.2630   -6.4720  -22.4750 C.ar  160  TYR160     -0.0201
    220  CD1      -18.9630   -6.9750  -22.4970 C.ar  160  TYR160     -0.0009
    221  CD2      -20.5340   -5.3380  -23.2360 C.ar  160  TYR160     -0.0009
    222  CE1      -17.9770   -6.3990  -23.2990 C.ar  160  TYR160      0.0417
    223  CE2      -19.5560   -4.7490  -24.0360 C.ar  160  TYR160      0.0417
    224  CZ       -18.2780   -5.2830  -24.0640 C.ar  160  TYR160      0.1957
    225  OH       -17.3180   -4.7090  -24.8590 O.3   160  TYR160     -0.2866
@<TRIPOS>BOND
     1   144   143    1
     2   143   142    2
     3   143   145    1
     4   114   113    1
     5   142   141    1
     6     8     6    1
     7   112   113   ar
     8   112   110   ar
     9   113   111   ar
    10     1     2    1
    11     2     3    1
    12     2     5    1
    13   141   140    1
    14   110   108   ar
    15    20    19   ar
    16     6     5    1
    17     6     7    1
    18     4     3    2
    19   111   109   ar
    20     3     9   am
    21   140   139    1
    22   138   137    2
    23     9    10    1
    24    19    21   ar
    25    19    18    1
    26   108   109   ar
    27   108   107    1
    28    10    11    1
    29    25    24    2
    30   137   136    1
    31    18    17    2
    32   139   136    1
    33   123   124    1
    34    11    12    2
    35    11    13   am
    36   136   135    1
    37   118   117    2
    38   107   104    1
    39   117   116    1
    40    24    23    1
    41   124   125    1
    42    17    14    1
    43    13    14    1
    44   106   105    2
    45    14    15    1
    46   105   104    1
    47   105   115   am
    48   104   103    1
    49   125   127   am
    50   125   126    2
    51    22    23    1
    52   116   115    1
    53   116   119    1
    54    23    26    1
    55    29    30    1
    56    30    33    1
    57    30    31    1
    58   127   128    1
    59   130   129    2
    60   133   132   ar
    61    16    15    2
    62   225   224    1
    63    26    27    1
    64    26    28    1
    65   103    96   am
    66   119   120    1
    67   132   134   ar
    68   132   131    1
    69    31    32    2
    70   129   128    1
    71   224   223   ar
    72   224   222   ar
    73   223   221   ar
    74   128   131    1
    75    96    97    2
    76    96    95    1
    77   214   215    1
    78   222   220   ar
    79   221   219   ar
    80   182   180    1
    81   120   121    1
    82    86    85    2
    83   211   213   ar
    84   211   209   ar
    85    95    98    1
    86    95    94    1
    87   220   219   ar
    88   121   122    1
    89   219   218    1
    90   213   212   ar
    91    34    35    1
    92   215   218    1
    93   215   216    1
    94   177   176    1
    95   177   178    2
    96    98    99    1
    97   209   208   ar
    98    35    36    1
    99    35    38    1
   100   179   180    1
   101   179   176    1
   102    85    94   am
   103    85    84    1
   104   180   181    1
   105   176   175    1
   106    36    37    2
   107    99   100    1
   108   101   100   ar
   109   212   210   ar
   110   216   217    2
   111    83    84    1
   112   100   102   ar
   113   208   210   ar
   114   208   207    1
   115    84    87    1
   116    38    39    1
   117    87    88    1
   118    39    40    1
   119    89    88   ar
   120    89    91   ar
   121   207   204    1
   122    88    90   ar
   123    81    80    1
   124    91    93   ar
   125    40    41    1
   126   204   205    1
   127   204   203    1
   128    82    80    1
   129   206   205    2
   130    90    92   ar
   131    80    77    1
   132    41    42    1
   133   203   197   am
   134    93    92   ar
   135    77    78    1
   136    77    76    1
   137    78    79    2
   138   197   198    2
   139   197   196    1
   140    76    70   am
   141   192   191    1
   142   192   193    1
   143   183   184    1
   144   191   185   am
   145   195   196    1
   146   195   193   am
   147   185   184    1
   148   185   186    2
   149   196   199    1
   150    71    70    2
   151   193   194    2
   152   184   187    1
   153    70    69    1
   154    68    69    1
   155    69    72    1
   156   201   200   ar
   157   199   200    1
   158   187   188    1
   159   187   189    1
   160   188   190    1
   161    58    57    1
   162   200   202   ar
   163    51    49   ar
   164    50    49   ar
   165    72    74    1
   166    72    73    1
   167    59    57    1
   168    49    48    1
   169    57    56    1
   170    56    53    1
   171   174   173   ar
   172   174   172   ar
   173   173   171   ar
   174    73    75    1
   175    48    47    1
   176    55    54    2
   177    63    62    2
   178   172   170   ar
   179    54    53    1
   180    53    52    1
   181   171   170   ar
   182    47    44    1
   183    45    46    2
   184    45    44    1
   185   170   169    1
   186    62    61    1
   187    44    43    1
   188    64    61    1
   189    64    65    1
   190    61    60    1
   191   152   151    1
   192    66    65    1
   193   169   166    1
   194   168   167    2
   195    65    67    1
   196   151   153    1
   197   151   150    1
   198   167   166    1
   199   166   165    1
   200   162   164   ar
   201   162   160   ar
   202   164   163   ar
   203   150   147    1
   204   160   159   ar
   205   163   161   ar
   206   146   147    1
   207   147   148    1
   208   159   161   ar
   209   159   158    1
   210   148   149    2
   211   158   155    1
   212   157   156    2
   213   156   155    1
   214   155   154    1
