@<TRIPOS>MOLECULE
tmp/6dkiA01.pdb
 200 190 0 0 0
SMALL
GASTEIGER

@<TRIPOS>ATOM
      1  N        -25.8680    4.5270  -30.1560 N.3    17  LEU17      -0.1245
      2  CA       -24.6020    3.8540  -29.8090 C.3    17  LEU17       0.1561
      3  C        -24.8470    2.4660  -29.2150 C.2    17  LEU17       0.2260
      4  O        -23.9880    1.5810  -29.3300 O.2    17  LEU17      -0.2867
      5  CB       -23.7750    4.6930  -28.8250 C.3    17  LEU17       0.0270
      6  CG       -23.2710    6.0710  -29.3000 C.3    17  LEU17       0.0019
      7  CD1      -22.7170    6.8840  -28.1200 C.3    17  LEU17       0.0001
      8  CD2      -22.1970    5.9360  -30.3730 C.3    17  LEU17       0.0001
      9  N        -28.6980    4.5300  -25.6560 N.3    25  VAL25      -0.1245
     10  CA       -27.5480    5.4220  -25.5690 C.3    25  VAL25       0.1561
     11  C        -27.3600    6.0130  -26.9520 C.2    25  VAL25       0.2260
     12  O        -27.2560    5.2720  -27.9170 O.2    25  VAL25      -0.2867
     13  CB       -26.2610    4.7740  -24.9670 C.3    25  VAL25       0.0252
     14  CG1      -25.0990    5.7720  -24.9510 C.3    25  VAL25       0.0019
     15  CG2      -26.5310    4.2630  -23.5510 C.3    25  VAL25       0.0019
     16  N        -22.5090   11.8370  -25.3220 N.3    43  ALA43      -0.1245
     17  CA       -23.1910   10.5480  -25.2690 C.3    43  ALA43       0.1562
     18  C        -24.4150   10.8090  -24.3790 C.2    43  ALA43       0.2260
     19  O        -24.2830   11.4180  -23.3090 O.2    43  ALA43      -0.2867
     20  CB       -22.3100    9.4870  -24.6440 C.3    43  ALA43       0.0290
     21  N        -27.6430    9.1060  -22.4120 N.3    45  LYS45      -0.1245
     22  CA       -28.3080    7.9190  -21.8770 C.3    45  LYS45       0.1561
     23  C        -29.7850    8.3010  -21.6390 C.2    45  LYS45       0.2260
     24  O        -30.0600    9.2320  -20.8760 O.2    45  LYS45      -0.2867
     25  CB       -27.6310    7.4330  -20.5790 C.3    45  LYS45       0.0271
     26  CG       -28.2050    6.1020  -20.0680 C.3    45  LYS45       0.0035
     27  CD       -27.3940    5.5530  -18.9070 C.3    45  LYS45       0.0206
     28  CE       -28.0760    4.3440  -18.2960 C.3    45  LYS45       0.1093
     29  NZ       -27.1300    3.4330  -17.5910 N.3    45  LYS45      -0.1314
     30  N        -28.9490    9.3100   -8.7510 N.3    61  GLU61      -0.1245
     31  CA       -27.8340    8.9830   -9.6290 C.3    61  GLU61       0.1567
     32  C        -27.1990   10.2560  -10.2120 C.2    61  GLU61       0.2260
     33  O        -25.9790   10.3940  -10.1360 O.2    61  GLU61      -0.2867
     34  CB       -28.2870    7.9960  -10.7220 C.3    61  GLU61       0.0388
     35  CG       -27.1670    7.4690  -11.6030 C.3    61  GLU61       0.1160
     36  CD       -27.6010    6.6150  -12.7810 C.2    61  GLU61       0.3649
     37  OE1      -28.7760    6.1810  -12.8160 O.co2  61  GLU61      -0.2457
     38  OE2      -26.7530    6.3660  -13.6680 O.co2  61  GLU61      -0.2457
     39  N        -23.4220   11.5360   -9.7130 N.3    65  LEU65      -0.1245
     40  CA       -22.6120   11.7970  -10.8950 C.3    65  LEU65       0.1561
     41  C        -22.0820   13.2300  -10.9340 C.2    65  LEU65       0.2260
     42  O        -20.9500   13.4280  -11.3610 O.2    65  LEU65      -0.2867
     43  CB       -23.3540   11.4320  -12.1940 C.3    65  LEU65       0.0270
     44  CG       -23.6210    9.9490  -12.4210 C.3    65  LEU65       0.0019
     45  CD1      -24.6350    9.7480  -13.5360 C.3    65  LEU65       0.0001
     46  CD2      -22.3320    9.1990  -12.6730 C.3    65  LEU65       0.0001
     47  N        -18.8540   13.3940   -8.4600 N.3    68  LEU68      -0.1245
     48  CA       -17.6260   12.7610   -8.9680 C.3    68  LEU68       0.1561
     49  C        -16.9540   13.6490  -10.0030 C.2    68  LEU68       0.2260
     50  O        -17.5350   13.9220  -11.0520 O.2    68  LEU68      -0.2867
     51  CB       -17.8930   11.3450   -9.5210 C.3    68  LEU68       0.0270
     52  CG       -18.7000   10.3650   -8.6430 C.3    68  LEU68       0.0019
     53  CD1      -19.0050    9.0850   -9.4040 C.3    68  LEU68       0.0001
     54  CD2      -17.9790   10.0140   -7.3450 C.3    68  LEU68       0.0001
     55  N        -12.4330    9.7830  -14.4980 N.3    73  ILE73      -0.1231
     56  CA       -13.8500    9.4480  -14.3240 C.3    73  ILE73       0.1692
     57  C        -14.5960   10.1380  -15.4930 C.2    73  ILE73       0.2591
     58  O        -14.4590   11.3610  -15.6530 O.2    73  ILE73      -0.2718
     59  CB       -14.4250    9.8750  -12.9350 C.3    73  ILE73       0.0266
     60  CG1      -13.6640    9.2160  -11.7290 C.3    73  ILE73       0.0019
     61  CG2      -15.9370    9.5890  -12.8660 C.3    73  ILE73       0.0020
     62  CD1      -13.7280    7.5970  -11.5920 C.3    73  ILE73       0.0001
     63  N        -15.3940    9.3730  -16.2860 N.am   74  VAL74      -0.1980
     64  CA       -16.1910    9.8990  -17.4380 C.3    74  VAL74       0.1595
     65  C        -16.9950   11.1350  -16.9610 C.2    74  VAL74       0.2287
     66  O        -17.6480   11.0700  -15.9220 O.2    74  VAL74      -0.2864
     67  CB       -17.0950    8.7990  -18.0610 C.3    74  VAL74       0.0276
     68  CG1      -18.1020    9.3700  -19.0730 C.3    74  VAL74       0.0022
     69  CG2      -16.2450    7.6880  -18.6980 C.3    74  VAL74       0.0022
     70  N        -23.3860   12.9870  -21.0420 N.3    90  PHE90      -0.1227
     71  CA       -22.0020   12.7060  -20.6850 C.3    90  PHE90       0.1736
     72  C        -21.0950   13.1420  -21.8140 C.2    90  PHE90       0.2595
     73  O        -21.5710   13.2830  -22.9400 O.2    90  PHE90      -0.2718
     74  CB       -21.8300   11.1850  -20.4500 C.3    90  PHE90       0.0547
     75  CG       -22.6780   10.6370  -19.3190 C.ar   90  PHE90      -0.0202
     76  CD1      -23.9460   10.1110  -19.5660 C.ar   90  PHE90      -0.0042
     77  CD2      -22.2180   10.6630  -18.0070 C.ar   90  PHE90      -0.0042
     78  CE1      -24.7040    9.5580  -18.5280 C.ar   90  PHE90      -0.0003
     79  CE2      -22.9950   10.1370  -16.9640 C.ar   90  PHE90      -0.0003
     80  CZ       -24.2330    9.6040  -17.2280 C.ar   90  PHE90      -0.0000
     81  N        -19.7760   13.3090  -21.5470 N.am   91  GLU91      -0.1965
     82  CA       -18.8360   13.5630  -22.6390 C.3    91  GLU91       0.1733
     83  C        -18.8370   12.3110  -23.5680 C.2    91  GLU91       0.2616
     84  O        -19.1000   11.1940  -23.1110 O.2    91  GLU91      -0.2715
     85  CB       -17.4100   13.8250  -22.0990 C.3    91  GLU91       0.0429
     86  CG       -16.7360   12.5930  -21.4860 C.3    91  GLU91       0.1163
     87  CD       -15.3180   12.8040  -21.0030 C.2    91  GLU91       0.3649
     88  OE1      -14.4910   13.3530  -21.7640 O.co2  91  GLU91      -0.2457
     89  OE2      -15.0170   12.3530  -19.8810 O.co2  91  GLU91      -0.2457
     90  N        -18.5840   12.5010  -24.8490 N.am   92  TYR92      -0.1960
     91  CA       -18.5370   11.3570  -25.7530 C.3    92  TYR92       0.1771
     92  C        -17.0870   10.8290  -25.7710 C.2    92  TYR92       0.2619
     93  O        -16.1700   11.6060  -26.0100 O.2    92  TYR92      -0.2715
     94  CB       -18.9910   11.7630  -27.1590 C.3    92  TYR92       0.0574
     95  CG       -18.8470   10.6590  -28.1850 C.ar   92  TYR92      -0.0198
     96  CD1      -19.6010    9.4900  -28.0900 C.ar   92  TYR92      -0.0009
     97  CD2      -17.9990   10.8030  -29.2820 C.ar   92  TYR92      -0.0009
     98  CE1      -19.4360    8.4460  -28.9950 C.ar   92  TYR92       0.0417
     99  CE2      -17.8600    9.7750  -30.2290 C.ar   92  TYR92       0.0417
    100  CZ       -18.5960    8.6060  -30.0830 C.ar   92  TYR92       0.1957
    101  OH       -18.5310    7.5960  -31.0020 O.3    92  TYR92      -0.2866
    102  N        -16.8900    9.5170  -25.4850 N.am   93  MET93      -0.1963
    103  CA       -15.5720    8.8830  -25.4670 C.3    93  MET93       0.1736
    104  C        -15.4400    8.2260  -26.8220 C.2    93  MET93       0.2616
    105  O        -16.0250    7.1800  -27.0700 O.2    93  MET93      -0.2715
    106  CB       -15.4540    7.9010  -24.2860 C.3    93  MET93       0.0427
    107  CG       -15.6560    8.5890  -22.8990 C.3    93  MET93       0.0599
    108  SD       -14.3950    9.8260  -22.4500 S.3    93  MET93      -0.1393
    109  CE       -12.9920    8.7340  -22.0820 C.3    93  MET93       0.0692
    110  N        -14.7270    8.8950  -27.7180 N.am   94  ARG94      -0.1977
    111  CA       -14.6470    8.5440  -29.1410 C.3    94  ARG94       0.1597
    112  C        -14.1020    7.1300  -29.4680 C.2    94  ARG94       0.2287
    113  O        -14.3770    6.6540  -30.5660 O.2    94  ARG94      -0.2864
    114  CB       -13.8930    9.6280  -29.9570 C.3    94  ARG94       0.0334
    115  CG       -12.4050    9.7530  -29.7050 C.3    94  ARG94       0.0492
    116  CD       -11.8300   11.0260  -30.3200 C.3    94  ARG94       0.2205
    117  NE       -11.9050   11.0520  -31.7830 N.pl3  94  ARG94      -0.0865
    118  CZ       -12.7310   11.8220  -32.4910 C.cat  94  ARG94       0.5346
    119  NH1      -13.5900   12.6290  -31.8780 N.pl3  94  ARG94       0.1354
    120  NH2      -12.7210   11.7720  -33.8130 N.pl3  94  ARG94       0.1354
    121  N        -14.8460    4.3410  -27.5700 N.3    96  GLY96      -0.1210
    122  CA       -15.7550    3.3630  -26.9930 C.3    96  GLY96       0.1956
    123  C        -15.2250    2.7070  -25.7380 C.2    96  GLY96       0.2611
    124  O        -14.3220    3.2360  -25.0970 O.2    96  GLY96      -0.2717
    125  N        -15.7730    1.5580  -25.3980 N.am   97  ASP97      -0.1973
    126  CA       -15.3960    0.8420  -24.1920 C.3    97  ASP97       0.1709
    127  C        -14.0130    0.2130  -24.3290 C.2    97  ASP97       0.2293
    128  O        -13.6040   -0.1680  -25.4470 O.2    97  ASP97      -0.2864
    129  CB       -16.4930   -0.1710  -23.7580 C.3    97  ASP97       0.1436
    130  CG       -16.5220   -1.4400  -24.5770 C.2    97  ASP97       0.3671
    131  OD1      -17.4170   -1.5680  -25.4340 O.co2  97  ASP97      -0.2456
    132  OD2      -15.6180   -2.2860  -24.3960 O.co2  97  ASP97      -0.2456
    133  N        -12.0800    7.2210   -6.3850 N.3   130  LEU130     -0.1245
    134  CA       -13.2970    6.5700   -5.8570 C.3   130  LEU130      0.1561
    135  C        -13.0720    6.0270   -4.4380 C.2   130  LEU130      0.2260
    136  O        -13.8960    6.3030   -3.5620 O.2   130  LEU130     -0.2867
    137  CB       -13.8250    5.4710   -6.7980 C.3   130  LEU130      0.0270
    138  CG       -14.2540    5.9130   -8.2270 C.3   130  LEU130      0.0019
    139  CD1      -14.8040    4.7210   -9.0120 C.3   130  LEU130      0.0001
    140  CD2      -15.3560    7.0110   -8.1950 C.3   130  LEU130      0.0001
    141  N        -16.3490    5.3330   -2.2040 N.3   135  PHE135     -0.1241
    142  CA       -17.2380    4.8750   -3.2630 C.3   135  PHE135      0.1605
    143  C        -16.7630    3.5070   -3.7460 C.2   135  PHE135      0.2264
    144  O        -15.5690    3.3180   -4.0700 O.2   135  PHE135     -0.2867
    145  CB       -17.2790    5.8950   -4.4130 C.3   135  PHE135      0.0534
    146  CG       -18.1240    5.4840   -5.5980 C.ar  135  PHE135     -0.0203
    147  CD1      -17.5980    4.6710   -6.6010 C.ar  135  PHE135     -0.0042
    148  CD2      -19.4530    5.8870   -5.7000 C.ar  135  PHE135     -0.0042
    149  CE1      -18.3650    4.3040   -7.7000 C.ar  135  PHE135     -0.0003
    150  CE2      -20.2310    5.4960   -6.7910 C.ar  135  PHE135     -0.0003
    151  CZ       -19.6780    4.7040   -7.7850 C.ar  135  PHE135     -0.0000
    152  N        -17.4640    0.7730   -6.6610 N.3   137  HIS137     -0.1241
    153  CA       -17.9900    0.6270   -8.0270 C.3   137  HIS137      0.1621
    154  C        -18.9120   -0.5730   -8.1860 C.2   137  HIS137      0.2264
    155  O        -20.0090   -0.4330   -8.7470 O.2   137  HIS137     -0.2867
    156  CB       -16.8460    0.5850   -9.0560 C.3   137  HIS137      0.0745
    157  CG       -17.2770    0.8120  -10.4730 C.ar  137  HIS137      0.0817
    158  ND1      -17.9490   -0.1600  -11.1860 N.ar  137  HIS137     -0.2268
    159  CD2      -17.1180    1.9000  -11.2650 C.ar  137  HIS137      0.1154
    160  CE1      -18.1990    0.3680  -12.3720 C.ar  137  HIS137      0.1986
    161  NE2      -17.7040    1.5890  -12.4800 N.ar  137  HIS137     -0.2212
    162  N        -13.7190    3.4910  -20.5040 N.3   146  LEU146     -0.1245
    163  CA       -13.8790    4.1080  -21.8110 C.3   146  LEU146      0.1561
    164  C        -12.6080    4.8320  -22.2210 C.2   146  LEU146      0.2260
    165  O        -11.8380    5.3130  -21.3740 O.2   146  LEU146     -0.2867
    166  CB       -15.0960    5.0810  -21.8060 C.3   146  LEU146      0.0270
    167  CG       -16.4680    4.4110  -21.6540 C.3   146  LEU146      0.0019
    168  CD1      -16.9590    4.3640  -20.1830 C.3   146  LEU146      0.0001
    169  CD2      -17.4830    4.9720  -22.6000 C.3   146  LEU146      0.0001
    170  N        -12.9810    5.7460  -16.0740 N.3   155  ILE155     -0.1231
    171  CA       -13.9270    4.7760  -15.5290 C.3   155  ILE155      0.1692
    172  C        -15.3350    5.3620  -15.7030 C.2   155  ILE155      0.2593
    173  O        -15.5540    6.5540  -15.4500 O.2   155  ILE155     -0.2718
    174  CB       -13.6090    4.4390  -14.0350 C.3   155  ILE155      0.0266
    175  CG1      -12.1830    3.8510  -13.8980 C.3   155  ILE155      0.0019
    176  CG2      -14.6550    3.4620  -13.4380 C.3   155  ILE155      0.0020
    177  CD1      -11.6140    4.0000  -12.5780 C.3   155  ILE155      0.0001
    178  N        -16.2520    4.4970  -16.1310 N.am  156  GLY156     -0.1942
    179  CA       -17.6790    4.7540  -16.2650 C.3   156  GLY156      0.2014
    180  C        -18.4970    3.5610  -15.7760 C.2   156  GLY156      0.2639
    181  O        -18.0400    2.7690  -14.9400 O.2   156  GLY156     -0.2714
    182  N        -19.6910    3.3970  -16.3390 N.am  157  ASP157     -0.1957
    183  CA       -20.6180    2.3110  -16.0270 C.3   157  ASP157      0.1840
    184  C        -21.7550    2.4120  -17.0240 C.2   157  ASP157      0.2622
    185  O        -22.4260    3.4310  -17.0760 O.2   157  ASP157     -0.2715
    186  CB       -21.1690    2.4170  -14.5820 C.3   157  ASP157      0.1450
    187  CG       -21.8460    1.1490  -14.0620 C.2   157  ASP157      0.3671
    188  OD1      -22.2470    0.3100  -14.8790 O.co2 157  ASP157     -0.2456
    189  OD2      -21.9110    0.9740  -12.8370 O.co2 157  ASP157     -0.2456
    190  N        -21.9290    1.3930  -17.8640 N.am  158  PHE158     -0.1974
    191  CA       -22.9980    1.4080  -18.8570 C.3   158  PHE158      0.1639
    192  C        -24.3420    0.9860  -18.2210 C.2   158  PHE158      0.2290
    193  O        -25.3930    1.1610  -18.8350 O.2   158  PHE158     -0.2864
    194  CB       -22.6260    0.5070  -20.0450 C.3   158  PHE158      0.0560
    195  CG       -21.6430    1.1040  -21.0300 C.ar  158  PHE158     -0.0200
    196  CD1      -22.0750    1.6200  -22.2400 C.ar  158  PHE158     -0.0042
    197  CD2      -20.2750    1.0920  -20.7710 C.ar  158  PHE158     -0.0042
    198  CE1      -21.1590    2.1230  -23.1670 C.ar  158  PHE158     -0.0003
    199  CE2      -19.3600    1.6040  -21.6920 C.ar  158  PHE158     -0.0003
    200  CZ       -19.8050    2.1230  -22.8810 C.ar  158  PHE158     -0.0000
@<TRIPOS>BOND
     1   120   118    1
     2   118   119    1
     3   118   117    2
     4   117   116    1
     5   101   100    1
     6   113   112    2
     7     8     6    1
     8   116   115    1
     9    99   100   ar
    10    99    97   ar
    11     1     2    1
    12   100    98   ar
    13   114   115    1
    14   114   111    1
    15     2     3    1
    16     2     5    1
    17   112   111    1
    18     4     3    2
    19     6     5    1
    20     6     7    1
    21    97    95   ar
    22   111   110    1
    23    98    96   ar
    24    95    96   ar
    25    95    94    1
    26    12    11    2
    27   110   104   am
    28   121   122    1
    29    94    91    1
    30   105   104    2
    31   122   123    1
    32    11    10    1
    33   104   103    1
    34    93    92    2
    35    92    91    1
    36    92   102   am
    37    91    90    1
    38   123   125   am
    39   123   124    2
    40     9    10    1
    41    10    13    1
    42   102   103    1
    43   103   106    1
    44   128   127    2
    45   131   130   ar
    46   125   126    1
    47    16    17    1
    48    17    20    1
    49    17    18    1
    50    13    14    1
    51    13    15    1
    52    90    83   am
    53   130   132   ar
    54   130   129    1
    55    18    19    2
    56   127   126    1
    57   106   107    1
    58   126   129    1
    59    83    84    2
    60    83    82    1
    61   198   200   ar
    62   198   196   ar
    63    73    72    2
    64   107   108    1
    65   200   199   ar
    66    82    85    1
    67    82    81    1
    68   169   167    1
    69   108   109    1
    70    21    22    1
    71   196   195   ar
    72   164   163    1
    73   164   165    2
    74    85    86    1
    75    22    23    1
    76    22    25    1
    77    72    81   am
    78    72    71    1
    79   163   166    1
    80   163   162    1
    81   166   167    1
    82    88    87   ar
    83   199   197   ar
    84   167   168    1
    85    23    24    2
    86    86    87    1
    87    70    71    1
    88   195   197   ar
    89   195   194    1
    90    87    89   ar
    91    71    74    1
    92    25    26    1
    93    74    75    1
    94    26    27    1
    95   194   191    1
    96    76    75   ar
    97    76    78   ar
    98    75    77   ar
    99    68    67    1
   100    27    28    1
   101   191   192    1
   102   191   190    1
   103   193   192    2
   104    69    67    1
   105    78    80   ar
   106    28    29    1
   107    67    64    1
   108    77    79   ar
   109   190   184   am
   110    64    65    1
   111    64    63    1
   112    80    79   ar
   113   185   184    2
   114   184   183    1
   115    65    66    2
   116   182   183    1
   117   182   180   am
   118    63    57   am
   119   179   178    1
   120   179   180    1
   121   178   172   am
   122   170   171    1
   123   183   186    1
   124   180   181    2
   125   172   171    1
   126   172   173    2
   127    58    57    2
   128   171   174    1
   129    57    56    1
   130   188   187   ar
   131   186   187    1
   132    55    56    1
   133    56    59    1
   134   187   189   ar
   135   174   175    1
   136   174   176    1
   137   175   177    1
   138    38    36   ar
   139    45    44    1
   140    59    61    1
   141    59    60    1
   142    37    36   ar
   143    36    35    1
   144    46    44    1
   145   161   160   ar
   146   161   159   ar
   147    44    43    1
   148   160   158   ar
   149    43    40    1
   150    60    62    1
   151    35    34    1
   152    42    41    2
   153   159   157   ar
   154   158   157   ar
   155    50    49    2
   156    41    40    1
   157    40    39    1
   158    34    31    1
   159   157   156    1
   160    32    33    2
   161    32    31    1
   162    49    48    1
   163    31    30    1
   164    51    48    1
   165    51    52    1
   166    53    52    1
   167   156   153    1
   168   139   138    1
   169    48    47    1
   170   155   154    2
   171    52    54    1
   172   138   140    1
   173   138   137    1
   174   154   153    1
   175   153   152    1
   176   151   149   ar
   177   151   150   ar
   178   149   147   ar
   179   137   134    1
   180   150   148   ar
   181   147   146   ar
   182   133   134    1
   183   134   135    1
   184   148   146   ar
   185   146   145    1
   186   135   136    2
   187   145   142    1
   188   144   143    2
   189   143   142    1
   190   142   141    1
