@<TRIPOS>MOLECULE
tmp/6dkvA01.pdb
 95 95 0 0 0
SMALL
GASTEIGER

@<TRIPOS>ATOM
      1  N         -9.5600  -17.5410  -12.7780 N.3    49  TRP49      -0.1241
      2  CA        -9.3200  -17.2350  -11.3710 C.3    49  TRP49       0.1605
      3  C         -7.8180  -17.0650  -11.1720 C.2    49  TRP49       0.2264
      4  O         -7.0420  -18.0220  -11.3300 O.2    49  TRP49      -0.2867
      5  CB        -9.8920  -18.3250  -10.4610 C.3    49  TRP49       0.0550
      6  CG        -9.7690  -17.9840   -9.0230 C.ar   49  TRP49       0.0003
      7  CD1       -8.7160  -18.2570   -8.2190 C.ar   49  TRP49       0.0946
      8  CD2      -10.7440  -17.3260   -8.2110 C.ar   49  TRP49       0.0152
      9  NE1       -8.9610  -17.8130   -6.9410 N.ar   49  TRP49      -0.2442
     10  CE2      -10.2030  -17.2270   -6.9120 C.ar   49  TRP49       0.0810
     11  CE3      -12.0230  -16.8160   -8.4560 C.ar   49  TRP49       0.0012
     12  CZ2      -10.8850  -16.6170   -5.8560 C.ar   49  TRP49       0.0191
     13  CZ3      -12.7050  -16.1960   -7.4060 C.ar   49  TRP49       0.0001
     14  CH2      -12.1320  -16.1300   -6.1120 C.ar   49  TRP49       0.0015
     15  N        -10.4210  -13.5430   -8.3490 N.3    80  GLY80      -0.1210
     16  CA        -9.2050  -13.8240   -7.6090 C.3    80  GLY80       0.1956
     17  C         -8.6330  -12.5690   -6.9940 C.2    80  GLY80       0.2612
     18  O         -7.9840  -11.7820   -7.6850 O.2    80  GLY80      -0.2717
     19  N         -8.9690  -12.3070   -5.7300 N.am   81  GLY81      -0.1942
     20  CA        -8.4640  -11.1140   -5.0600 C.3    81  GLY81       0.2014
     21  C         -9.0250   -9.8040   -5.5550 C.2    81  GLY81       0.2639
     22  O         -8.3440   -8.7750   -5.4730 O.2    81  GLY81      -0.2714
     23  N        -10.2510   -9.8000   -6.0680 N.am   82  ILE82      -0.1963
     24  CA       -10.9130   -8.5520   -6.4170 C.3    82  ILE82       0.1727
     25  C        -11.4790   -7.9990   -5.1170 C.2    82  ILE82       0.2616
     26  O        -12.3850   -8.5900   -4.5250 O.2    82  ILE82      -0.2715
     27  CB       -12.0100   -8.7700   -7.4700 C.3    82  ILE82       0.0290
     28  CG1      -11.4020   -9.3860   -8.7300 C.3    82  ILE82       0.0022
     29  CG2      -12.6800   -7.4410   -7.7270 C.3    82  ILE82       0.0023
     30  CD1      -12.3910   -9.6060   -9.8890 C.3    82  ILE82       0.0001
     31  N        -10.9120   -6.8790   -4.6550 N.am   83  HIS83      -0.1973
     32  CA       -11.1570   -6.3330   -3.3300 C.3    83  HIS83       0.1656
     33  C        -12.0060   -5.0840   -3.3110 C.2    83  HIS83       0.2291
     34  O        -12.4650   -4.6960   -2.2290 O.2    83  HIS83      -0.2864
     35  CB        -9.8170   -6.0210   -2.6390 C.3    83  HIS83       0.0771
     36  CG        -8.9870   -7.2450   -2.3650 C.ar   83  HIS83       0.0820
     37  ND1       -7.6500   -7.3340   -2.7010 N.ar   83  HIS83      -0.2267
     38  CD2       -9.3150   -8.4370   -1.8020 C.ar   83  HIS83       0.1154
     39  CE1       -7.1890   -8.5250   -2.3510 C.ar   83  HIS83       0.1986
     40  NE2       -8.1770   -9.2110   -1.7990 N.ar   83  HIS83      -0.2212
     41  N        -16.1120  -12.3160  -10.2080 N.3   100  GLU100     -0.1231
     42  CA       -16.3870  -13.2460   -9.1110 C.3   100  GLU100      0.1699
     43  C        -15.6950  -12.6740   -7.8740 C.2   100  GLU100      0.2592
     44  O        -14.4960  -12.3760   -7.9160 O.2   100  GLU100     -0.2718
     45  CB       -15.8380  -14.6400   -9.4290 C.3   100  GLU100      0.0402
     46  CG       -16.8030  -15.5480  -10.1530 C.3   100  GLU100      0.1161
     47  CD       -16.2690  -16.9510  -10.4440 C.2   100  GLU100      0.3649
     48  OE1      -15.0320  -17.1530  -10.4950 O.co2 100  GLU100     -0.2457
     49  OE2      -17.1080  -17.8600  -10.6020 O.co2 100  GLU100     -0.2457
     50  N        -16.4640  -12.4600   -6.8070 N.am  101  ILE101     -0.1966
     51  CA       -15.9640  -11.9080   -5.5570 C.3   101  ILE101      0.1727
     52  C        -16.3970  -12.8540   -4.4390 C.2   101  ILE101      0.2616
     53  O        -17.4470  -13.5040   -4.5140 O.2   101  ILE101     -0.2715
     54  CB       -16.4190  -10.4380   -5.3070 C.3   101  ILE101      0.0290
     55  CG1      -17.9480  -10.2810   -5.3030 C.3   101  ILE101      0.0022
     56  CG2      -15.8310   -9.4570   -6.4220 C.3   101  ILE101      0.0023
     57  CD1      -18.4970   -8.8930   -4.9510 C.3   101  ILE101      0.0001
     58  N        -15.5600  -12.9510   -3.4140 N.am  102  ASN102     -0.1958
     59  CA       -15.8710  -13.8070   -2.2680 C.3   102  ASN102      0.1819
     60  C        -15.4870  -13.0630   -0.9990 C.2   102  ASN102      0.2622
     61  O        -16.3260  -12.4030   -0.3970 O.2   102  ASN102     -0.2715
     62  CB       -15.1710  -15.1450   -2.3760 C.3   102  ASN102      0.1195
     63  CG       -15.3760  -16.0170   -1.1340 C.2   102  ASN102      0.2630
     64  OD1      -16.1570  -15.6650   -0.2320 O.2   102  ASN102     -0.2716
     65  ND2      -14.6720  -17.1330   -1.0820 N.am  102  ASN102     -0.0877
     66  N        -14.2170  -13.0770   -0.6250 N.am  103  THR103     -0.1937
     67  CA       -13.8190  -12.5490    0.6780 C.3   103  THR103      0.2028
     68  C        -14.1970  -11.0920    0.8440 C.2   103  THR103      0.2642
     69  O        -14.7460  -10.6970    1.8800 O.2   103  THR103     -0.2714
     70  CB       -12.3150  -12.7350    0.8550 C.3   103  THR103      0.1808
     71  OG1      -12.0370  -14.1240    0.9120 O.3   103  THR103     -0.2208
     72  CG2      -11.7630  -12.0370    2.1550 C.3   103  THR103      0.0379
     73  N        -13.9020  -10.2680   -0.1700 N.am  104  ALA104     -0.1977
     74  CA       -14.2220   -8.8450   -0.0970 C.3   104  ALA104      0.1597
     75  C        -15.7110   -8.5920    0.0580 C.2   104  ALA104      0.2287
     76  O        -16.1100   -7.6840    0.7920 O.2   104  ALA104     -0.2864
     77  CB       -13.7040   -8.1180   -1.3400 C.3   104  ALA104      0.0319
     78  N        -10.9150  -16.2810    2.6730 N.3   142  TYR142     -0.1227
     79  CA        -9.4550  -16.4040    2.5890 C.3   142  TYR142      0.1736
     80  C         -9.0570  -17.8070    2.1450 C.2   142  TYR142      0.2596
     81  O         -8.2910  -18.5220    2.7960 O.2   142  TYR142     -0.2718
     82  CB        -8.7730  -16.0250    3.8960 C.3   142  TYR142      0.0548
     83  CG        -8.9830  -14.5930    4.2180 C.ar  142  TYR142     -0.0200
     84  CD1      -10.0860  -14.1780    4.9100 C.ar  142  TYR142     -0.0009
     85  CD2       -8.0780  -13.6260    3.7840 C.ar  142  TYR142     -0.0009
     86  CE1      -10.2690  -12.8480    5.2160 C.ar  142  TYR142      0.0417
     87  CE2       -8.2650  -12.3190    4.0720 C.ar  142  TYR142      0.0417
     88  CZ        -9.3670  -11.9300    4.7660 C.ar  142  TYR142      0.1957
     89  OH        -9.5820  -10.6160    5.0450 O.3   142  TYR142     -0.2866
     90  N         -9.6200  -18.1990    1.0170 N.am  143  SER143     -0.1952
     91  CA        -9.2900  -19.4800    0.4120 C.3   143  SER143      0.1924
     92  C         -9.5670  -20.6390    1.3630 C.2   143  SER143      0.2314
     93  O         -8.7660  -21.5740    1.4650 O.2   143  SER143     -0.2863
     94  CB        -7.8110  -19.5020    0.0230 C.3   143  SER143      0.2116
     95  OG        -7.5610  -18.4970   -0.9340 O.3   143  SER143     -0.2180
@<TRIPOS>BOND
     1     1     2    1
     2     2     3    1
     3     2     5    1
     4     4     3    2
     5    49    47   ar
     6    48    47   ar
     7     5     6    1
     8    47    46    1
     9    41    42    1
    10    46    45    1
    11    30    28    1
    12    45    42    1
    13    42    43    1
    14     6     7   ar
    15     6     8   ar
    16    28    27    1
    17    11     8   ar
    18    11    13   ar
    19    15    16    1
    20     7     9   ar
    21     8    10   ar
    22    44    43    2
    23    43    50   am
    24    29    27    1
    25    18    17    2
    26    16    17    1
    27    27    24    1
    28    13    14   ar
    29    17    19   am
    30     9    10   ar
    31    10    12   ar
    32    50    51    1
    33    56    54    1
    34    24    23    1
    35    24    25    1
    36    14    12   ar
    37    23    21   am
    38    19    20    1
    39    51    54    1
    40    51    52    1
    41    21    22    2
    42    21    20    1
    43    54    55    1
    44    55    57    1
    45    25    31   am
    46    25    26    2
    47    31    32    1
    48    53    52    2
    49    52    58   am
    50    58    59    1
    51    32    33    1
    52    32    35    1
    53    33    34    2
    54    37    36   ar
    55    37    39   ar
    56    35    36    1
    57    62    59    1
    58    62    63    1
    59    36    38   ar
    60    39    40   ar
    61    59    60    1
    62    38    40   ar
    63    77    74    1
    64    63    65   am
    65    63    64    2
    66    60    66   am
    67    60    61    2
    68    95    94    1
    69    66    67    1
    70    73    74    1
    71    73    68   am
    72    74    75    1
    73    94    91    1
    74    75    76    2
    75    91    90    1
    76    91    92    1
    77    67    68    1
    78    67    70    1
    79    68    69    2
    80    70    71    1
    81    70    72    1
    82    90    80   am
    83    92    93    2
    84    80    79    1
    85    80    81    2
    86    79    78    1
    87    79    82    1
    88    85    87   ar
    89    85    83   ar
    90    82    83    1
    91    87    88   ar
    92    83    84   ar
    93    88    89    1
    94    88    86   ar
    95    84    86   ar
