@<TRIPOS>MOLECULE
tmp/6dkwB00.pdb
 217 208 0 0 0
SMALL
GASTEIGER

@<TRIPOS>ATOM
      1  N        -68.1810  -12.1160  -26.2840 N.3    21  LEU21      -0.1231
      2  CA       -68.4850  -11.2540  -27.4320 C.3    21  LEU21       0.1693
      3  C        -67.3150  -10.2610  -27.6370 C.2    21  LEU21       0.2592
      4  O        -66.5700  -10.3420  -28.6350 O.2    21  LEU21      -0.2718
      5  CB       -69.7860  -10.4330  -27.2260 C.3    21  LEU21       0.0284
      6  CG       -70.8350  -10.8620  -26.1880 C.3    21  LEU21       0.0019
      7  CD1      -71.5950   -9.6750  -25.6920 C.3    21  LEU21       0.0001
      8  CD2      -71.8050  -11.8660  -26.7740 C.3    21  LEU21       0.0001
      9  N        -67.1690   -9.3560  -26.6530 N.am   22  GLY22      -0.1957
     10  CA       -66.1730   -8.2880  -26.6010 C.3    22  GLY22       0.1869
     11  C        -64.8650   -8.6680  -25.9400 C.2    22  GLY22       0.2309
     12  O        -64.8440   -9.5920  -25.1160 O.2    22  GLY22      -0.2863
     13  N        -66.1180   -9.3210  -22.0740 N.3    26  VAL26      -0.1245
     14  CA       -67.5840   -9.2120  -22.0260 C.3    26  VAL26       0.1561
     15  C        -68.1400  -10.5950  -22.3580 C.2    26  VAL26       0.2260
     16  O        -67.7470  -11.1970  -23.3570 O.2    26  VAL26      -0.2867
     17  CB       -68.1330   -8.1180  -22.9850 C.3    26  VAL26       0.0252
     18  CG1      -69.6550   -8.0450  -22.9530 C.3    26  VAL26       0.0019
     19  CG2      -67.5230   -6.7530  -22.6750 C.3    26  VAL26       0.0019
     20  N        -75.3850   -9.2370  -20.8110 N.3    44  ALA44      -0.1245
     21  CA       -73.9720   -9.0140  -21.1280 C.3    44  ALA44       0.1562
     22  C        -73.2860   -8.7200  -19.8020 C.2    44  ALA44       0.2260
     23  O        -73.6840   -7.8020  -19.0720 O.2    44  ALA44      -0.2867
     24  CB       -73.8130   -7.8360  -22.0590 C.3    44  ALA44       0.0290
     25  N        -69.7400   -7.7480  -18.0560 N.3    46  LYS46      -0.1245
     26  CA       -68.3930   -7.1710  -18.1200 C.3    46  LYS46       0.1561
     27  C        -67.6310   -7.5760  -16.8540 C.2    46  LYS46       0.2260
     28  O        -68.0610   -7.2450  -15.7510 O.2    46  LYS46      -0.2867
     29  CB       -68.4640   -5.6370  -18.2190 C.3    46  LYS46       0.0271
     30  CG       -67.1590   -4.9860  -18.6660 C.3    46  LYS46       0.0035
     31  CD       -67.3930   -4.0020  -19.7980 C.3    46  LYS46       0.0206
     32  CE       -66.1850   -3.8670  -20.6990 C.3    46  LYS46       0.1093
     33  NZ       -66.5650   -3.4530  -22.0850 N.3    46  LYS46      -0.1314
     34  N        -68.7870    3.8450  -10.7800 N.3    62  GLU62      -0.1245
     35  CA       -69.4050    3.5410  -12.0820 C.3    62  GLU62       0.1567
     36  C        -70.7780    2.8900  -11.8270 C.2    62  GLU62       0.2260
     37  O        -71.8070    3.4420  -12.2500 O.2    62  GLU62      -0.2867
     38  CB       -68.4980    2.6450  -12.9690 C.3    62  GLU62       0.0388
     39  CG       -68.6590    2.9150  -14.4680 C.3    62  GLU62       0.1160
     40  CD       -68.2410    1.8470  -15.4730 C.2    62  GLU62       0.3649
     41  OE1      -68.8460    1.8060  -16.5730 O.co2  62  GLU62      -0.2457
     42  OE2      -67.2960    1.0750  -15.1810 O.co2  62  GLU62      -0.2457
     43  N        -74.3590    4.3700  -12.9410 N.3    66  LEU66      -0.1245
     44  CA       -75.1390    3.6120  -13.9140 C.3    66  LEU66       0.1561
     45  C        -76.5110    3.2260  -13.3600 C.2    66  LEU66       0.2260
     46  O        -77.4800    3.1700  -14.1250 O.2    66  LEU66      -0.2867
     47  CB       -74.3680    2.3580  -14.3710 C.3    66  LEU66       0.0270
     48  CG       -73.1300    2.5510  -15.2540 C.3    66  LEU66       0.0019
     49  CD1      -72.3520    1.2520  -15.3780 C.3    66  LEU66       0.0001
     50  CD2      -73.4890    3.0730  -16.6210 C.3    66  LEU66       0.0001
     51  N        -78.9670    5.7330  -14.3590 N.3    69  LEU69      -0.1245
     52  CA       -79.2440    5.8500  -15.7900 C.3    69  LEU69       0.1561
     53  C        -80.1310    4.7180  -16.2930 C.2    69  LEU69       0.2260
     54  O        -79.6520    3.7080  -16.8270 O.2    69  LEU69      -0.2867
     55  CB       -77.9530    6.0000  -16.6200 C.3    69  LEU69       0.0270
     56  CG       -76.9580    7.0750  -16.1940 C.3    69  LEU69       0.0019
     57  CD1      -75.6860    6.9520  -16.9710 C.3    69  LEU69       0.0001
     58  CD2      -77.5140    8.4600  -16.3840 C.3    69  LEU69       0.0001
     59  N        -80.9610    4.1280  -23.2960 N.3    74  ILE74      -0.1231
     60  CA       -79.7250    4.1170  -22.5420 C.3    74  ILE74       0.1692
     61  C        -79.5230    2.6560  -22.1740 C.2    74  ILE74       0.2591
     62  O        -80.3960    2.0600  -21.5440 O.2    74  ILE74      -0.2718
     63  CB       -79.7630    5.0360  -21.2800 C.3    74  ILE74       0.0266
     64  CG1      -80.1170    6.5130  -21.6130 C.3    74  ILE74       0.0019
     65  CG2      -78.4650    4.9370  -20.4560 C.3    74  ILE74       0.0020
     66  CD1      -79.1930    7.3150  -22.5770 C.3    74  ILE74       0.0001
     67  N        -78.4010    2.0710  -22.6090 N.am   75  VAL75      -0.1980
     68  CA       -78.0120    0.6910  -22.3500 C.3    75  VAL75       0.1595
     69  C        -78.1920    0.4960  -20.8730 C.2    75  VAL75       0.2287
     70  O        -77.6310    1.2600  -20.0880 O.2    75  VAL75      -0.2864
     71  CB       -76.5550    0.4510  -22.8000 C.3    75  VAL75       0.0276
     72  CG1      -76.0350   -0.9130  -22.3520 C.3    75  VAL75       0.0022
     73  CG2      -76.4210    0.6270  -24.3040 C.3    75  VAL75       0.0022
     74  N        -75.2980   -6.0410  -17.6620 N.3    91  PHE91      -0.1227
     75  CA       -75.9620   -5.1210  -18.5760 C.3    91  PHE91       0.1736
     76  C        -76.9470   -5.8730  -19.4690 C.2    91  PHE91       0.2595
     77  O        -76.8030   -7.0920  -19.6960 O.2    91  PHE91      -0.2718
     78  CB       -74.9210   -4.4180  -19.4870 C.3    91  PHE91       0.0547
     79  CG       -73.8780   -3.5800  -18.7830 C.ar   91  PHE91      -0.0202
     80  CD1      -74.1100   -2.2380  -18.5110 C.ar   91  PHE91      -0.0042
     81  CD2      -72.6580   -4.1300  -18.4090 C.ar   91  PHE91      -0.0042
     82  CE1      -73.1790   -1.4820  -17.8060 C.ar   91  PHE91      -0.0003
     83  CE2      -71.7200   -3.3700  -17.7270 C.ar   91  PHE91      -0.0003
     84  CZ       -71.9860   -2.0490  -17.4300 C.ar   91  PHE91      -0.0000
     85  N        -77.9100   -5.1160  -20.0410 N.am   92  GLU92      -0.1965
     86  CA       -78.8690   -5.6560  -20.9960 C.3    92  GLU92       0.1733
     87  C        -78.1800   -6.1530  -22.2940 C.2    92  GLU92       0.2616
     88  O        -77.2780   -5.4830  -22.7970 O.2    92  GLU92      -0.2715
     89  CB       -79.9700   -4.6300  -21.2890 C.3    92  GLU92       0.0429
     90  CG       -79.5940   -3.4340  -22.1350 C.3    92  GLU92       0.1163
     91  CD       -80.8010   -2.6700  -22.6450 C.2    92  GLU92       0.3649
     92  OE1      -81.5080   -3.1860  -23.5440 O.co2  92  GLU92      -0.2457
     93  OE2      -81.0410   -1.5480  -22.1420 O.co2  92  GLU92      -0.2457
     94  N        -78.5690   -7.3240  -22.8110 N.am   93  TYR93      -0.1960
     95  CA       -77.9710   -7.8580  -24.0290 C.3    93  TYR93       0.1771
     96  C        -78.4290   -7.1410  -25.3180 C.2    93  TYR93       0.2619
     97  O        -79.6180   -7.1320  -25.6310 O.2    93  TYR93      -0.2715
     98  CB       -78.1890   -9.3730  -24.1240 C.3    93  TYR93       0.0574
     99  CG       -77.5990  -10.0130  -25.3650 C.ar   93  TYR93      -0.0198
    100  CD1      -76.2860   -9.7490  -25.7560 C.ar   93  TYR93      -0.0009
    101  CD2      -78.3290  -10.9270  -26.1170 C.ar   93  TYR93      -0.0009
    102  CE1      -75.7370  -10.3400  -26.8930 C.ar   93  TYR93       0.0417
    103  CE2      -77.7790  -11.5460  -27.2410 C.ar   93  TYR93       0.0417
    104  CZ       -76.4790  -11.2540  -27.6210 C.ar   93  TYR93       0.1957
    105  OH       -75.9350  -11.8280  -28.7450 O.3    93  TYR93      -0.2866
    106  N        -77.4660   -6.5530  -26.0670 N.am   94  MET94      -0.1963
    107  CA       -77.6620   -5.8800  -27.3550 C.3    94  MET94       0.1736
    108  C        -76.9450   -6.7960  -28.3680 C.2    94  MET94       0.2616
    109  O        -75.7300   -6.6860  -28.5380 O.2    94  MET94      -0.2715
    110  CB       -77.0210   -4.4940  -27.3430 C.3    94  MET94       0.0427
    111  CG       -77.3750   -3.6650  -26.1450 C.3    94  MET94       0.0599
    112  SD       -79.0620   -3.0480  -26.1200 S.3    94  MET94      -0.1393
    113  CE       -79.1090   -2.0090  -27.5640 C.3    94  MET94       0.0692
    114  N        -77.6840   -7.7490  -28.9810 N.am   95  ARG95      -0.1963
    115  CA       -77.1330   -8.8000  -29.8460 C.3    95  ARG95       0.1729
    116  C        -76.3430   -8.3230  -31.0800 C.2    95  ARG95       0.2616
    117  O        -75.4140   -9.0440  -31.4650 O.2    95  ARG95      -0.2715
    118  CB       -78.1980   -9.8500  -30.2750 C.3    95  ARG95       0.0348
    119  CG       -79.3830   -9.3810  -31.1370 C.3    95  ARG95       0.0492
    120  CD       -80.3910  -10.5200  -31.3030 C.3    95  ARG95       0.2205
    121  NE       -80.5420  -10.9410  -32.7030 N.pl3  95  ARG95      -0.0865
    122  CZ       -81.6990  -11.2190  -33.3100 C.cat  95  ARG95       0.5346
    123  NH1      -81.7160  -11.5750  -34.5860 N.pl3  95  ARG95       0.1354
    124  NH2      -82.8440  -11.1480  -32.6420 N.pl3  95  ARG95       0.1354
    125  N        -76.6950   -7.1760  -31.6830 N.am   96  HIS96      -0.1959
    126  CA       -76.0450   -6.7270  -32.9220 C.3    96  HIS96       0.1787
    127  C        -74.7710   -5.8400  -32.7620 C.2    96  HIS96       0.2620
    128  O        -74.2920   -5.3330  -33.7790 O.2    96  HIS96      -0.2715
    129  CB       -77.0580   -6.0300  -33.8580 C.3    96  HIS96       0.0785
    130  CG       -78.1050   -6.9780  -34.3600 C.ar   96  HIS96       0.0821
    131  ND1      -79.4630   -6.7340  -34.1580 N.ar   96  HIS96      -0.2267
    132  CD2      -77.9570   -8.1920  -34.9490 C.ar   96  HIS96       0.1154
    133  CE1      -80.0890   -7.7880  -34.6610 C.ar   96  HIS96       0.1986
    134  NE2      -79.2250   -8.6910  -35.1510 N.ar   96  HIS96      -0.2212
    135  N        -74.2220   -5.7150  -31.5450 N.am   97  GLY97      -0.1954
    136  CA       -73.0360   -4.9140  -31.2630 C.3    97  GLY97       0.1869
    137  C        -73.2560   -3.4260  -31.4280 C.2    97  GLY97       0.2309
    138  O        -74.3930   -2.9510  -31.3120 O.2    97  GLY97      -0.2863
    139  N        -70.4070   -0.1580  -36.5850 N.3   101  ARG101     -0.1245
    140  CA       -70.2490   -1.3340  -37.4390 C.3   101  ARG101      0.1563
    141  C        -71.5920   -1.6450  -38.0880 C.2   101  ARG101      0.2260
    142  O        -71.6290   -1.8420  -39.2940 O.2   101  ARG101     -0.2867
    143  CB       -69.7400   -2.5390  -36.6660 C.3   101  ARG101      0.0307
    144  CG       -68.4590   -2.2630  -35.9200 C.3   101  ARG101      0.0489
    145  CD       -67.9650   -3.4960  -35.1940 C.3   101  ARG101      0.2205
    146  NE       -66.7560   -3.2100  -34.4140 N.pl3 101  ARG101     -0.0865
    147  CZ       -66.2700   -3.9980  -33.4590 C.cat 101  ARG101      0.5346
    148  NH1      -66.8900   -5.1280  -33.1380 N.pl3 101  ARG101      0.1354
    149  NH2      -65.1650   -3.6580  -32.8090 N.pl3 101  ARG101      0.1354
    150  N        -81.1160   12.1030  -20.7550 N.3   133  LEU133     -0.1245
    151  CA       -79.8790   12.5470  -20.1010 C.3   133  LEU133      0.1561
    152  C        -79.8740   14.0300  -19.7780 C.2   133  LEU133      0.2260
    153  O        -79.4710   14.3970  -18.6730 O.2   133  LEU133     -0.2867
    154  CB       -78.6180   12.1500  -20.8790 C.3   133  LEU133      0.0270
    155  CG       -78.3840   10.6610  -21.1900 C.3   133  LEU133      0.0019
    156  CD1      -77.2720   10.5030  -22.1890 C.3   133  LEU133      0.0001
    157  CD2      -78.0680    9.8490  -19.9430 C.3   133  LEU133      0.0001
    158  N        -77.0500   15.4930  -17.1770 N.3   138  PHE138     -0.1241
    159  CA       -75.9360   14.6150  -17.4380 C.3   138  PHE138      0.1605
    160  C        -75.3440   14.9970  -18.8020 C.2   138  PHE138      0.2264
    161  O        -76.0790   15.2260  -19.7820 O.2   138  PHE138     -0.2867
    162  CB       -76.3980   13.1460  -17.4070 C.3   138  PHE138      0.0534
    163  CG       -75.2970   12.1360  -17.6050 C.ar  138  PHE138     -0.0203
    164  CD1      -74.9580   11.6900  -18.8790 C.ar  138  PHE138     -0.0042
    165  CD2      -74.6230   11.5940  -16.5160 C.ar  138  PHE138     -0.0042
    166  CE1      -73.9490   10.7390  -19.0600 C.ar  138  PHE138     -0.0003
    167  CE2      -73.6260   10.6270  -16.6970 C.ar  138  PHE138     -0.0003
    168  CZ       -73.2940   10.2110  -17.9660 C.ar  138  PHE138     -0.0000
    169  N        -72.7010   13.6080  -21.6270 N.3   140  HIS140     -0.1241
    170  CA       -72.0780   12.3860  -22.1240 C.3   140  HIS140      0.1621
    171  C        -70.5820   12.5850  -22.3650 C.2   140  HIS140      0.2264
    172  O        -69.7640   11.7830  -21.8850 O.2   140  HIS140     -0.2867
    173  CB       -72.7830   11.8560  -23.3760 C.3   140  HIS140      0.0745
    174  CG       -72.4540   10.4170  -23.6540 C.ar  140  HIS140      0.0817
    175  ND1      -71.2300   10.0420  -24.1830 N.ar  140  HIS140     -0.2268
    176  CD2      -73.1750    9.3010  -23.4150 C.ar  140  HIS140      0.1154
    177  CE1      -71.2560    8.7230  -24.2700 C.ar  140  HIS140      0.1986
    178  NE2      -72.4020    8.2340  -23.8240 N.ar  140  HIS140     -0.2212
    179  N        -75.3770    1.1310  -29.0490 N.3   149  LEU149     -0.1245
    180  CA       -75.5110   -0.3070  -29.2850 C.3   149  LEU149      0.1561
    181  C        -76.8030   -0.6350  -30.0210 C.2   149  LEU149      0.2260
    182  O        -77.6960    0.2190  -30.1040 O.2   149  LEU149     -0.2867
    183  CB       -75.3410   -1.1060  -28.0090 C.3   149  LEU149      0.0270
    184  CG       -73.8980   -1.2360  -27.5750 C.3   149  LEU149      0.0019
    185  CD1      -73.5820   -0.2930  -26.4280 C.3   149  LEU149      0.0001
    186  CD2      -73.5520   -2.6600  -27.2540 C.3   149  LEU149      0.0001
    187  N        -78.0980    4.3020  -26.1940 N.3   158  ILE158     -0.1231
    188  CA       -76.8010    4.9520  -25.9790 C.3   158  ILE158      0.1692
    189  C        -76.0020    4.2650  -24.8440 C.2   158  ILE158      0.2593
    190  O        -76.5620    3.9080  -23.8060 O.2   158  ILE158     -0.2718
    191  CB       -76.9360    6.4800  -25.7200 C.3   158  ILE158      0.0266
    192  CG1      -77.9980    7.1200  -26.6590 C.3   158  ILE158      0.0019
    193  CG2      -75.5720    7.1790  -25.8620 C.3   158  ILE158      0.0020
    194  CD1      -78.2840    8.5790  -26.4420 C.3   158  ILE158      0.0001
    195  N        -74.6890    4.1510  -25.0570 N.am  159  GLY159     -0.1942
    196  CA       -73.7190    3.6220  -24.1030 C.3   159  GLY159      0.2014
    197  C        -72.4540    4.4650  -24.0920 C.2   159  GLY159      0.2639
    198  O        -72.4670    5.6370  -24.4980 O.2   159  GLY159     -0.2714
    199  N        -71.3500    3.8430  -23.6280 N.am  160  ASP160     -0.1957
    200  CA       -69.9830    4.3700  -23.5700 C.3   160  ASP160      0.1840
    201  C        -69.0120    3.2270  -23.2650 C.2   160  ASP160      0.2622
    202  O        -69.2380    2.4370  -22.3380 O.2   160  ASP160     -0.2715
    203  CB       -69.8200    5.4900  -22.5330 C.3   160  ASP160      0.1450
    204  CG       -68.5660    6.3440  -22.6650 C.2   160  ASP160      0.3671
    205  OD1      -67.5160    5.8070  -23.1000 O.co2 160  ASP160     -0.2456
    206  OD2      -68.6240    7.5500  -22.2990 O.co2 160  ASP160     -0.2456
    207  N        -67.9030    3.1710  -24.0280 N.am  161  PHE161     -0.1974
    208  CA       -66.8610    2.1560  -23.8460 C.3   161  PHE161      0.1639
    209  C        -65.5590    2.7570  -23.3030 C.2   161  PHE161      0.2290
    210  O        -64.7500    1.9940  -22.7820 O.2   161  PHE161     -0.2864
    211  CB       -66.5530    1.4400  -25.1640 C.3   161  PHE161      0.0560
    212  CG       -67.6590    0.7800  -25.9560 C.ar  161  PHE161     -0.0200
    213  CD1      -68.5260    1.5370  -26.7370 C.ar  161  PHE161     -0.0042
    214  CD2      -67.7250   -0.6070  -26.0650 C.ar  161  PHE161     -0.0042
    215  CE1      -69.5210    0.9120  -27.5210 C.ar  161  PHE161     -0.0003
    216  CE2      -68.7040   -1.2260  -26.8610 C.ar  161  PHE161     -0.0003
    217  CZ       -69.5890   -0.4670  -27.5900 C.ar  161  PHE161     -0.0000
@<TRIPOS>BOND
     1   142   141    2
     2   141   140    1
     3   140   143    1
     4   140   139    1
     5   143   144    1
     6   144   145    1
     7   145   146    1
     8   134   132   ar
     9   134   133   ar
    10   132   130   ar
    11   133   131   ar
    12   123   122    1
    13   146   147    2
    14   130   131   ar
    15   130   129    1
    16   129   126    1
    17   128   127    2
    18   147   148    1
    19   147   149    1
    20   122   121    2
    21   122   124    1
    22   126   127    1
    23   126   125    1
    24   127   135   am
    25   121   120    1
    26   125   116   am
    27   135   136    1
    28   117   116    2
    29   137   138    2
    30   137   136    1
    31   120   119    1
    32   119   118    1
    33   116   115    1
    34   118   115    1
    35   182   181    2
    36   181   180    1
    37   115   114    1
    38   180   179    1
    39   180   183    1
    40   114   108   am
    41   105   104    1
    42     4     3    2
    43   109   108    2
    44   108   107    1
    45   183   184    1
    46     3     2    1
    47     3     9   am
    48   104   103   ar
    49   104   102   ar
    50   217   215   ar
    51   217   216   ar
    52   184   186    1
    53   184   185    1
    54   113   112    1
    55   215   213   ar
    56     2     5    1
    57     2     1    1
    58   107   110    1
    59   107   106    1
    60   110   111    1
    61   103   101   ar
    62     5     6    1
    63   102   100   ar
    64   216   214   ar
    65     8     6    1
    66   213   212   ar
    67   192   194    1
    68   192   191    1
    69     9    10    1
    70    10    11    1
    71   187   188    1
    72     6     7    1
    73   111   112    1
    74   101    99   ar
    75   106    96   am
    76   214   212   ar
    77   188   191    1
    78   188   189    1
    79   212   211    1
    80    11    12    2
    81   193   191    1
    82   100    99   ar
    83    97    96    2
    84    99    98    1
    85    96    95    1
    86   211   208    1
    87   195   189   am
    88   195   196    1
    89   189   190    2
    90   198   197    2
    91    73    71    1
    92   177   175   ar
    93   177   178   ar
    94   175   174   ar
    95    98    95    1
    96   196   197    1
    97   197   199   am
    98    95    94    1
    99   207   208    1
   100   207   201   am
   101   208   209    1
   102   178   176   ar
   103   174   176   ar
   104   174   173    1
   105   199   200    1
   106   200   201    1
   107   200   203    1
   108    92    91   ar
   109   173   170    1
   110    16    15    2
   111   209   210    2
   112    59    60    1
   113   201   202    2
   114   205   204   ar
   115    17    18    1
   116    17    19    1
   117    17    14    1
   118    94    87   am
   119    71    72    1
   120    71    68    1
   121    88    87    2
   122   204   203    1
   123   204   206   ar
   124    91    93   ar
   125    91    90    1
   126    67    68    1
   127    67    61   am
   128    66    64    1
   129    60    61    1
   130    60    63    1
   131   171   170    1
   132   171   172    2
   133    15    14    1
   134    68    69    1
   135    87    86    1
   136   156   155    1
   137    61    62    2
   138    90    89    1
   139   170   169    1
   140    33    32    1
   141    13    14    1
   142    24    21    1
   143    64    63    1
   144    89    86    1
   145    63    65    1
   146   155   154    1
   147   155   157    1
   148    21    20    1
   149    21    22    1
   150    86    85    1
   151   154   151    1
   152    69    70    2
   153   150   151    1
   154    32    31    1
   155   151   152    1
   156    85    76   am
   157    22    23    2
   158    31    30    1
   159   161   160    2
   160   152   153    2
   161    77    76    2
   162    78    79    1
   163    78    75    1
   164    76    75    1
   165   166   164   ar
   166   166   168   ar
   167   164   163   ar
   168   160   159    1
   169    79    80   ar
   170    79    81   ar
   171    30    29    1
   172    75    74    1
   173    80    82   ar
   174    81    83   ar
   175    29    26    1
   176    26    25    1
   177    26    27    1
   178   168   167   ar
   179    82    84   ar
   180    83    84   ar
   181   163   162    1
   182   163   165   ar
   183   159   162    1
   184   159   158    1
   185    57    56    1
   186    27    28    2
   187    54    53    2
   188   167   165   ar
   189    50    48    1
   190    55    56    1
   191    55    52    1
   192    41    40   ar
   193    58    56    1
   194    53    52    1
   195    52    51    1
   196    40    42   ar
   197    40    39    1
   198    49    48    1
   199    48    47    1
   200    39    38    1
   201    47    44    1
   202    46    45    2
   203    44    45    1
   204    44    43    1
   205    38    35    1
   206    37    36    2
   207    35    36    1
   208    35    34    1
