@<TRIPOS>MOLECULE
tmp/6dl9A00.pdb
 170 159 0 0 0
SMALL
GASTEIGER

@<TRIPOS>ATOM
      1  N         26.7810   79.5990   60.7650 N.3   117  VAL117     -0.1245
      2  CA        27.7330   79.4090   59.6690 C.3   117  VAL117      0.1561
      3  C         27.4290   78.0680   59.0170 C.2   117  VAL117      0.2260
      4  O         27.2670   77.0680   59.7200 O.2   117  VAL117     -0.2867
      5  CB        29.1930   79.4780   60.1680 C.3   117  VAL117      0.0252
      6  CG1       30.1770   79.4370   59.0010 C.3   117  VAL117      0.0019
      7  CG2       29.4150   80.7410   60.9780 C.3   117  VAL117      0.0019
      8  N         29.4460   79.9390   53.7050 N.3   270  ASP270     -0.1239
      9  CA        30.8930   79.7310   53.8160 C.3   270  ASP270      0.1674
     10  C         31.4640   79.1590   52.5230 C.2   270  ASP270      0.2266
     11  O         31.0370   78.0900   52.0840 O.2   270  ASP270     -0.2867
     12  CB        31.2020   78.7890   54.9810 C.3   270  ASP270      0.1410
     13  CG        32.6820   78.7600   55.3330 C.2   270  ASP270      0.3668
     14  OD1       33.3910   79.7120   54.9410 O.co2 270  ASP270     -0.2456
     15  OD2       33.1310   77.8120   56.0290 O.co2 270  ASP270     -0.2456
     16  N         34.8600   78.9270   52.6820 N.3   272  GLU272     -0.1231
     17  CA        36.1900   78.6280   53.2120 C.3   272  GLU272      0.1699
     18  C         36.2270   77.3000   53.9640 C.2   272  GLU272      0.2592
     19  O         36.1370   76.2410   53.3420 O.2   272  GLU272     -0.2718
     20  CB        36.6840   79.7640   54.1170 C.3   272  GLU272      0.0402
     21  CG        38.2050   79.7890   54.3090 C.3   272  GLU272      0.1161
     22  CD        38.6170   80.0720   55.7510 C.2   272  GLU272      0.3649
     23  OE1       37.7600   79.9250   56.6590 O.co2 272  GLU272     -0.2457
     24  OE2       39.7940   80.4560   55.9690 O.co2 272  GLU272     -0.2457
     25  N         36.3730   77.3290   55.2990 N.am  273  ASP273     -0.1960
     26  CA        36.8650   76.1260   55.9700 C.3   273  ASP273      0.1840
     27  C         35.8390   75.0030   56.0830 C.2   273  ASP273      0.2622
     28  O         36.2240   73.8820   56.4490 O.2   273  ASP273     -0.2715
     29  CB        37.3940   76.4640   57.3640 C.3   273  ASP273      0.1450
     30  CG        38.8910   76.7920   57.3540 C.2   273  ASP273      0.3671
     31  OD1       39.4910   76.8690   58.4450 O.co2 273  ASP273     -0.2456
     32  OD2       39.4760   76.9580   56.2560 O.co2 273  ASP273     -0.2456
     33  N         34.5680   75.2460   55.7700 N.am  274  SER274     -0.1950
     34  CA        33.5790   74.1890   55.8630 C.3   274  SER274      0.1924
     35  C         33.2160   73.5810   54.5080 C.2   274  SER274      0.2314
     36  O         32.3270   72.7350   54.4600 O.2   274  SER274     -0.2863
     37  CB        32.3190   74.7030   56.5770 C.3   274  SER274      0.2116
     38  OG        31.5510   75.5860   55.7680 O.3   274  SER274     -0.2180
     39  N         31.6010   84.1540   53.4540 N.3   328  ARG328     -0.1245
     40  CA        32.9940   84.0530   53.8730 C.3   328  ARG328      0.1563
     41  C         33.8050   83.6430   52.6480 C.2   328  ARG328      0.2260
     42  O         33.6700   82.5140   52.1560 O.2   328  ARG328     -0.2867
     43  CB        33.1870   83.0860   55.0430 C.3   328  ARG328      0.0307
     44  CG        34.6790   82.9640   55.4410 C.3   328  ARG328      0.0489
     45  CD        34.9140   82.4760   56.8570 C.3   328  ARG328      0.2205
     46  NE        34.6170   81.0570   56.9960 N.pl3 328  ARG328     -0.0865
     47  CZ        34.8730   80.3420   58.0920 C.cat 328  ARG328      0.5346
     48  NH1       35.4470   80.9090   59.1460 N.pl3 328  ARG328      0.1354
     49  NH2       34.5670   79.0580   58.1210 N.pl3 328  ARG328      0.1354
     50  N         38.0620   88.2540   60.6930 N.3   421  MET421     -0.1245
     51  CA        38.3990   87.1940   61.6290 C.3   421  MET421      0.1570
     52  C         39.6710   87.5890   62.3660 C.2   421  MET421      0.2261
     53  O         40.6660   87.9560   61.7350 O.2   421  MET421     -0.2867
     54  CB        38.5860   85.8570   60.9050 C.3   421  MET421      0.0387
     55  CG        37.3620   85.4130   60.1240 C.3   421  MET421      0.0595
     56  SD        35.8850   85.1820   61.1490 S.3   421  MET421     -0.1393
     57  CE        36.5180   83.9960   62.3410 C.3   421  MET421      0.0692
     58  N         41.9530   85.5650   64.0450 N.3   423  GLU423     -0.1245
     59  CA        42.2200   84.1420   64.1880 C.3   423  GLU423      0.1567
     60  C         43.6570   83.7930   63.8070 C.2   423  GLU423      0.2260
     61  O         43.9430   82.6300   63.5070 O.2   423  GLU423     -0.2867
     62  CB        41.2310   83.3210   63.3580 C.3   423  GLU423      0.0388
     63  CG        41.2890   83.5660   61.8450 C.3   423  GLU423      0.1160
     64  CD        40.2280   82.7750   61.0900 C.2   423  GLU423      0.3649
     65  OE1       40.0190   83.0510   59.8850 O.co2 423  GLU423     -0.2457
     66  OE2       39.5760   81.8860   61.6970 O.co2 423  GLU423     -0.2457
     67  N         37.9400   83.7740   65.8540 N.3   448  GLY448     -0.1210
     68  CA        37.9880   82.4180   65.3380 C.3   448  GLY448      0.1956
     69  C         39.0110   81.6290   66.1400 C.2   448  GLY448      0.2612
     70  O         40.1630   81.4850   65.7200 O.2   448  GLY448     -0.2717
     71  N         38.6030   81.1250   67.3070 N.am  449  PHE449     -0.1962
     72  CA        39.5630   80.5940   68.2710 C.3   449  PHE449      0.1771
     73  C         40.2130   79.2780   67.8330 C.2   449  PHE449      0.2619
     74  O         41.2940   78.9390   68.3300 O.2   449  PHE449     -0.2715
     75  CB        38.8770   80.4450   69.6420 C.3   449  PHE449      0.0574
     76  CG        37.9650   79.2430   69.7680 C.ar  449  PHE449     -0.0200
     77  CD1       38.3110   78.1820   70.6040 C.ar  449  PHE449     -0.0042
     78  CD2       36.7530   79.1840   69.0870 C.ar  449  PHE449     -0.0042
     79  CE1       37.4760   77.0840   70.7620 C.ar  449  PHE449     -0.0003
     80  CE2       35.8990   78.0740   69.2230 C.ar  449  PHE449     -0.0003
     81  CZ        36.2650   77.0180   70.0710 C.ar  449  PHE449     -0.0000
     82  N         39.5950   78.5250   66.9250 N.am  450  LEU450     -0.1963
     83  CA        40.2080   77.2710   66.5170 C.3   450  LEU450      0.1728
     84  C         41.3600   77.5200   65.5500 C.2   450  LEU450      0.2616
     85  O         42.4690   77.0200   65.7640 O.2   450  LEU450     -0.2715
     86  CB        39.1420   76.3370   65.9430 C.3   450  LEU450      0.0311
     87  CG        38.1800   75.9940   67.1010 C.3   450  LEU450      0.0022
     88  CD1       36.7940   75.6000   66.6480 C.3   450  LEU450      0.0001
     89  CD2       38.7430   74.9190   68.0290 C.3   450  LEU450      0.0001
     90  N         41.1450   78.3290   64.5030 N.am  451  ASP451     -0.1971
     91  CA        42.2920   78.7400   63.6870 C.3   451  ASP451      0.1709
     92  C         43.3550   79.3880   64.5530 C.2   451  ASP451      0.2293
     93  O         44.5500   79.1060   64.4020 O.2   451  ASP451     -0.2864
     94  CB        41.8700   79.7040   62.5830 C.3   451  ASP451      0.1436
     95  CG        41.6610   79.0040   61.2550 C.2   451  ASP451      0.3671
     96  OD1       40.6970   79.3430   60.5560 O.co2 451  ASP451     -0.2456
     97  OD2       42.4700   78.1130   60.9150 O.co2 451  ASP451     -0.2456
     98  N         33.2750   82.5340   69.0300 N.3   503  GLY503     -0.1210
     99  CA        33.4590   81.3890   68.1590 C.3   503  GLY503      0.1956
    100  C         32.3970   80.3030   68.2430 C.2   503  GLY503      0.2611
    101  O         31.3810   80.4120   68.9340 O.2   503  GLY503     -0.2717
    102  N         32.6900   79.2120   67.5380 N.am  504  MET504     -0.1979
    103  CA        31.7450   78.1580   67.2100 C.3   504  MET504      0.1605
    104  C         31.6380   77.1420   68.3370 C.2   504  MET504      0.2287
    105  O         32.6450   76.7410   68.9290 O.2   504  MET504     -0.2864
    106  CB        32.1870   77.4520   65.9220 C.3   504  MET504      0.0413
    107  CG        31.3140   76.2640   65.5040 C.3   504  MET504      0.0598
    108  SD        29.6450   76.7910   65.0920 S.3   504  MET504     -0.1393
    109  CE        29.8490   77.4700   63.4370 C.3   504  MET504      0.0692
    110  N         31.0590   73.4100   68.8170 N.3   506  THR506     -0.1218
    111  CA        31.2410   72.3140   67.8740 C.3   506  THR506      0.1862
    112  C         30.6050   71.0050   68.3130 C.2   506  THR506      0.2287
    113  O         30.5730   70.0670   67.5150 O.2   506  THR506     -0.2866
    114  CB        32.7330   72.0610   67.6130 C.3   506  THR506      0.1770
    115  OG1       33.3900   71.7160   68.8450 O.3   506  THR506     -0.2211
    116  CG2       33.3750   73.2950   67.0060 C.3   506  THR506      0.0375
    117  N         28.9850   82.1510   67.1470 N.3   530  TRP530     -0.1241
    118  CA        28.6930   81.2180   66.0680 C.3   530  TRP530      0.1605
    119  C         28.0350   79.9460   66.5740 C.2   530  TRP530      0.2264
    120  O         28.4410   79.3810   67.5940 O.2   530  TRP530     -0.2867
    121  CB        29.9640   80.8670   65.2920 C.3   530  TRP530      0.0550
    122  CG        30.4240   81.9730   64.4000 C.ar  530  TRP530      0.0003
    123  CD1       29.9190   83.2440   64.3310 C.ar  530  TRP530      0.0946
    124  CD2       31.4970   81.9100   63.4450 C.ar  530  TRP530      0.0152
    125  NE1       30.6160   83.9730   63.3890 N.ar  530  TRP530     -0.2442
    126  CE2       31.5920   83.1820   62.8380 C.ar  530  TRP530      0.0810
    127  CE3       32.3920   80.9050   63.0560 C.ar  530  TRP530      0.0012
    128  CZ2       32.5410   83.4760   61.8570 C.ar  530  TRP530      0.0191
    129  CZ3       33.3350   81.1940   62.0780 C.ar  530  TRP530      0.0001
    130  CH2       33.4010   82.4740   61.4870 C.ar  530  TRP530      0.0015
    131  N         26.3180   76.0330   65.0450 N.3   532  PRO532     -0.2116
    132  CA        26.4780   75.1230   63.9030 C.3   532  PRO532      0.1372
    133  C         25.1950   74.7090   63.1900 C.2   532  PRO532      0.2244
    134  O         25.2830   74.0640   62.1360 O.2   532  PRO532     -0.2868
    135  CB        27.1500   73.9070   64.5560 C.3   532  PRO532      0.0268
    136  CG        26.5900   73.8920   65.9740 C.3   532  PRO532      0.0207
    137  CD        26.4230   75.3390   66.3510 C.3   532  PRO532      0.0892
    138  N         32.8950   69.6490   55.9000 N.3   608  ALA608     -0.1245
    139  CA        32.4980   69.7230   57.3040 C.3   608  ALA608      0.1562
    140  C         31.7340   68.4590   57.6450 C.2   608  ALA608      0.2260
    141  O         30.7490   68.1460   56.9730 O.2   608  ALA608     -0.2867
    142  CB        31.6270   70.9560   57.5780 C.3   608  ALA608      0.0290
    143  N         31.6030   68.7280   65.2080 N.3   620  MET620     -0.1245
    144  CA        31.6030   69.2650   63.8520 C.3   620  MET620      0.1570
    145  C         33.0220   69.6930   63.5060 C.2   620  MET620      0.2261
    146  O         33.5420   70.6680   64.0590 O.2   620  MET620     -0.2867
    147  CB        30.6250   70.4300   63.7220 C.3   620  MET620      0.0387
    148  CG        30.5410   71.0110   62.3110 C.3   620  MET620      0.0595
    149  SD        29.8680   69.8790   61.0690 S.3   620  MET620     -0.1393
    150  CE        28.1250   69.8490   61.5150 C.3   620  MET620      0.0692
    151  N         35.9980   70.9350   60.8390 N.3   622  ASP622     -0.1239
    152  CA        36.3130   71.5790   59.5710 C.3   622  ASP622      0.1674
    153  C         37.8140   71.8620   59.5660 C.2   622  ASP622      0.2266
    154  O         38.5620   71.2910   60.3670 O.2   622  ASP622     -0.2867
    155  CB        35.3680   72.7690   59.3200 C.3   622  ASP622      0.1410
    156  CG        35.8430   74.1020   59.8960 C.2   622  ASP622      0.3668
    157  OD1       36.6960   74.1700   60.8170 O.co2 622  ASP622     -0.2456
    158  OD2       35.2930   75.1220   59.3930 O.co2 622  ASP622     -0.2456
    159  N         39.8100   74.2430   60.3750 N.3   624  ALA624     -0.1231
    160  CA        40.4500   74.8100   61.5620 C.3   624  ALA624      0.1694
    161  C         40.7000   73.7540   62.6330 C.2   624  ALA624      0.2592
    162  O         41.7740   73.7340   63.2430 O.2   624  ALA624     -0.2718
    163  CB        39.6120   75.9540   62.1350 C.3   624  ALA624      0.0304
    164  N         39.7220   72.8820   62.9040 N.am  625  THR625     -0.1953
    165  CA        39.9770   71.8360   63.8990 C.3   625  THR625      0.1897
    166  C         41.0360   70.8550   63.4000 C.2   625  THR625      0.2313
    167  O         41.8290   70.3350   64.1970 O.2   625  THR625     -0.2863
    168  CB        38.6820   71.0910   64.2560 C.3   625  THR625      0.1794
    169  OG1       38.1180   70.4830   63.0820 O.3   625  THR625     -0.2208
    170  CG2       37.6630   72.0410   64.8840 C.3   625  THR625      0.0378
@<TRIPOS>BOND
     1    11    10    2
     2    42    41    2
     3    10     9    1
     4    41    40    1
     5    16    17    1
     6    17    18    1
     7    17    20    1
     8    19    18    2
     9    39    40    1
    10     8     9    1
    11     9    12    1
    12    40    43    1
    13    18    25   am
    14    20    21    1
    15    21    22    1
    16    36    35    2
    17    35    34    1
    18    14    13   ar
    19    12    13    1
    20    43    44    1
    21    25    26    1
    22    13    15   ar
    23    44    45    1
    24    22    24   ar
    25    22    23   ar
    26    38    37    1
    27    33    34    1
    28    33    27   am
    29    34    37    1
    30   138   139    1
    31    26    27    1
    32    26    29    1
    33    27    28    2
    34    32    30   ar
    35    45    46    1
    36   141   140    2
    37    46    47    2
    38   139   142    1
    39   139   140    1
    40    30    29    1
    41    30    31   ar
    42    47    49    1
    43    47    48    1
    44     6     5    1
    45     3     2    1
    46     3     4    2
    47   155   152    1
    48   155   156    1
    49   158   156   ar
    50   153   152    1
    51   153   154    2
    52   152   151    1
    53     2     5    1
    54     2     1    1
    55    65    64   ar
    56   156   157   ar
    57    55    54    1
    58    55    56    1
    59     5     7    1
    60   159   160    1
    61    96    95   ar
    62    50    51    1
    63    54    51    1
    64    97    95   ar
    65   149   150    1
    66   149   148    1
    67    64    66   ar
    68    64    63    1
    69    56    57    1
    70    95    94    1
    71   130   128   ar
    72   130   129   ar
    73   160   163    1
    74   160   161    1
    75    51    52    1
    76    53    52    2
    77    63    62    1
    78   128   126   ar
    79   129   127   ar
    80   134   133    2
    81   148   147    1
    82    94    91    1
    83   161   164   am
    84   161   162    2
    85   126   125   ar
    86   126   124   ar
    87   164   165    1
    88   127   124   ar
    89   169   168    1
    90   133   132    1
    91    62    59    1
    92   125   123   ar
    93   166   165    1
    94   166   167    2
    95   109   108    1
    96   124   122   ar
    97   145   144    1
    98   145   146    2
    99    61    60    2
   100    91    90    1
   101    91    92    1
   102   147   144    1
   103    60    59    1
   104   144   143    1
   105   165   168    1
   106   132   135    1
   107   132   131    1
   108    58    59    1
   109   168   170    1
   110   123   122   ar
   111   122   121    1
   112    93    92    2
   113    90    84   am
   114   135   136    1
   115   131   137    1
   116   108   107    1
   117   121   118    1
   118    68    67    1
   119    68    69    1
   120   107   106    1
   121    84    85    2
   122    84    83    1
   123    70    69    2
   124   106   103    1
   125    86    83    1
   126    86    87    1
   127   136   137    1
   128   118   119    1
   129   118   117    1
   130    69    71   am
   131    83    82    1
   132   119   120    2
   133    88    87    1
   134    82    73   am
   135   116   114    1
   136    87    89    1
   137   103   102    1
   138   103   104    1
   139    71    72    1
   140   113   112    2
   141   102   100   am
   142   114   111    1
   143   114   115    1
   144    73    72    1
   145    73    74    2
   146   111   112    1
   147   111   110    1
   148    99   100    1
   149    99    98    1
   150   100   101    2
   151    72    75    1
   152   104   105    2
   153    78    80   ar
   154    78    76   ar
   155    80    81   ar
   156    75    76    1
   157    76    77   ar
   158    81    79   ar
   159    77    79   ar
