@<TRIPOS>MOLECULE
tmp/6dljA00.pdb
 164 155 0 0 0
SMALL
GASTEIGER

@<TRIPOS>ATOM
      1  N         26.9840   80.4060   60.9280 N.3   112  VAL112     -0.1231
      2  CA        27.9350   80.2000   59.8380 C.3   112  VAL112      0.1692
      3  C         27.5840   78.8930   59.1420 C.2   112  VAL112      0.2592
      4  O         27.3220   77.8840   59.8080 O.2   112  VAL112     -0.2718
      5  CB        29.3990   80.1710   60.3230 C.3   112  VAL112      0.0266
      6  CG1       30.3330   79.9900   59.1450 C.3   112  VAL112      0.0020
      7  CG2       29.7400   81.4470   61.0840 C.3   112  VAL112      0.0020
      8  N         27.5740   78.9160   57.8070 N.am  113  VAL113     -0.1966
      9  CA        27.1150   77.7840   56.9950 C.3   113  VAL113      0.1712
     10  C         27.9690   77.6500   55.7380 C.2   113  VAL113      0.2458
     11  O         28.4100   78.6660   55.1660 O.2   113  VAL113     -0.2730
     12  CB        25.6320   77.9400   56.6280 C.3   113  VAL113      0.0289
     13  CG1       25.4450   79.0990   55.6800 C.3   113  VAL113      0.0023
     14  CG2       25.0980   76.6880   55.9920 C.3   113  VAL113      0.0023
     15  N         28.2470   76.4250   55.2810 N.am  114  PRO114     -0.2727
     16  CA        29.0100   76.2440   54.0310 C.3   114  PRO114      0.1402
     17  C         28.1630   76.6020   52.8170 C.2   114  PRO114      0.2269
     18  O         27.1290   75.9710   52.5740 O.2   114  PRO114     -0.2865
     19  CB        29.3730   74.7530   54.0520 C.3   114  PRO114      0.0296
     20  CG        28.3750   74.1200   54.9820 C.3   114  PRO114      0.0237
     21  CD        28.0980   75.1580   56.0230 C.3   114  PRO114      0.0939
     22  N         36.7250   78.1530   55.3680 N.3   268  ASP268     -0.1225
     23  CA        37.1590   76.9560   56.0900 C.3   268  ASP268      0.1805
     24  C         36.1100   75.8700   56.2300 C.2   268  ASP268      0.2598
     25  O         36.4340   74.8260   56.7990 O.2   268  ASP268     -0.2718
     26  CB        37.6510   77.3310   57.4850 C.3   268  ASP268      0.1424
     27  CG        39.1390   77.5880   57.5120 C.2   268  ASP268      0.3668
     28  OD1       39.7040   77.7060   58.6230 O.co2 268  ASP268     -0.2456
     29  OD2       39.7510   77.6640   56.4080 O.co2 268  ASP268     -0.2456
     30  N         34.8810   76.0290   55.7570 N.am  269  SER269     -0.1952
     31  CA        33.9450   74.9180   55.8630 C.3   269  SER269      0.1924
     32  C         33.5070   74.3640   54.5050 C.2   269  SER269      0.2314
     33  O         32.5790   73.5450   54.4510 O.2   269  SER269     -0.2863
     34  CB        32.7360   75.3300   56.7060 C.3   269  SER269      0.2116
     35  OG        31.8880   76.2010   56.0000 O.3   269  SER269     -0.2180
     36  N         31.8490   85.0220   53.7390 N.3   323  ARG323     -0.1245
     37  CA        33.2410   84.9400   54.1670 C.3   323  ARG323      0.1563
     38  C         34.0840   84.5510   52.9460 C.2   323  ARG323      0.2260
     39  O         34.0170   83.4110   52.4660 O.2   323  ARG323     -0.2867
     40  CB        33.4290   83.9750   55.3380 C.3   323  ARG323      0.0307
     41  CG        34.8900   83.9140   55.8180 C.3   323  ARG323      0.0489
     42  CD        35.0970   83.3440   57.2310 C.3   323  ARG323      0.2205
     43  NE        34.8320   81.9070   57.2950 N.pl3 323  ARG323     -0.0865
     44  CZ        35.0130   81.1500   58.3770 C.cat 323  ARG323      0.5346
     45  NH1       35.4800   81.6730   59.4980 N.pl3 323  ARG323      0.1354
     46  NH2       34.7310   79.8630   58.3450 N.pl3 323  ARG323      0.1354
     47  N         38.3050   89.1740   61.0030 N.3   412  MET412     -0.1245
     48  CA        38.6180   88.0430   61.8730 C.3   412  MET412      0.1570
     49  C         39.9240   88.3230   62.5980 C.2   412  MET412      0.2261
     50  O         40.9720   88.4500   61.9580 O.2   412  MET412     -0.2867
     51  CB        38.7450   86.7330   61.0900 C.3   412  MET412      0.0387
     52  CG        37.4900   86.2820   60.3620 C.3   412  MET412      0.0595
     53  SD        36.0880   85.8700   61.4110 S.3   412  MET412     -0.1393
     54  CE        36.8360   84.8150   62.6500 C.3   412  MET412      0.0692
     55  N         42.2260   86.3320   64.3870 N.3   414  GLU414     -0.1245
     56  CA        42.4940   84.8990   64.5080 C.3   414  GLU414      0.1567
     57  C         43.9250   84.5610   64.0860 C.2   414  GLU414      0.2260
     58  O         44.2050   83.4330   63.6550 O.2   414  GLU414     -0.2867
     59  CB        41.4930   84.0690   63.6790 C.3   414  GLU414      0.0388
     60  CG        41.5420   84.3660   62.1810 C.3   414  GLU414      0.1160
     61  CD        40.4870   83.6150   61.3770 C.2   414  GLU414      0.3649
     62  OE1       40.2250   84.0360   60.2310 O.co2 414  GLU414     -0.2457
     63  OE2       39.9310   82.6070   61.8730 O.co2 414  GLU414     -0.2457
     64  N         38.4160   84.5540   66.1560 N.3   439  GLY439     -0.1210
     65  CA        38.5070   83.2360   65.5390 C.3   439  GLY439      0.1956
     66  C         39.4450   82.3060   66.2870 C.2   439  GLY439      0.2612
     67  O         40.5550   82.0140   65.8250 O.2   439  GLY439     -0.2717
     68  N         38.9810   81.8140   67.4430 N.am  440  PHE440     -0.1962
     69  CA        39.8780   81.2540   68.4500 C.3   440  PHE440      0.1771
     70  C         40.4900   79.9270   68.0190 C.2   440  PHE440      0.2619
     71  O         41.6040   79.5930   68.4500 O.2   440  PHE440     -0.2715
     72  CB        39.1270   81.1050   69.7770 C.3   440  PHE440      0.0574
     73  CG        38.2350   79.8880   69.8540 C.ar  440  PHE440     -0.0200
     74  CD1       38.6240   78.7750   70.5810 C.ar  440  PHE440     -0.0042
     75  CD2       37.0010   79.8690   69.2190 C.ar  440  PHE440     -0.0042
     76  CE1       37.8150   77.6610   70.6620 C.ar  440  PHE440     -0.0003
     77  CE2       36.1780   78.7520   69.2920 C.ar  440  PHE440     -0.0003
     78  CZ        36.5910   77.6510   70.0200 C.ar  440  PHE440     -0.0000
     79  N         39.7970   79.1590   67.1800 N.am  441  LEU441     -0.1963
     80  CA        40.3890   77.9290   66.6610 C.3   441  LEU441      0.1728
     81  C         41.5660   78.2270   65.7300 C.2   441  LEU441      0.2616
     82  O         42.6840   77.7660   65.9790 O.2   441  LEU441     -0.2715
     83  CB        39.3140   77.0910   65.9760 C.3   441  LEU441      0.0311
     84  CG        38.2480   76.7330   67.0130 C.3   441  LEU441      0.0022
     85  CD1       36.9700   76.2740   66.3550 C.3   441  LEU441      0.0001
     86  CD2       38.7820   75.6810   67.9820 C.3   441  LEU441      0.0001
     87  N         41.3430   79.0070   64.6570 N.am  442  ASP442     -0.1971
     88  CA        42.4710   79.4650   63.8390 C.3   442  ASP442      0.1709
     89  C         43.5640   80.0410   64.7080 C.2   442  ASP442      0.2293
     90  O         44.7480   79.7290   64.5240 O.2   442  ASP442     -0.2864
     91  CB        42.0520   80.5400   62.8290 C.3   442  ASP442      0.1436
     92  CG        41.8560   79.9880   61.4490 C.2   442  ASP442      0.3671
     93  OD1       40.7330   80.0840   60.8910 O.co2 442  ASP442     -0.2456
     94  OD2       42.8390   79.4270   60.9350 O.co2 442  ASP442     -0.2456
     95  N         32.9890   79.9000   67.7530 N.3   495  MET495     -0.1245
     96  CA        32.0430   78.8340   67.4360 C.3   495  MET495      0.1570
     97  C         31.9290   77.7980   68.5500 C.2   495  MET495      0.2261
     98  O         32.9290   77.4010   69.1670 O.2   495  MET495     -0.2867
     99  CB        32.4780   78.1340   66.1460 C.3   495  MET495      0.0387
    100  CG        31.6050   76.9680   65.7040 C.3   495  MET495      0.0595
    101  SD        29.9130   77.4570   65.2920 S.3   495  MET495     -0.1393
    102  CE        30.0930   78.2800   63.6980 C.3   495  MET495      0.0692
    103  N         31.3810   74.0820   68.9730 N.3   497  THR497     -0.1218
    104  CA        31.5450   72.9710   68.0370 C.3   497  THR497      0.1862
    105  C         30.8350   71.7000   68.4690 C.2   497  THR497      0.2287
    106  O         30.6540   70.8000   67.6420 O.2   497  THR497     -0.2866
    107  CB        33.0280   72.6600   67.8190 C.3   497  THR497      0.1770
    108  OG1       33.6870   72.5050   69.0840 O.3   497  THR497     -0.2211
    109  CG2       33.6910   73.7820   67.0230 C.3   497  THR497      0.0375
    110  N         29.3230   82.8060   67.4990 N.3   521  TRP521     -0.1241
    111  CA        29.0240   81.9020   66.3950 C.3   521  TRP521      0.1605
    112  C         28.3340   80.6160   66.8430 C.2   521  TRP521      0.2264
    113  O         28.7110   79.9930   67.8420 O.2   521  TRP521     -0.2867
    114  CB        30.2990   81.5690   65.6180 C.3   521  TRP521      0.0550
    115  CG        30.7410   82.6940   64.7130 C.ar  521  TRP521      0.0003
    116  CD1       30.2000   83.9610   64.6370 C.ar  521  TRP521      0.0946
    117  CD2       31.8160   82.6660   63.7690 C.ar  521  TRP521      0.0152
    118  NE1       30.8750   84.7090   63.7070 N.ar  521  TRP521     -0.2442
    119  CE2       31.8730   83.9420   63.1600 C.ar  521  TRP521      0.0810
    120  CE3       32.7300   81.6840   63.3680 C.ar  521  TRP521      0.0012
    121  CZ2       32.8100   84.2560   62.1740 C.ar  521  TRP521      0.0191
    122  CZ3       33.6560   81.9970   62.3880 C.ar  521  TRP521      0.0001
    123  CH2       33.6870   83.2700   61.8020 C.ar  521  TRP521      0.0015
    124  N         26.5350   76.7830   65.2390 N.3   523  PRO523     -0.2116
    125  CA        26.7100   75.8910   64.0880 C.3   523  PRO523      0.1372
    126  C         25.4250   75.4570   63.3930 C.2   523  PRO523      0.2244
    127  O         25.5010   74.8560   62.3180 O.2   523  PRO523     -0.2868
    128  CB        27.4230   74.6870   64.7120 C.3   523  PRO523      0.0268
    129  CG        26.8750   74.6190   66.0880 C.3   523  PRO523      0.0207
    130  CD        26.6450   76.0500   66.5150 C.3   523  PRO523      0.0892
    131  N         33.1170   70.6610   55.8230 N.3   599  CYS599     -0.1235
    132  CA        32.8280   70.5400   57.2450 C.3   599  CYS599      0.1677
    133  C         32.0150   69.2750   57.4820 C.2   599  CYS599      0.2270
    134  O         31.1310   68.9430   56.6830 O.2   599  CYS599     -0.2867
    135  CB        32.0740   71.7650   57.7780 C.3   599  CYS599      0.0956
    136  SG        30.4420   72.0350   57.0450 S.3   599  CYS599     -0.0801
    137  N         31.8600   69.3430   65.4060 N.3   611  MET611     -0.1245
    138  CA        31.8070   69.9160   64.0640 C.3   611  MET611      0.1570
    139  C         33.2060   70.3380   63.6410 C.2   611  MET611      0.2261
    140  O         33.7600   71.2970   64.1850 O.2   611  MET611     -0.2867
    141  CB        30.8600   71.1020   64.0400 C.3   611  MET611      0.0387
    142  CG        31.0790   72.0060   62.8750 C.3   611  MET611      0.0595
    143  SD        29.7750   71.8170   61.6850 S.3   611  MET611     -0.1393
    144  CE        30.0420   70.1390   61.0950 C.3   611  MET611      0.0692
    145  N         36.1970   71.5960   60.9360 N.3   613  ASP613     -0.1239
    146  CA        36.4510   72.4120   59.7620 C.3   613  ASP613      0.1674
    147  C         37.9600   72.6510   59.7030 C.2   613  ASP613      0.2266
    148  O         38.7230   72.1250   60.5180 O.2   613  ASP613     -0.2867
    149  CB        35.5660   73.6780   59.7890 C.3   613  ASP613      0.1410
    150  CG        36.2180   74.9050   60.4800 C.2   613  ASP613      0.3668
    151  OD1       36.9740   74.7660   61.4830 O.co2 613  ASP613     -0.2456
    152  OD2       35.9370   76.0440   59.9910 O.co2 613  ASP613     -0.2456
    153  N         39.9500   74.9220   60.5220 N.3   615  ALA615     -0.1231
    154  CA        40.6470   75.5190   61.6620 C.3   615  ALA615      0.1694
    155  C         40.9030   74.4850   62.7580 C.2   615  ALA615      0.2592
    156  O         42.0120   74.4100   63.3090 O.2   615  ALA615     -0.2718
    157  CB        39.8610   76.7150   62.2110 C.3   615  ALA615      0.0304
    158  N         39.8970   73.6680   63.0890 N.am  616  THR616     -0.1953
    159  CA        40.1610   72.5910   64.0360 C.3   616  THR616      0.1897
    160  C         41.1910   71.6170   63.4680 C.2   616  THR616      0.2313
    161  O         41.9590   71.0120   64.2240 O.2   616  THR616     -0.2863
    162  CB        38.8550   71.8830   64.4220 C.3   616  THR616      0.1794
    163  OG1       38.3620   71.1140   63.3220 O.3   616  THR616     -0.2208
    164  CG2       37.7870   72.9040   64.8230 C.3   616  THR616      0.0378
@<TRIPOS>BOND
     1    39    38    2
     2    18    17    2
     3    17    16    1
     4    38    37    1
     5    36    37    1
     6    16    19    1
     7    16    15    1
     8    19    20    1
     9    37    40    1
    10    33    32    2
    11    32    31    1
    12    20    21    1
    13    11    10    2
    14    15    10   am
    15    15    21    1
    16    40    41    1
    17    22    23    1
    18    13    12    1
    19    10     9    1
    20    30    31    1
    21    30    24   am
    22    41    42    1
    23   131   132    1
    24    31    34    1
    25    14    12    1
    26    35    34    1
    27    23    24    1
    28    23    26    1
    29    24    25    2
    30    29    27   ar
    31    12     9    1
    32   134   133    2
    33     9     8    1
    34   136   135    1
    35    42    43    1
    36   132   133    1
    37   132   135    1
    38    43    44    2
    39    26    27    1
    40    27    28   ar
    41     8     3   am
    42    46    44    1
    43    44    45    1
    44     3     4    2
    45     3     2    1
    46     6     5    1
    47   147   146    1
    48   147   148    2
    49   146   149    1
    50   146   145    1
    51   149   150    1
    52     2     5    1
    53     2     1    1
    54   152   150   ar
    55    62    61   ar
    56     5     7    1
    57    52    51    1
    58    52    53    1
    59   150   151   ar
    60   153   154    1
    61    93    92   ar
    62    94    92   ar
    63    47    48    1
    64    51    48    1
    65   144   143    1
    66    61    63   ar
    67    61    60    1
    68    53    54    1
    69    92    91    1
    70   154   157    1
    71   154   155    1
    72   143   142    1
    73   123   121   ar
    74   123   122   ar
    75    48    49    1
    76    50    49    2
    77   121   119   ar
    78    60    59    1
    79   127   126    2
    80   122   120   ar
    81   155   158   am
    82   155   156    2
    83    91    88    1
    84   142   141    1
    85   158   159    1
    86   119   118   ar
    87   119   117   ar
    88   163   162    1
    89   120   117   ar
    90   126   125    1
    91   160   159    1
    92   160   161    2
    93   139   138    1
    94   139   140    2
    95    58    57    2
    96    59    56    1
    97   102   101    1
    98   118   116   ar
    99   117   115   ar
   100    88    87    1
   101    88    89    1
   102   159   162    1
   103   141   138    1
   104   138   137    1
   105    57    56    1
   106   125   128    1
   107   125   124    1
   108    55    56    1
   109   162   164    1
   110    90    89    2
   111   116   115   ar
   112    87    81   am
   113   128   129    1
   114   115   114    1
   115   124   130    1
   116   101   100    1
   117    65    64    1
   118    65    66    1
   119   114   111    1
   120   100    99    1
   121    81    82    2
   122    81    80    1
   123    67    66    2
   124    83    80    1
   125    83    84    1
   126   129   130    1
   127    99    96    1
   128    66    68   am
   129    85    84    1
   130   111   112    1
   131   111   110    1
   132    80    79    1
   133   112   113    2
   134    84    86    1
   135   109   107    1
   136    79    70   am
   137    96    95    1
   138    96    97    1
   139    68    69    1
   140   106   105    2
   141   107   104    1
   142   107   108    1
   143    70    69    1
   144    70    71    2
   145   104   105    1
   146   104   103    1
   147    69    72    1
   148    97    98    2
   149    75    77   ar
   150    75    73   ar
   151    77    78   ar
   152    72    73    1
   153    73    74   ar
   154    78    76   ar
   155    74    76   ar
