@<TRIPOS>MOLECULE
tmp/6dluB00.pdb
 191 185 0 0 0
SMALL
GASTEIGER

@<TRIPOS>ATOM
      1  N        188.6580  428.4760  279.6880 N.3    40  GLN40      -0.1231
      2  CA       187.6000  429.1410  280.4320 C.3    40  GLN40       0.1698
      3  C        187.3820  430.5520  279.9110 C.2    40  GLN40       0.2593
      4  O        188.3380  431.2910  279.6670 O.2    40  GLN40      -0.2718
      5  CB       187.9210  429.1820  281.9180 C.3    40  GLN40       0.0381
      6  CG       186.8350  429.8460  282.7230 C.3    40  GLN40       0.0905
      7  CD       187.1230  429.8250  284.1960 C.2    40  GLN40       0.2608
      8  OE1      188.1310  429.2790  284.6310 O.2    40  GLN40      -0.2717
      9  NE2      186.2570  430.4510  284.9760 N.am   40  GLN40      -0.0878
     10  N        186.1160  430.9120  279.7250 N.am   41  SER41      -0.1938
     11  CA       185.7240  432.2480  279.2830 C.3    41  SER41       0.2055
     12  C        186.3360  432.5970  277.9330 C.2    41  SER41       0.2643
     13  O        186.7770  433.7230  277.7070 O.2    41  SER41      -0.2714
     14  CB       186.0850  433.3080  280.3220 C.3    41  SER41       0.2130
     15  OG       185.7470  434.6010  279.8600 O.3    41  SER41      -0.2179
     16  N        186.3590  431.6300  277.0260 N.am   42  ALA42      -0.1963
     17  CA       186.7440  431.8960  275.6510 C.3    42  ALA42       0.1728
     18  C        185.5620  432.2980  274.7830 C.2    42  ALA42       0.2617
     19  O        185.7510  432.5900  273.6010 O.2    42  ALA42      -0.2715
     20  CB       187.4340  430.6750  275.0470 C.3    42  ALA42       0.0334
     21  N        184.3520  432.2980  275.3280 N.am   43  GLY43      -0.1940
     22  CA       183.1830  432.6920  274.5680 C.3    43  GLY43       0.2014
     23  C        182.5260  431.5450  273.8320 C.2    43  GLY43       0.2639
     24  O        182.1800  431.6740  272.6560 O.2    43  GLY43      -0.2714
     25  N        182.3330  430.4210  274.5140 N.am   44  LYS44      -0.1963
     26  CA       181.9040  429.2000  273.8470 C.3    44  LYS44       0.1728
     27  C        180.3900  429.1330  273.6980 C.2    44  LYS44       0.2617
     28  O        179.8720  428.9820  272.5870 O.2    44  LYS44      -0.2715
     29  CB       182.4000  427.9990  274.6460 C.3    44  LYS44       0.0311
     30  CG       183.8760  428.0580  274.9480 C.3    44  LYS44       0.0038
     31  CD       184.3010  426.8890  275.7930 C.3    44  LYS44       0.0206
     32  CE       183.5650  426.9030  277.1110 C.3    44  LYS44       0.1093
     33  NZ       183.8160  428.1330  277.9150 N.3    44  LYS44      -0.1314
     34  N        179.6730  429.2710  274.8130 N.am   45  SER45      -0.1936
     35  CA       178.2270  429.1080  274.7960 C.3    45  SER45       0.2055
     36  C        177.5600  430.1310  273.8930 C.2    45  SER45       0.2643
     37  O        176.5100  429.8490  273.3090 O.2    45  SER45      -0.2714
     38  CB       177.6800  429.2090  276.2150 C.3    45  SER45       0.2130
     39  OG       178.1790  428.1610  277.0260 O.3    45  SER45      -0.2179
     40  N        178.1450  431.3190  273.7650 N.am   46  SER46      -0.1949
     41  CA       177.5960  432.2930  272.8320 C.3    46  SER46       0.1924
     42  C        177.7050  431.7940  271.3980 C.2    46  SER46       0.2314
     43  O        176.7510  431.9100  270.6210 O.2    46  SER46      -0.2863
     44  CB       178.2980  433.6350  273.0030 C.3    46  SER46       0.2116
     45  OG       178.0390  434.1650  274.2910 O.3    46  SER46      -0.2180
     46  N        173.5280  429.3410  279.7660 N.3    58  PRO58      -0.2102
     47  CA       174.0990  430.2820  280.7300 C.3    58  PRO58       0.1504
     48  C        175.4120  430.8480  280.2210 C.2    58  PRO58       0.2576
     49  O        176.1670  430.1820  279.5110 O.2    58  PRO58      -0.2718
     50  CB       174.3180  429.4200  281.9770 C.3    58  PRO58       0.0282
     51  CG       173.4540  428.2350  281.7860 C.3    58  PRO58       0.0208
     52  CD       173.4450  427.9830  280.3180 C.3    58  PRO58       0.0893
     53  N        175.6860  432.0930  280.5980 N.am   59  ARG59      -0.1966
     54  CA       176.9390  432.7270  280.2190 C.3    59  ARG59       0.1729
     55  C        177.1590  433.9490  281.0940 C.2    59  ARG59       0.2617
     56  O        176.2140  434.5210  281.6390 O.2    59  ARG59      -0.2715
     57  CB       176.9300  433.1050  278.7420 C.3    59  ARG59       0.0348
     58  CG       175.9680  434.2090  278.4170 C.3    59  ARG59       0.0492
     59  CD       175.8350  434.3460  276.9240 C.3    59  ARG59       0.2205
     60  NE       175.1700  433.1600  276.4080 N.pl3  59  ARG59      -0.0865
     61  CZ       173.8510  433.0240  276.3490 C.cat  59  ARG59       0.5346
     62  NH1      173.3170  431.9040  275.8840 N.pl3  59  ARG59       0.1354
     63  NH2      173.0660  434.0040  276.7690 N.pl3  59  ARG59       0.1354
     64  N        178.4160  434.3470  281.2100 N.am   60  GLY60      -0.1940
     65  CA       178.7660  435.5060  282.0020 C.3    60  GLY60       0.2014
     66  C        180.2330  435.4610  282.3790 C.2    60  GLY60       0.2640
     67  O        180.9810  434.5900  281.9420 O.2    60  GLY60      -0.2714
     68  N        180.6220  436.4190  283.2100 N.am   61  SER61      -0.1935
     69  CA       182.0050  436.4710  283.6480 C.3    61  SER61       0.2055
     70  C        182.2920  435.3360  284.6230 C.2    61  SER61       0.2644
     71  O        181.3890  434.7500  285.2230 O.2    61  SER61      -0.2714
     72  CB       182.3110  437.8130  284.3040 C.3    61  SER61       0.2130
     73  OG       181.5790  437.9680  285.5060 O.3    61  SER61      -0.2179
     74  N        183.5740  435.0260  284.7760 N.am   62  GLY62      -0.1939
     75  CA       183.9440  433.9610  285.6840 C.3    62  GLY62       0.2014
     76  C        183.6040  432.6000  285.1050 C.2    62  GLY62       0.2639
     77  O        183.5490  432.4060  283.8890 O.2    62  GLY62      -0.2714
     78  N        183.3690  431.6430  285.9930 N.am   63  ILE63      -0.1963
     79  CA       183.0240  430.2860  285.5920 C.3    63  ILE63       0.1727
     80  C        181.5080  430.1540  285.5820 C.2    63  ILE63       0.2616
     81  O        180.8310  430.5580  286.5330 O.2    63  ILE63      -0.2715
     82  CB       183.6860  429.2520  286.5200 C.3    63  ILE63       0.0290
     83  CG1      183.4700  427.8400  285.9930 C.3    63  ILE63       0.0022
     84  CG2      183.1930  429.3810  287.9420 C.3    63  ILE63       0.0023
     85  CD1      184.3780  426.8220  286.6270 C.3    63  ILE63       0.0001
     86  N        180.9670  429.6280  284.4860 N.am   64  VAL64      -0.1963
     87  CA       179.5220  429.5350  284.3330 C.3    64  VAL64       0.1727
     88  C        179.1000  428.1060  284.0350 C.2    64  VAL64       0.2616
     89  O        178.3510  427.4940  284.8010 O.2    64  VAL64      -0.2715
     90  CB       179.0340  430.4760  283.2250 C.3    64  VAL64       0.0290
     91  CG1      177.5660  430.2790  283.0080 C.3    64  VAL64       0.0023
     92  CG2      179.3220  431.9090  283.5870 C.3    64  VAL64       0.0023
     93  N        179.5640  427.5720  282.9130 N.am   65  THR65      -0.1951
     94  CA       179.2180  426.2140  282.5090 C.3    65  THR65       0.1897
     95  C        180.0440  425.2470  283.3420 C.2    65  THR65       0.2313
     96  O        181.2190  425.0120  283.0620 O.2    65  THR65      -0.2863
     97  CB       179.4680  426.0190  281.0200 C.3    65  THR65       0.1794
     98  OG1      178.6890  426.9610  280.2730 O.3    65  THR65      -0.2208
     99  CG2      179.0910  424.6180  280.5980 C.3    65  THR65       0.0378
    100  N        184.9760  424.9550  280.0120 N.3   139  GLY139     -0.1225
    101  CA       186.3090  425.3150  279.5890 C.3   139  GLY139      0.1811
    102  C        187.3470  424.7290  280.5230 C.2   139  GLY139      0.2280
    103  O        187.1290  424.5990  281.7260 O.2   139  GLY139     -0.2866
    104  N        186.8500  434.3930  268.7130 N.3   205  THR205     -0.1203
    105  CA       185.8790  435.2690  269.3440 C.3   205  THR205      0.1994
    106  C        186.5840  436.4630  269.9650 C.2   205  THR205      0.2617
    107  O        187.8120  436.5160  270.0490 O.2   205  THR205     -0.2717
    108  CB       185.0880  434.5330  270.4220 C.3   205  THR205      0.1784
    109  OG1      185.9900  434.0740  271.4300 O.3   205  THR205     -0.2211
    110  CG2      184.3900  433.3490  269.8330 C.3   205  THR205      0.0376
    111  N        185.7780  437.4230  270.4150 N.am  206  LYS206     -0.1979
    112  CA       186.2750  438.6140  271.0950 C.3   206  LYS206      0.1596
    113  C        187.2550  439.3900  270.2200 C.2   206  LYS206      0.2287
    114  O        188.3190  439.8090  270.6690 O.2   206  LYS206     -0.2864
    115  CB       186.9230  438.2450  272.4270 C.3   206  LYS206      0.0298
    116  CG       185.9690  437.7130  273.4570 C.3   206  LYS206      0.0038
    117  CD       186.6990  437.3870  274.7400 C.3   206  LYS206      0.0206
    118  CE       185.7560  436.8130  275.7730 C.3   206  LYS206      0.1093
    119  NZ       186.4740  436.5000  277.0330 N.3   206  LYS206     -0.1314
    120  N        186.6230  442.3130  268.9640 N.3   208  ASP208     -0.1225
    121  CA       186.4920  443.7290  269.2550 C.3   208  ASP208      0.1805
    122  C        187.2540  444.1570  270.4970 C.2   208  ASP208      0.2597
    123  O        187.4000  445.3610  270.7240 O.2   208  ASP208     -0.2718
    124  CB       185.0150  444.0830  269.3980 C.3   208  ASP208      0.1424
    125  CG       184.3150  443.2300  270.4270 C.2   208  ASP208      0.3668
    126  OD1      184.9640  442.3180  270.9760 O.co2 208  ASP208     -0.2456
    127  OD2      183.1160  443.4560  270.6770 O.co2 208  ASP208     -0.2456
    128  N        187.7560  443.2160  271.2930 N.am  209  LEU209     -0.1979
    129  CA       188.4880  443.5400  272.5070 C.3   209  LEU209      0.1596
    130  C        189.9860  443.3540  272.3530 C.2   209  LEU209      0.2287
    131  O        190.6900  443.2260  273.3570 O.2   209  LEU209     -0.2864
    132  CB       187.9920  442.6950  273.6760 C.3   209  LEU209      0.0297
    133  CG       186.5510  442.9120  274.1080 C.3   209  LEU209      0.0022
    134  CD1      186.2490  441.9510  275.2240 C.3   209  LEU209      0.0001
    135  CD2      186.3180  444.3410  274.5410 C.3   209  LEU209      0.0001
    136  N        183.8790  435.7520  264.8910 N.3   234  VAL234     -0.1231
    137  CA       182.5510  436.1680  265.3090 C.3   234  VAL234      0.1692
    138  C        182.6880  437.2530  266.3630 C.2   234  VAL234      0.2592
    139  O        183.7230  437.3920  267.0160 O.2   234  VAL234     -0.2718
    140  CB       181.7180  434.9970  265.8570 C.3   234  VAL234      0.0266
    141  CG1      181.4860  433.9770  264.7760 C.3   234  VAL234      0.0020
    142  CG2      182.4220  434.3670  267.0230 C.3   234  VAL234      0.0020
    143  N        181.6260  438.0340  266.5210 N.am  235  VAL235     -0.1966
    144  CA       181.5450  439.0420  267.5680 C.3   235  VAL235      0.1727
    145  C        180.2360  438.8320  268.3070 C.2   235  VAL235      0.2616
    146  O        179.1590  438.9470  267.7120 O.2   235  VAL235     -0.2715
    147  CB       181.6240  440.4660  267.0090 C.3   235  VAL235      0.0290
    148  CG1      181.4600  441.4690  268.1260 C.3   235  VAL235      0.0023
    149  CG2      182.9320  440.6650  266.3010 C.3   235  VAL235      0.0023
    150  N        180.3220  438.5380  269.5910 N.am  236  ASN236     -0.1958
    151  CA       179.1560  438.1860  270.3740 C.3   236  ASN236      0.1819
    152  C        178.7190  439.3800  271.2130 C.2   236  ASN236      0.2621
    153  O        179.2210  440.4940  271.0580 O.2   236  ASN236     -0.2715
    154  CB       179.4780  436.9680  271.2290 C.3   236  ASN236      0.1195
    155  CG       179.7640  435.7520  270.3960 C.2   236  ASN236      0.2630
    156  OD1      179.0990  435.5080  269.3930 O.2   236  ASN236     -0.2716
    157  ND2      180.7630  434.9800  270.7990 N.am  236  ASN236     -0.0877
    158  N        177.7610  439.1570  272.1050 N.am  237  ARG237     -0.1963
    159  CA       177.3430  440.2060  273.0180 C.3   237  ARG237      0.1729
    160  C        178.3250  440.2890  274.1740 C.2   237  ARG237      0.2617
    161  O        178.7700  439.2670  274.7000 O.2   237  ARG237     -0.2715
    162  CB       175.9390  439.9390  273.5550 C.3   237  ARG237      0.0348
    163  CG       174.8100  440.2230  272.5840 C.3   237  ARG237      0.0492
    164  CD       174.5100  439.0130  271.7290 C.3   237  ARG237      0.2205
    165  NE       174.1960  437.8560  272.5570 N.pl3 237  ARG237     -0.0865
    166  CZ       172.9980  437.6050  273.0690 C.cat 237  ARG237      0.5346
    167  NH1      171.9900  438.4330  272.8410 N.pl3 237  ARG237      0.1354
    168  NH2      172.8110  436.5260  273.8130 N.pl3 237  ARG237      0.1354
    169  N        178.6500  441.5110  274.5830 N.am  238  SER238     -0.1936
    170  CA       179.5820  441.6950  275.6830 C.3   238  SER238      0.2055
    171  C        178.8650  441.4670  277.0070 C.2   238  SER238      0.2642
    172  O        177.6630  441.2000  277.0540 O.2   238  SER238     -0.2714
    173  CB       180.2010  443.0870  275.6320 C.3   238  SER238      0.2130
    174  OG       179.2200  444.0770  275.8600 O.3   238  SER238     -0.2179
    175  N        179.6070  441.5800  278.1070 N.am  239  GLN239     -0.1976
    176  CA       178.9910  441.3750  279.4120 C.3   239  GLN239      0.1601
    177  C        178.0000  442.4840  279.7320 C.2   239  GLN239      0.2287
    178  O        176.9300  442.2290  280.2990 O.2   239  GLN239     -0.2864
    179  CB       180.0600  441.2850  280.4920 C.3   239  GLN239      0.0394
    180  CG       179.4830  441.0440  281.8580 C.3   239  GLN239      0.0908
    181  CD       178.7910  439.7120  281.9430 C.2   239  GLN239      0.2608
    182  OE1      179.2890  438.7090  281.4370 O.2   239  GLN239     -0.2717
    183  NE2      177.6200  439.6950  282.5650 N.am  239  GLN239     -0.0878
    184  N        174.7280  441.8040  277.9520 N.3   242  ILE242     -0.1245
    185  CA       173.8760  440.8460  278.6440 C.3   242  ILE242      0.1561
    186  C        173.2370  441.4940  279.8610 C.2   242  ILE242      0.2260
    187  O        172.0480  441.2940  280.1340 O.2   242  ILE242     -0.2867
    188  CB       174.6760  439.5920  279.0230 C.3   242  ILE242      0.0252
    189  CG1      175.1300  438.8700  277.7640 C.3   242  ILE242      0.0019
    190  CG2      173.8370  438.6770  279.8780 C.3   242  ILE242      0.0019
    191  CD1      176.1380  437.7970  278.0280 C.3   242  ILE242      0.0001
@<TRIPOS>BOND
     1   141   140    1
     2   136   137    1
     3   137   140    1
     4   137   138    1
     5   140   142    1
     6   149   147    1
     7   138   143   am
     8   138   139    2
     9   143   144    1
    10   147   144    1
    11   147   148    1
    12   144   145    1
    13   146   145    2
    14   145   150   am
    15   104   105    1
    16   120   121    1
    17   121   124    1
    18   121   122    1
    19   105   106    1
    20   105   108    1
    21   156   155    2
    22   124   125    1
    23   150   151    1
    24   110   108    1
    25   106   107    2
    26   106   111   am
    27   113   114    2
    28   113   112    1
    29   151   152    1
    30   151   154    1
    31   155   157   am
    32   155   154    1
    33   111   112    1
    34   108   109    1
    35   125   127   ar
    36   125   126   ar
    37   122   123    2
    38   122   128   am
    39    43    42    2
    40   153   152    2
    41   112   115    1
    42   152   158   am
    43   128   129    1
    44    42    41    1
    45   164   165    1
    46   164   163    1
    47   158   159    1
    48   130   129    1
    49   130   131    2
    50   115   116    1
    51   129   132    1
    52   165   166    2
    53   163   162    1
    54    28    27    2
    55    24    23    2
    56    41    44    1
    57    41    40    1
    58   167   166    1
    59    44    45    1
    60   159   162    1
    61   159   160    1
    62   166   168    1
    63    37    36    2
    64   116   117    1
    65    19    18    2
    66   132   133    1
    67    27    26    1
    68    27    34   am
    69    40    36   am
    70    23    25   am
    71    23    22    1
    72    26    25    1
    73    26    29    1
    74    36    35    1
    75   133   135    1
    76   133   134    1
    77   160   169   am
    78   160   161    2
    79    22    21    1
    80   169   170    1
    81    29    30    1
    82   117   118    1
    83    18    21   am
    84    18    17    1
    85    35    34    1
    86    35    38    1
    87    30    31    1
    88    20    17    1
    89   173   170    1
    90   173   174    1
    91    17    16    1
    92   170   171    1
    93   118   119    1
    94    31    32    1
    95    62    61    1
    96    38    39    1
    97    61    60    2
    98    61    63    1
    99    60    59    1
   100    59    58    1
   101   171   172    2
   102   171   175   am
   103    16    12   am
   104    32    33    1
   105    13    12    2
   106   189   191    1
   107   189   188    1
   108    12    11    1
   109   184   185    1
   110   175   176    1
   111    58    57    1
   112   185   188    1
   113   185   186    1
   114    57    54    1
   115   188   190    1
   116    11    10    1
   117    11    14    1
   118   176   177    1
   119   176   179    1
   120    49    48    2
   121   101   100    1
   122   101   102    1
   123     4     3    2
   124     1     2    1
   125    10     3   am
   126   177   178    2
   127    46    52    1
   128    46    47    1
   129    15    14    1
   130   186   187    2
   131     3     2    1
   132    54    53    1
   133    54    55    1
   134    48    53   am
   135    48    47    1
   136    98    97    1
   137    52    51    1
   138     2     5    1
   139   179   180    1
   140   102   103    2
   141    99    97    1
   142    47    50    1
   143    97    94    1
   144    55    64   am
   145    55    56    2
   146    64    65    1
   147   182   181    2
   148    51    50    1
   149   180   181    1
   150     5     6    1
   151    67    66    2
   152   181   183   am
   153    65    66    1
   154    66    68   am
   155    94    93    1
   156    94    95    1
   157     6     7    1
   158    93    88   am
   159    91    90    1
   160    96    95    2
   161    68    69    1
   162    90    92    1
   163    90    87    1
   164    69    72    1
   165    69    70    1
   166    77    76    2
   167    88    87    1
   168    88    89    2
   169     7     8    2
   170     7     9   am
   171    72    73    1
   172    87    86    1
   173    86    80   am
   174    70    74   am
   175    70    71    2
   176    74    75    1
   177    76    75    1
   178    76    78   am
   179    80    79    1
   180    80    81    2
   181    79    78    1
   182    79    82    1
   183    83    82    1
   184    83    85    1
   185    82    84    1
