@<TRIPOS>MOLECULE
tmp/6dlxA01.pdb
 95 90 0 0 0
SMALL
GASTEIGER

@<TRIPOS>ATOM
      1  N         56.9800   -0.1080   41.1790 N.3   113  THR113     -0.1203
      2  CA        57.8340    0.6770   40.2950 C.3   113  THR113      0.1994
      3  C         58.4030   -0.1880   39.1770 C.2   113  THR113      0.2618
      4  O         58.5110    0.2560   38.0260 O.2   113  THR113     -0.2717
      5  CB        58.9590    1.3270   41.1010 C.3   113  THR113      0.1784
      6  OG1       59.6410    0.3260   41.8660 O.3   113  THR113     -0.2211
      7  CG2       58.3950    2.3820   42.0430 C.3   113  THR113      0.0376
      8  N         58.7610   -1.4350   39.4960 N.am  114  THR114     -0.1952
      9  CA        59.1870   -2.3710   38.4620 C.3   114  THR114      0.1897
     10  C         58.1080   -2.5390   37.4000 C.2   114  THR114      0.2313
     11  O         58.3960   -2.5220   36.1960 O.2   114  THR114     -0.2863
     12  CB        59.5350   -3.7200   39.0960 C.3   114  THR114      0.1794
     13  OG1       60.6280   -3.5560   40.0080 O.3   114  THR114     -0.2208
     14  CG2       59.9150   -4.7480   38.0350 C.3   114  THR114      0.0378
     15  N         58.0280    0.5090   35.1340 N.3   117  GLY117     -0.1210
     16  CA        59.0600    0.5000   34.1100 C.3   117  GLY117      0.1956
     17  C         58.7770   -0.5010   33.0060 C.2   117  GLY117      0.2611
     18  O         58.9210   -0.1890   31.8200 O.2   117  GLY117     -0.2717
     19  N         58.3530   -1.7110   33.3770 N.am  118  LYS118     -0.1979
     20  CA        58.0750   -2.7300   32.3690 C.3   118  LYS118      0.1596
     21  C         56.9390   -2.2980   31.4490 C.2   118  LYS118      0.2287
     22  O         57.0500   -2.3930   30.2220 O.2   118  LYS118     -0.2864
     23  CB        57.7470   -4.0630   33.0410 C.3   118  LYS118      0.0298
     24  CG        58.9480   -4.7490   33.6710 C.3   118  LYS118      0.0038
     25  CD        58.6550   -6.2110   33.9660 C.3   118  LYS118      0.0206
     26  CE        59.8090   -6.8780   34.6940 C.3   118  LYS118      0.1093
     27  NZ        59.5330   -8.3150   34.9700 N.3   118  LYS118     -0.1314
     28  N         58.1520    0.3770   29.0490 N.3   121  ARG121     -0.1245
     29  CA        58.9710   -0.1640   27.9700 C.3   121  ARG121      0.1563
     30  C         58.1160   -0.9050   26.9480 C.2   121  ARG121      0.2260
     31  O         58.3460   -0.7940   25.7380 O.2   121  ARG121     -0.2867
     32  CB        60.0410   -1.0860   28.5540 C.3   121  ARG121      0.0307
     33  CG        61.0720   -0.3560   29.4120 C.3   121  ARG121      0.0489
     34  CD        61.9200    0.6230   28.6140 C.3   121  ARG121      0.2205
     35  NE        62.5890   -0.0100   27.4810 N.pl3 121  ARG121     -0.0865
     36  CZ        63.7360   -0.6800   27.5680 C.cat 121  ARG121      0.5346
     37  NH1       64.3500   -0.8090   28.7380 N.pl3 121  ARG121      0.1354
     38  NH2       64.2720   -1.2220   26.4840 N.pl3 121  ARG121      0.1354
     39  N         65.2660    7.3430   42.0830 N.3   145  GLN145     -0.1231
     40  CA        65.4010    6.0830   41.3590 C.3   145  GLN145      0.1698
     41  C         64.5760    6.0970   40.0770 C.2   145  GLN145      0.2592
     42  O         65.0600    5.7220   38.9990 O.2   145  GLN145     -0.2718
     43  CB        64.9770    4.9380   42.2790 C.3   145  GLN145      0.0381
     44  CG        65.1980    3.5420   41.7400 C.3   145  GLN145      0.0905
     45  CD        64.7180    2.4840   42.7150 C.2   145  GLN145      0.2608
     46  OE1       64.0900    2.8000   43.7260 O.2   145  GLN145     -0.2717
     47  NE2       65.0270    1.2260   42.4290 N.am  145  GLN145     -0.0878
     48  N         63.3190    6.5330   40.1770 N.am  146  LEU146     -0.1980
     49  CA        62.4640    6.6160   38.9980 C.3   146  LEU146      0.1596
     50  C         63.0520    7.5680   37.9640 C.2   146  LEU146      0.2287
     51  O         62.9860    7.3060   36.7560 O.2   146  LEU146     -0.2864
     52  CB        61.0610    7.0610   39.4140 C.3   146  LEU146      0.0297
     53  CG        59.9240    6.8780   38.4080 C.3   146  LEU146      0.0022
     54  CD1       59.7290    5.4100   38.0580 C.3   146  LEU146      0.0001
     55  CD2       58.6410    7.4650   38.9690 C.3   146  LEU146      0.0001
     56  N         66.3330    8.4400   37.5220 N.3   148  VAL148     -0.1231
     57  CA        67.5100    7.8590   36.8820 C.3   148  VAL148      0.1692
     58  C         67.0970    6.7720   35.8980 C.2   148  VAL148      0.2592
     59  O         67.7330    6.5930   34.8540 O.2   148  VAL148     -0.2718
     60  CB        68.5090    7.3300   37.9300 C.3   148  VAL148      0.0266
     61  CG1       69.0140    8.4700   38.8010 C.3   148  VAL148      0.0020
     62  CG2       67.8900    6.2420   38.7780 C.3   148  VAL148      0.0020
     63  N         66.0410    6.0170   36.2150 N.am  149  TRP149     -0.1976
     64  CA        65.5540    5.0260   35.2590 C.3   149  TRP149      0.1640
     65  C         65.0180    5.6970   33.9990 C.2   149  TRP149      0.2290
     66  O         65.3560    5.3000   32.8760 O.2   149  TRP149     -0.2864
     67  CB        64.4720    4.1510   35.8900 C.3   149  TRP149      0.0576
     68  CG        64.0160    3.0540   34.9690 C.ar  149  TRP149      0.0006
     69  CD1       64.5160    1.7860   34.8940 C.ar  149  TRP149      0.0946
     70  CD2       62.9780    3.1330   33.9820 C.ar  149  TRP149      0.0152
     71  NE1       63.8530    1.0710   33.9280 N.ar  149  TRP149     -0.2442
     72  CE2       62.9040    1.8740   33.3530 C.ar  149  TRP149      0.0810
     73  CE3       62.1040    4.1450   33.5720 C.ar  149  TRP149      0.0012
     74  CZ2       61.9910    1.6000   32.3380 C.ar  149  TRP149      0.0191
     75  CZ3       61.1980    3.8690   32.5630 C.ar  149  TRP149      0.0001
     76  CH2       61.1490    2.6080   31.9580 C.ar  149  TRP149      0.0015
     77  N         67.8010    6.9070   31.9890 N.3   152  ARG152     -0.1245
     78  CA        68.5470    5.8100   31.3860 C.3   152  ARG152      0.1563
     79  C         67.8180    5.2700   30.1660 C.2   152  ARG152      0.2260
     80  O         68.4570    4.8030   29.2170 O.2   152  ARG152     -0.2867
     81  CB        68.7490    4.6640   32.3780 C.3   152  ARG152      0.0307
     82  CG        69.6210    3.5540   31.7950 C.3   152  ARG152      0.0489
     83  CD        70.1100    2.5330   32.8160 C.3   152  ARG152      0.2205
     84  NE        69.0060    1.8460   33.4870 N.pl3 152  ARG152     -0.0865
     85  CZ        68.6070    2.0460   34.7410 C.cat 152  ARG152      0.5346
     86  NH1       67.5880    1.3400   35.2120 N.pl3 152  ARG152      0.1354
     87  NH2       69.2070    2.9290   35.5260 N.pl3 152  ARG152      0.1354
     88  N         61.4440   -8.0570   30.6170 N.3   283  ILE283     -0.1245
     89  CA        60.3850   -7.1060   30.2920 C.3   283  ILE283      0.1561
     90  C         59.1640   -7.8400   29.7520 C.2   283  ILE283      0.2260
     91  O         58.0220   -7.5180   30.1030 O.2   283  ILE283     -0.2867
     92  CB        60.9020   -6.0570   29.2890 C.3   283  ILE283      0.0252
     93  CG1       62.1810   -5.3870   29.8080 C.3   283  ILE283      0.0019
     94  CG2       59.8330   -5.0060   29.0120 C.3   283  ILE283      0.0019
     95  CD1       62.1090   -4.8860   31.2420 C.3   283  ILE283      0.0001
@<TRIPOS>BOND
     1    31    30    2
     2    38    36    1
     3    30    29    1
     4    35    36    2
     5    35    34    1
     6    36    37    1
     7    29    32    1
     8    29    28    1
     9    32    33    1
    10    34    33    1
    11    94    92    1
    12    80    79    2
    13    92    93    1
    14    92    89    1
    15    90    91    2
    16    90    89    1
    17    93    95    1
    18    79    78    1
    19    22    21    2
    20    89    88    1
    21    78    77    1
    22    78    81    1
    23    21    20    1
    24    82    81    1
    25    82    83    1
    26    18    17    2
    27    76    74   ar
    28    76    75   ar
    29    74    72   ar
    30    20    23    1
    31    20    19    1
    32    75    73   ar
    33    83    84    1
    34    66    65    2
    35    17    19   am
    36    17    16    1
    37    23    24    1
    38    72    71   ar
    39    72    70   ar
    40    84    85    2
    41    73    70   ar
    42    24    25    1
    43    71    69   ar
    44    25    26    1
    45    70    68   ar
    46    65    64    1
    47    16    15    1
    48    26    27    1
    49    85    86    1
    50    85    87    1
    51    59    58    2
    52    69    68   ar
    53    68    67    1
    54    64    67    1
    55    64    63    1
    56    58    63   am
    57    58    57    1
    58    11    10    2
    59    51    50    2
    60    57    56    1
    61    57    60    1
    62    10     9    1
    63    60    62    1
    64    60    61    1
    65    50    49    1
    66     4     3    2
    67    14    12    1
    68    54    53    1
    69    53    55    1
    70    53    52    1
    71     9    12    1
    72     9     8    1
    73    49    52    1
    74    49    48    1
    75    42    41    2
    76    12    13    1
    77     3     8   am
    78     3     2    1
    79    41    48   am
    80    41    40    1
    81     2     5    1
    82     2     1    1
    83     5     6    1
    84     5     7    1
    85    40    39    1
    86    40    43    1
    87    44    43    1
    88    44    45    1
    89    47    45   am
    90    45    46    2
