@<TRIPOS>MOLECULE
tmp/6dm8G03.pdb
 175 167 0 0 0
SMALL
GASTEIGER

@<TRIPOS>ATOM
      1  N       -190.5160  -18.1600    6.0010 N.3    64  HIS64      -0.1241
      2  CA      -189.5060  -17.1670    6.3480 C.3    64  HIS64       0.1621
      3  C       -188.1540  -17.7740    6.7010 C.2    64  HIS64       0.2264
      4  O       -187.1570  -17.0450    6.7270 O.2    64  HIS64      -0.2867
      5  CB      -189.9930  -16.3350    7.5300 C.3    64  HIS64       0.0745
      6  CG      -190.0830  -17.1120    8.8040 C.ar   64  HIS64       0.0817
      7  ND1     -191.1930  -17.8550    9.1440 N.ar   64  HIS64      -0.2268
      8  CD2     -189.1940  -17.2830    9.8110 C.ar   64  HIS64       0.1154
      9  CE1     -190.9880  -18.4400   10.3100 C.ar   64  HIS64       0.1986
     10  NE2     -189.7830  -18.1100   10.7370 N.ar   64  HIS64      -0.2212
     11  N       -195.9160   -9.0600   15.1850 N.3    92  PHE92      -0.1227
     12  CA      -195.0950  -10.2530   15.3360 C.3    92  PHE92       0.1736
     13  C       -194.8230  -10.9330   14.0000 C.2    92  PHE92       0.2596
     14  O       -193.8570  -11.6970   13.8940 O.2    92  PHE92      -0.2718
     15  CB      -195.7310  -11.2360   16.3230 C.3    92  PHE92       0.0547
     16  CG      -197.1950  -11.4850   16.1070 C.ar   92  PHE92      -0.0202
     17  CD1     -198.1450  -10.7170   16.7600 C.ar   92  PHE92      -0.0042
     18  CD2     -197.6220  -12.5160   15.2890 C.ar   92  PHE92      -0.0042
     19  CE1     -199.4920  -10.9580   16.5810 C.ar   92  PHE92      -0.0003
     20  CE2     -198.9680  -12.7630   15.1050 C.ar   92  PHE92      -0.0003
     21  CZ      -199.9050  -11.9830   15.7520 C.ar   92  PHE92      -0.0000
     22  N       -195.6610  -10.6940   12.9880 N.am   93  THR93      -0.1953
     23  CA      -195.3520  -11.1990   11.6550 C.3    93  THR93       0.1897
     24  C       -194.1340  -10.5000   11.0650 C.2    93  THR93       0.2313
     25  O       -193.4010  -11.1000   10.2710 O.2    93  THR93      -0.2863
     26  CB      -196.5540  -11.0250   10.7270 C.3    93  THR93       0.1794
     27  OG1     -196.8480   -9.6290   10.5830 O.3    93  THR93      -0.2208
     28  CG2     -197.7700  -11.7370   11.2930 C.3    93  THR93       0.0378
     29  N       -191.5760   -9.6540   12.8580 N.3    95  ASP95      -0.1225
     30  CA      -190.4360  -10.2580   13.5350 C.3    95  ASP95       0.1805
     31  C       -189.9190  -11.4880   12.8020 C.2    95  ASP95       0.2597
     32  O       -188.7470  -11.8430   12.9620 O.2    95  ASP95      -0.2718
     33  CB      -190.8160  -10.6280   14.9720 C.3    95  ASP95       0.1424
     34  CG      -191.2450   -9.4240   15.7940 C.2    95  ASP95       0.3668
     35  OD1     -190.7720   -8.3040   15.5050 O.co2  95  ASP95      -0.2456
     36  OD2     -192.0610   -9.5970   16.7260 O.co2  95  ASP95      -0.2456
     37  N       -190.7670  -12.1430   12.0050 N.am   96  ALA96      -0.1979
     38  CA      -190.3510  -13.3160   11.2480 C.3    96  ALA96       0.1597
     39  C       -189.5420  -12.9750   10.0030 C.2    96  ALA96       0.2287
     40  O       -188.9020  -13.8690    9.4400 O.2    96  ALA96      -0.2864
     41  CB      -191.5740  -14.1420   10.8470 C.3    96  ALA96       0.0319
     42  N       -187.3160  -10.1420    9.6820 N.3    98  ARG98      -0.1245
     43  CA      -186.2530   -9.1820    9.9430 C.3    98  ARG98       0.1563
     44  C       -184.9210   -9.9140   10.0090 C.2    98  ARG98       0.2260
     45  O       -184.8300  -11.0120   10.5650 O.2    98  ARG98      -0.2867
     46  CB      -186.5040   -8.4290   11.2510 C.3    98  ARG98       0.0307
     47  CG      -185.9830   -7.0010   11.2680 C.3    98  ARG98       0.0489
     48  CD      -186.1330   -6.4000   12.6550 C.3    98  ARG98       0.2205
     49  NE      -187.4440   -6.6970   13.2290 N.pl3  98  ARG98      -0.0865
     50  CZ      -188.5230   -5.9340   13.0770 C.cat  98  ARG98       0.5346
     51  NH1     -188.4550   -4.8110   12.3740 N.pl3  98  ARG98       0.1354
     52  NH2     -189.6720   -6.2930   13.6360 N.pl3  98  ARG98       0.1354
     53  N       -199.6600  -17.1740    8.5150 N.3   110  VAL110     -0.1245
     54  CA      -199.0430  -18.0780    9.4790 C.3   110  VAL110      0.1561
     55  C       -199.5320  -19.4940    9.2090 C.2   110  VAL110      0.2260
     56  O       -200.7420  -19.7400    9.1390 O.2   110  VAL110     -0.2867
     57  CB      -199.3630  -17.6540   10.9230 C.3   110  VAL110      0.0252
     58  CG1     -198.7110  -18.6100   11.9110 C.3   110  VAL110      0.0019
     59  CG2     -198.9110  -16.2230   11.1750 C.3   110  VAL110      0.0019
     60  N       -184.4180  -24.9150   18.9880 N.3   169  PHE169     -0.1227
     61  CA      -184.0500  -23.5220   18.8200 C.3   169  PHE169      0.1736
     62  C       -183.9890  -22.8380   20.1740 C.2   169  PHE169      0.2595
     63  O       -184.9280  -22.9280   20.9720 O.2   169  PHE169     -0.2718
     64  CB      -185.0440  -22.8120   17.8970 C.3   169  PHE169      0.0547
     65  CG      -185.3300  -23.5680   16.6320 C.ar  169  PHE169     -0.0202
     66  CD1     -184.2900  -24.0140   15.8350 C.ar  169  PHE169     -0.0042
     67  CD2     -186.6320  -23.8360   16.2410 C.ar  169  PHE169     -0.0042
     68  CE1     -184.5380  -24.7100   14.6720 C.ar  169  PHE169     -0.0003
     69  CE2     -186.8890  -24.5350   15.0770 C.ar  169  PHE169     -0.0003
     70  CZ      -185.8390  -24.9720   14.2910 C.ar  169  PHE169     -0.0000
     71  N       -182.8760  -22.1570   20.4160 N.am  170  LYS170     -0.1966
     72  CA      -182.6580  -21.3500   21.6010 C.3   170  LYS170      0.1728
     73  C       -182.7180  -19.8780   21.2230 C.2   170  LYS170      0.2616
     74  O       -182.4360  -19.5060   20.0810 O.2   170  LYS170     -0.2715
     75  CB      -181.2840  -21.6590   22.2050 C.3   170  LYS170      0.0311
     76  CG      -180.1860  -21.6760   21.1340 C.3   170  LYS170      0.0038
     77  CD      -178.7850  -21.4260   21.6800 C.3   170  LYS170      0.0206
     78  CE      -178.4450  -22.3370   22.8450 C.3   170  LYS170      0.1093
     79  NZ      -178.3480  -23.7620   22.4290 N.3   170  LYS170     -0.1314
     80  N       -183.0590  -19.0400   22.1910 N.am  171  TYR171     -0.1974
     81  CA      -182.8560  -17.5990   22.0820 C.3   171  TYR171      0.1639
     82  C       -181.9350  -17.2490   23.2430 C.2   171  TYR171      0.2290
     83  O       -182.3820  -17.1560   24.3910 O.2   171  TYR171     -0.2864
     84  CB      -184.1580  -16.8080   22.1190 C.3   171  TYR171      0.0560
     85  CG      -183.9450  -15.3430   21.8110 C.ar  171  TYR171     -0.0198
     86  CD1     -183.7430  -14.9110   20.5040 C.ar  171  TYR171     -0.0009
     87  CD2     -183.9150  -14.3970   22.8250 C.ar  171  TYR171     -0.0009
     88  CE1     -183.5370  -13.5740   20.2160 C.ar  171  TYR171      0.0417
     89  CE2     -183.7060  -13.0610   22.5470 C.ar  171  TYR171      0.0417
     90  CZ      -183.5200  -12.6540   21.2420 C.ar  171  TYR171      0.1957
     91  OH      -183.3140  -11.3210   20.9680 O.3   171  TYR171     -0.2866
     92  N       -179.4040  -12.9330   22.2910 N.3   174  GLY174     -0.1210
     93  CA      -180.1330  -12.0960   21.3680 C.3   174  GLY174      0.1956
     94  C       -180.2600  -12.6740   19.9800 C.2   174  GLY174      0.2612
     95  O       -180.6760  -11.9570   19.0630 O.2   174  GLY174     -0.2717
     96  N       -179.9040  -13.9440   19.7900 N.am  175  LYS175     -0.1965
     97  CA      -180.0730  -14.5980   18.5040 C.3   175  LYS175      0.1728
     98  C       -180.8250  -15.9100   18.6770 C.2   175  LYS175      0.2616
     99  O       -180.7290  -16.5750   19.7120 O.2   175  LYS175     -0.2715
    100  CB      -178.7140  -14.8630   17.8370 C.3   175  LYS175      0.0311
    101  CG      -177.9780  -13.6320   17.4390 C.3   175  LYS175      0.0038
    102  CD      -178.5520  -12.9590   16.2310 C.3   175  LYS175      0.0206
    103  CE      -177.7420  -11.6970   15.8420 C.3   175  LYS175      0.1093
    104  NZ      -178.0190  -10.5190   16.6770 N.3   175  LYS175     -0.1314
    105  N       -181.5650  -16.2750   17.6320 N.am  176  TYR176     -0.1974
    106  CA      -182.3550  -17.5020   17.5780 C.3   176  TYR176      0.1639
    107  C       -181.5260  -18.5620   16.8580 C.2   176  TYR176      0.2290
    108  O       -181.3630  -18.4990   15.6370 O.2   176  TYR176     -0.2864
    109  CB      -183.6820  -17.2360   16.8690 C.3   176  TYR176      0.0560
    110  CG      -184.8310  -18.1400   17.2630 C.ar  176  TYR176     -0.0198
    111  CD1     -184.8530  -18.7880   18.4900 C.ar  176  TYR176     -0.0009
    112  CD2     -185.9090  -18.3210   16.4100 C.ar  176  TYR176     -0.0009
    113  CE1     -185.9090  -19.6080   18.8470 C.ar  176  TYR176      0.0417
    114  CE2     -186.9670  -19.1340   16.7580 C.ar  176  TYR176      0.0417
    115  CZ      -186.9630  -19.7760   17.9760 C.ar  176  TYR176      0.1957
    116  OH      -188.0170  -20.5900   18.3280 O.3   176  TYR176     -0.2866
    117  N       -193.9240  -23.4340   13.3840 N.3   257  VAL257     -0.1245
    118  CA      -194.6970  -22.2490   13.0340 C.3   257  VAL257      0.1561
    119  C       -193.9200  -21.5000   11.9550 C.2   257  VAL257      0.2260
    120  O       -192.8170  -21.0080   12.2000 O.2   257  VAL257     -0.2867
    121  CB      -194.9630  -21.3650   14.2560 C.3   257  VAL257      0.0252
    122  CG1     -195.6300  -20.0680   13.8350 C.3   257  VAL257      0.0019
    123  CG2     -195.8300  -22.1060   15.2670 C.3   257  VAL257      0.0019
    124  N       -194.0580  -18.6310    8.5690 N.3   259  VAL259     -0.1245
    125  CA      -194.7400  -17.4650    8.0120 C.3   259  VAL259      0.1561
    126  C       -194.4360  -17.3990    6.5230 C.2   259  VAL259      0.2260
    127  O       -193.2810  -17.1910    6.1260 O.2   259  VAL259     -0.2867
    128  CB      -194.3260  -16.1630    8.7090 C.3   259  VAL259      0.0252
    129  CG1     -194.8530  -14.9660    7.9340 C.3   259  VAL259      0.0019
    130  CG2     -194.8420  -16.1400   10.1320 C.3   259  VAL259      0.0019
    131  N       -204.3390  -22.6070   14.9840 N.3   319  MET319     -0.1245
    132  CA      -203.6850  -21.7450   15.9600 C.3   319  MET319      0.1570
    133  C       -203.4610  -22.4490   17.2910 C.2   319  MET319      0.2261
    134  O       -202.5070  -22.1160   18.0020 O.2   319  MET319     -0.2867
    135  CB      -204.4870  -20.4600   16.1700 C.3   319  MET319      0.0387
    136  CG      -204.6940  -19.6600   14.8990 C.3   319  MET319      0.0595
    137  SD      -203.2120  -19.6110   13.8720 S.3   319  MET319     -0.1393
    138  CE      -202.1830  -18.4560   14.7710 C.3   319  MET319      0.0692
    139  N       -200.3270  -24.1810   16.7230 N.3   322  ALA322     -0.1245
    140  CA      -199.2860  -23.1630   16.7180 C.3   322  ALA322      0.1562
    141  C       -198.9910  -22.6780   18.1300 C.2   322  ALA322      0.2260
    142  O       -197.8560  -22.2850   18.4270 O.2   322  ALA322     -0.2867
    143  CB      -199.6900  -22.0000   15.8130 C.3   322  ALA322      0.0290
    144  N       -191.4370  -21.5660   16.8900 N.3   327  ILE327     -0.1231
    145  CA      -191.2290  -20.6710   15.7610 C.3   327  ILE327      0.1692
    146  C       -189.8870  -20.9990   15.1230 C.2   327  ILE327      0.2591
    147  O       -188.8810  -21.1690   15.8210 O.2   327  ILE327     -0.2718
    148  CB      -191.2950  -19.1980   16.2030 C.3   327  ILE327      0.0266
    149  CG1     -192.2610  -18.3950   15.3170 C.3   327  ILE327      0.0019
    150  CG2     -189.9040  -18.5760   16.2010 C.3   327  ILE327      0.0020
    151  CD1     -191.6390  -17.9580   14.0270 C.3   327  ILE327      0.0001
    152  N       -189.8750  -21.0640   13.8110 N.am  328  MET328     -0.1979
    153  CA      -188.6320  -21.3600   13.1150 C.3   328  MET328      0.1605
    154  C       -187.7340  -20.1250   13.1170 C.2   328  MET328      0.2287
    155  O       -188.2290  -18.9970   13.0350 O.2   328  MET328     -0.2864
    156  CB      -188.9020  -21.7910   11.6720 C.3   328  MET328      0.0413
    157  CG      -189.7500  -23.0400   11.5200 C.3   328  MET328      0.0598
    158  SD      -190.6320  -23.0670    9.9440 S.3   328  MET328     -0.1393
    159  CE      -189.3840  -23.6960    8.8350 C.3   328  MET328      0.0692
    160  N       -184.6290  -17.8280   11.2370 N.3   330  ASN330     -0.1225
    161  CA      -184.2870  -17.4960    9.8590 C.3   330  ASN330      0.1785
    162  C       -182.7920  -17.2430    9.7000 C.2   330  ASN330      0.2597
    163  O       -182.3850  -16.5330    8.7760 O.2   330  ASN330     -0.2718
    164  CB      -185.1000  -16.2970    9.3590 C.3   330  ASN330      0.1169
    165  CG      -184.6570  -14.9820    9.9690 C.2   330  ASN330      0.2627
    166  OD1     -184.0760  -14.9460   11.0540 O.2   330  ASN330     -0.2716
    167  ND2     -184.9370  -13.8880    9.2720 N.am  330  ASN330     -0.0877
    168  N       -181.9700  -17.7980   10.5870 N.am  331  ILE331     -0.1980
    169  CA      -180.5190  -17.6550   10.5040 C.3   331  ILE331      0.1595
    170  C       -180.0520  -18.2450    9.1790 C.2   331  ILE331      0.2287
    171  O       -180.6900  -19.1690    8.6550 O.2   331  ILE331     -0.2864
    172  CB      -179.8190  -18.3300   11.6940 C.3   331  ILE331      0.0276
    173  CG1     -180.2450  -19.7960   11.8040 C.3   331  ILE331      0.0022
    174  CG2     -180.1160  -17.5770   12.9730 C.3   331  ILE331      0.0022
    175  CD1     -179.4290  -20.5950   12.7950 C.3   331  ILE331      0.0001
@<TRIPOS>BOND
     1     1     2    1
     2   127   126    2
     3     2     3    1
     4     2     5    1
     5   126   125    1
     6     3     4    2
     7     5     6    1
     8   129   128    1
     9   125   124    1
    10   125   128    1
    11    53    54    1
    12   171   170    2
    13   128   130    1
    14   163   162    2
    15     6     7   ar
    16     6     8   ar
    17   159   158    1
    18    56    55    2
    19     7     9   ar
    20   170   169    1
    21    55    54    1
    22   167   165   am
    23   164   161    1
    24   164   165    1
    25    40    39    2
    26    54    57    1
    27    42    43    1
    28   162   161    1
    29   162   168   am
    30     8    10   ar
    31   161   160    1
    32    43    44    1
    33    43    46    1
    34   158   157    1
    35   165   166    2
    36    39    38    1
    37    44    45    2
    38    25    24    2
    39     9    10   ar
    40   169   168    1
    41   169   172    1
    42    27    26    1
    43    26    28    1
    44    26    23    1
    45    41    38    1
    46    57    59    1
    47    57    58    1
    48    24    23    1
    49    38    37    1
    50    46    47    1
    51    47    48    1
    52   157   156    1
    53    23    22    1
    54   156   153    1
    55   172   173    1
    56   172   174    1
    57   173   175    1
    58   119   120    2
    59   119   118    1
    60    37    31   am
    61    51    50    1
    62    48    49    1
    63    31    32    2
    64    31    30    1
    65    29    30    1
    66    22    13   am
    67   118   117    1
    68   118   121    1
    69   155   154    2
    70    50    49    2
    71    50    52    1
    72   153   154    1
    73   153   152    1
    74    30    33    1
    75   152   146   am
    76   122   121    1
    77   137   138    1
    78   137   136    1
    79    14    13    2
    80    13    12    1
    81   151   149    1
    82   121   123    1
    83    70    68   ar
    84    70    69   ar
    85    68    66   ar
    86   136   135    1
    87    33    34    1
    88   131   132    1
    89    69    67   ar
    90    20    18   ar
    91    20    21   ar
    92   146   145    1
    93   146   147    2
    94    11    12    1
    95    18    16   ar
    96   149   148    1
    97    12    15    1
    98    35    34   ar
    99   108   107    2
   100    21    19   ar
   101   145   148    1
   102   145   144    1
   103    34    36   ar
   104   143   140    1
   105    66    65   ar
   106   103   102    1
   107   103   104    1
   108   132   135    1
   109   132   133    1
   110    16    15    1
   111    16    17   ar
   112   150   148    1
   113   102   101    1
   114    67    65   ar
   115   112   114   ar
   116   112   110   ar
   117    19    17   ar
   118    65    64    1
   119   140   139    1
   120   140   141    1
   121   114   115   ar
   122   107   106    1
   123   109   110    1
   124   109   106    1
   125   110   111   ar
   126   133   134    2
   127   101   100    1
   128   106   105    1
   129   105    98   am
   130   100    97    1
   131    64    61    1
   132   115   116    1
   133   115   113   ar
   134   141   142    2
   135   111   113   ar
   136    97    98    1
   137    97    96    1
   138    98    99    2
   139    61    60    1
   140    61    62    1
   141    95    94    2
   142    96    94   am
   143    94    93    1
   144    74    73    2
   145    62    71   am
   146    62    63    2
   147    88    86   ar
   148    88    90   ar
   149    71    72    1
   150    86    85   ar
   151    91    90    1
   152    76    77    1
   153    76    75    1
   154    73    72    1
   155    73    80   am
   156    90    89   ar
   157    93    92    1
   158    72    75    1
   159    77    78    1
   160    85    84    1
   161    85    87   ar
   162    81    84    1
   163    81    80    1
   164    81    82    1
   165    79    78    1
   166    89    87   ar
   167    82    83    2
