@<TRIPOS>MOLECULE
tmp/6dm8A02.pdb
 120 114 0 0 0
SMALL
GASTEIGER

@<TRIPOS>ATOM
      1  N       -159.5400  -12.4180   61.3540 N.3    91  TYR91      -0.1228
      2  CA      -160.0620  -11.3610   62.2040 C.3    91  TYR91       0.1721
      3  C       -161.5870  -11.2960   62.1050 C.2    91  TYR91       0.2437
      4  O       -162.1630  -11.6080   61.0600 O.2    91  TYR91      -0.2733
      5  CB      -159.4560  -10.0160   61.8120 C.3    91  TYR91       0.0547
      6  CG      -158.0070   -9.8600   62.2170 C.ar   91  TYR91      -0.0200
      7  CD1     -157.6630   -9.5280   63.5210 C.ar   91  TYR91      -0.0009
      8  CD2     -156.9850  -10.0460   61.2960 C.ar   91  TYR91      -0.0009
      9  CE1     -156.3400   -9.3870   63.8970 C.ar   91  TYR91       0.0417
     10  CE2     -155.6600   -9.9040   61.6620 C.ar   91  TYR91       0.0417
     11  CZ      -155.3430   -9.5770   62.9640 C.ar   91  TYR91       0.1957
     12  OH      -154.0240   -9.4370   63.3330 O.3    91  TYR91      -0.2866
     13  N       -162.2630  -10.8940   63.1850 N.am   92  PRO92      -0.2718
     14  CA      -163.7360  -10.8860   63.1590 C.3    92  PRO92       0.1535
     15  C       -164.3340   -9.8790   62.1880 C.2    92  PRO92       0.2599
     16  O       -165.4090  -10.1450   61.6370 O.2    92  PRO92      -0.2715
     17  CB      -164.1100  -10.5550   64.6120 C.3    92  PRO92       0.0310
     18  CG      -162.9000  -10.9300   65.4120 C.3    92  PRO92       0.0237
     19  CD      -161.7370  -10.6020   64.5280 C.3    92  PRO92       0.0939
     20  N       -163.6850   -8.7320   61.9650 N.am   93  PHE93      -0.1960
     21  CA      -164.2480   -7.7420   61.0490 C.3    93  PHE93       0.1771
     22  C       -164.2780   -8.2550   59.6160 C.2    93  PHE93       0.2620
     23  O       -165.1690   -7.8840   58.8440 O.2    93  PHE93      -0.2715
     24  CB      -163.4580   -6.4360   61.1220 C.3    93  PHE93       0.0574
     25  CG      -164.1310   -5.2830   60.4310 C.ar   93  PHE93      -0.0200
     26  CD1     -165.3720   -4.8360   60.8580 C.ar   93  PHE93      -0.0042
     27  CD2     -163.5270   -4.6460   59.3590 C.ar   93  PHE93      -0.0042
     28  CE1     -165.9980   -3.7760   60.2300 C.ar   93  PHE93      -0.0003
     29  CE2     -164.1480   -3.5850   58.7250 C.ar   93  PHE93      -0.0003
     30  CZ      -165.3850   -3.1500   59.1620 C.ar   93  PHE93      -0.0000
     31  N       -163.3110   -9.0950   59.2420 N.am   94  THR94      -0.1951
     32  CA      -163.3390   -9.7110   57.9210 C.3    94  THR94       0.1897
     33  C       -164.5190  -10.6660   57.7910 C.2    94  THR94       0.2313
     34  O       -165.1820  -10.7050   56.7470 O.2    94  THR94      -0.2863
     35  CB      -162.0200  -10.4360   57.6560 C.3    94  THR94       0.1794
     36  OG1     -161.9810  -11.6560   58.4050 O.3    94  THR94      -0.2208
     37  CG2     -160.8420   -9.5610   58.0600 C.3    94  THR94       0.0378
     38  N       -167.2450  -10.2550   59.4750 N.3    96  ASP96      -0.1239
     39  CA      -168.4240   -9.3960   59.4990 C.3    96  ASP96       0.1674
     40  C       -168.7520   -8.8450   58.1190 C.2    96  ASP96       0.2266
     41  O       -169.9190   -8.5530   57.8290 O.2    96  ASP96      -0.2867
     42  CB      -168.2180   -8.2520   60.4930 C.3    96  ASP96       0.1410
     43  CG      -168.4670   -8.6750   61.9280 C.2    96  ASP96       0.3668
     44  OD1     -169.1300   -9.7130   62.1390 O.co2  96  ASP96      -0.2456
     45  OD2     -167.9960   -7.9710   62.8450 O.co2  96  ASP96      -0.2456
     46  N       -158.1290   -6.8350   53.6340 N.3   111  VAL111     -0.1245
     47  CA      -158.8150   -5.5560   53.7840 C.3   111  VAL111      0.1561
     48  C       -158.0890   -4.5090   52.9500 C.2   111  VAL111      0.2260
     49  O       -156.8730   -4.3270   53.0910 O.2   111  VAL111     -0.2867
     50  CB      -158.8780   -5.1340   55.2630 C.3   111  VAL111      0.0252
     51  CG1     -159.6890   -3.8580   55.4220 C.3   111  VAL111      0.0019
     52  CG2     -159.4570   -6.2580   56.1140 C.3   111  VAL111      0.0019
     53  N       -164.0310    1.2990   52.4440 N.3   260  VAL260     -0.1245
     54  CA      -163.2180    0.1690   52.8780 C.3   260  VAL260      0.1561
     55  C       -163.7640   -1.0940   52.2270 C.2   260  VAL260      0.2260
     56  O       -164.9490   -1.4170   52.3730 O.2   260  VAL260     -0.2867
     57  CB      -163.2110    0.0390   54.4090 C.3   260  VAL260      0.0252
     58  CG1     -162.3880   -1.1690   54.8350 C.3   260  VAL260      0.0019
     59  CG2     -162.6710    1.3070   55.0530 C.3   260  VAL260      0.0019
     60  N       -154.0100   -5.4220   54.5100 N.3   302  ALA302     -0.1231
     61  CA      -154.1510   -6.0810   55.8080 C.3   302  ALA302      0.1694
     62  C       -154.8020   -7.4380   55.5800 C.2   302  ALA302      0.2591
     63  O       -156.0150   -7.5310   55.3820 O.2   302  ALA302     -0.2718
     64  CB      -154.9710   -5.2230   56.7640 C.3   302  ALA302      0.0304
     65  N       -153.9920   -8.5000   55.6120 N.am  303  VAL303     -0.1980
     66  CA      -154.5130   -9.8330   55.3460 C.3   303  VAL303      0.1595
     67  C       -155.5550  -10.2070   56.3950 C.2   303  VAL303      0.2287
     68  O       -155.5390   -9.7150   57.5310 O.2   303  VAL303     -0.2864
     69  CB      -153.3770  -10.8690   55.3130 C.3   303  VAL303      0.0276
     70  CG1     -152.6880  -10.8620   53.9590 C.3   303  VAL303      0.0022
     71  CG2     -152.3860  -10.5810   56.4130 C.3   303  VAL303      0.0022
     72  N       -154.8560  -13.8450   60.8050 N.3   306  LYS306     -0.1245
     73  CA      -154.2310  -13.0790   61.8780 C.3   306  LYS306      0.1561
     74  C       -152.7380  -13.3550   61.9900 C.2   306  LYS306      0.2260
     75  O       -151.9720  -12.4530   62.3500 O.2   306  LYS306     -0.2867
     76  CB      -154.9320  -13.3720   63.2060 C.3   306  LYS306      0.0271
     77  CG      -156.3980  -12.9570   63.2240 C.3   306  LYS306      0.0035
     78  CD      -156.9910  -12.9800   64.6240 C.3   306  LYS306      0.0206
     79  CE      -157.3260  -14.3940   65.0450 C.3   306  LYS306      0.1093
     80  NZ      -158.5190  -14.4640   65.9370 N.3   306  LYS306     -0.1314
     81  N       -151.0060  -11.2460   59.3320 N.3   309  GLU309     -0.1231
     82  CA      -151.1030   -9.8190   59.6240 C.3   309  GLU309      0.1699
     83  C       -150.1560   -9.4210   60.7450 C.2   309  GLU309      0.2592
     84  O       -149.6340   -8.3000   60.7470 O.2   309  GLU309     -0.2718
     85  CB      -152.5420   -9.4470   59.9820 C.3   309  GLU309      0.0402
     86  CG      -152.9560   -8.0340   59.5750 C.3   309  GLU309      0.1161
     87  CD      -152.2800   -6.9520   60.3990 C.2   309  GLU309      0.3649
     88  OE1     -152.3300   -7.0360   61.6450 O.co2 309  GLU309     -0.2457
     89  OE2     -151.7040   -6.0150   59.8030 O.co2 309  GLU309     -0.2457
     90  N       -149.9180  -10.3230   61.7010 N.am  310  GLU310     -0.1979
     91  CA      -148.9580  -10.0360   62.7600 C.3   310  GLU310      0.1602
     92  C       -147.5530   -9.8640   62.2010 C.2   310  GLU310      0.2287
     93  O       -146.7410   -9.1300   62.7750 O.2   310  GLU310     -0.2864
     94  CB      -148.9830  -11.1490   63.8080 C.3   310  GLU310      0.0415
     95  CG      -148.1230  -10.9000   65.0310 C.3   310  GLU310      0.1163
     96  CD      -148.7060   -9.9280   65.9870 C.2   310  GLU310      0.3649
     97  OE1     -149.9380   -9.9810   66.2340 O.co2 310  GLU310     -0.2457
     98  OE2     -147.8470   -9.1910   66.5900 O.co2 310  GLU310     -0.2457
     99  N       -154.3240    1.4770   57.1210 N.3   322  MET322     -0.1245
    100  CA      -155.2440    1.4100   58.2510 C.3   322  MET322      0.1570
    101  C       -155.6330    2.8070   58.7280 C.2   322  MET322      0.2261
    102  O       -156.7660    3.0200   59.1750 O.2   322  MET322     -0.2867
    103  CB      -154.6370    0.6020   59.3970 C.3   322  MET322      0.0387
    104  CG      -153.9040   -0.6560   58.9580 C.3   322  MET322      0.0595
    105  SD      -154.9970   -2.0370   58.5660 S.3   322  MET322     -0.1393
    106  CE      -156.0590   -2.0560   60.0090 C.3   322  MET322      0.0692
    107  N       -158.1870    3.5410   56.4550 N.3   325  ALA325     -0.1231
    108  CA      -159.3070    2.6430   56.7170 C.3   325  ALA325      0.1694
    109  C       -160.1070    3.0970   57.9310 C.2   325  ALA325      0.2591
    110  O       -161.3420    3.1310   57.8900 O.2   325  ALA325     -0.2718
    111  CB      -158.8030    1.2130   56.9070 C.3   325  ALA325      0.0304
    112  N       -159.4210    3.4510   59.0210 N.am  326  GLN326     -0.1979
    113  CA      -160.1190    3.8900   60.2260 C.3   326  GLN326      0.1601
    114  C       -160.8850    5.1820   59.9780 C.2   326  GLN326      0.2287
    115  O       -162.0000    5.3590   60.4840 O.2   326  GLN326     -0.2864
    116  CB      -159.1260    4.0670   61.3730 C.3   326  GLN326      0.0394
    117  CG      -158.6080    2.7600   61.9350 C.3   326  GLN326      0.0908
    118  CD      -157.1250    2.8020   62.2420 C.2   326  GLN326      0.2608
    119  OE1     -156.5470    3.8730   62.4270 O.2   326  GLN326     -0.2717
    120  NE2     -156.4980    1.6320   62.2880 N.am  326  GLN326     -0.0878
@<TRIPOS>BOND
     1    55    56    2
     2    55    54    1
     3    53    54    1
     4    54    57    1
     5    48    49    2
     6    48    47    1
     7    46    47    1
     8    47    50    1
     9    70    69    1
    10    57    58    1
    11    57    59    1
    12    60    61    1
    13    50    51    1
    14    50    52    1
    15    69    66    1
    16    69    71    1
    17    66    65    1
    18    66    67    1
    19    63    62    2
    20    62    65   am
    21    62    61    1
    22    61    64    1
    23    67    68    2
    24   107   108    1
    25   108   111    1
    26   108   109    1
    27    34    33    2
    28    99   100    1
    29    35    32    1
    30    35    37    1
    31    35    36    1
    32    33    32    1
    33    41    40    2
    34   110   109    2
    35    32    31    1
    36   109   112   am
    37    40    39    1
    38   100   101    1
    39   100   103    1
    40   105   104    1
    41   105   106    1
    42    29    30   ar
    43    29    27   ar
    44   101   102    2
    45    23    22    2
    46   104   103    1
    47   112   113    1
    48    30    28   ar
    49    31    22   am
    50    81    82    1
    51    27    25   ar
    52    38    39    1
    53    39    42    1
    54    86    85    1
    55    86    87    1
    56    22    21    1
    57    82    85    1
    58    82    83    1
    59    89    87   ar
    60   114   113    1
    61   114   115    2
    62   113   116    1
    63    28    26   ar
    64    87    88   ar
    65    25    26   ar
    66    25    24    1
    67    42    43    1
    68    83    84    2
    69    83    90   am
    70    72    73    1
    71    21    24    1
    72    21    20    1
    73     4     3    2
    74     8    10   ar
    75     8     6   ar
    76     1     2    1
    77   116   117    1
    78    16    15    2
    79    10    11   ar
    80    90    91    1
    81     5     2    1
    82     5     6    1
    83    73    74    1
    84    73    76    1
    85    43    44   ar
    86    43    45   ar
    87   117   118    1
    88    20    15   am
    89    74    75    2
    90     3     2    1
    91     3    13   am
    92    15    14    1
    93    92    91    1
    94    92    93    2
    95     6     7   ar
    96   118   120   am
    97   118   119    2
    98    91    94    1
    99    11    12    1
   100    11     9   ar
   101    14    13    1
   102    14    17    1
   103    13    19    1
   104    76    77    1
   105    77    78    1
   106     7     9   ar
   107    94    95    1
   108    19    18    1
   109    17    18    1
   110    78    79    1
   111    95    96    1
   112    79    80    1
   113    96    97   ar
   114    96    98   ar
