@<TRIPOS>MOLECULE
tmp/6dm8A03.pdb
 87 84 0 0 0
SMALL
GASTEIGER

@<TRIPOS>ATOM
      1  N       -206.2010  -11.3690   26.0440 N.3   424  MET424     -0.1230
      2  CA      -204.8870  -11.8100   26.4940 C.3   424  MET424      0.1702
      3  C       -204.9970  -12.6560   27.7550 C.2   424  MET424      0.2592
      4  O       -204.2640  -13.6370   27.9220 O.2   424  MET424     -0.2718
      5  CB      -203.9930  -10.5980   26.7390 C.3   424  MET424      0.0401
      6  CG      -202.5930  -10.9410   27.2450 C.3   424  MET424      0.0596
      7  SD      -201.7240  -12.0850   26.1520 S.3   424  MET424     -0.1393
      8  CE      -201.4480  -13.4320   27.2300 C.3   424  MET424      0.0692
      9  N       -205.9120  -12.2940   28.6540 N.am  425  LEU425     -0.1980
     10  CA      -206.0750  -13.0590   29.8870 C.3   425  LEU425      0.1596
     11  C       -206.6620  -14.4360   29.6190 C.2   425  LEU425      0.2287
     12  O       -206.3120  -15.3960   30.3120 O.2   425  LEU425     -0.2864
     13  CB      -206.9650  -12.2920   30.8690 C.3   425  LEU425      0.0297
     14  CG      -207.1330  -12.8130   32.3010 C.3   425  LEU425      0.0022
     15  CD1     -207.4100  -11.6540   33.2450 C.3   425  LEU425      0.0001
     16  CD2     -208.2440  -13.8530   32.4150 C.3   425  LEU425      0.0001
     17  N       -206.3830  -17.0020   28.1970 N.3   427  LYS427     -0.1231
     18  CA      -205.5180  -18.1280   28.2820 C.3   427  LYS427      0.1693
     19  C       -205.1350  -18.2310   29.7160 C.2   427  LYS427      0.2592
     20  O       -205.9160  -18.7080   30.4930 O.2   427  LYS427     -0.2718
     21  CB      -204.3200  -17.9410   27.3890 C.3   427  LYS427      0.0285
     22  CG      -204.5460  -17.0240   26.2090 C.3   427  LYS427      0.0035
     23  CD      -205.7190  -17.4670   25.3890 C.3   427  LYS427      0.0206
     24  CE      -205.6460  -16.8930   23.9990 C.3   427  LYS427      0.1093
     25  NZ      -204.2660  -16.8950   23.5090 N.3   427  LYS427     -0.1314
     26  N       -203.9530  -17.8240   30.0760 N.am  428  LEU428     -0.1966
     27  CA      -203.6020  -17.8940   31.4570 C.3   428  LEU428      0.1728
     28  C       -203.4350  -19.2750   31.9740 C.2   428  LEU428      0.2616
     29  O       -204.2530  -20.1000   31.7670 O.2   428  LEU428     -0.2715
     30  CB      -204.6550  -17.1940   32.2790 C.3   428  LEU428      0.0311
     31  CG      -204.4270  -17.0710   33.7780 C.3   428  LEU428      0.0022
     32  CD1     -203.3200  -16.0690   34.0830 C.3   428  LEU428      0.0001
     33  CD2     -205.7160  -16.6620   34.4850 C.3   428  LEU428      0.0001
     34  N       -202.3460  -19.4970   32.6760 N.am  429  ASP429     -0.1971
     35  CA      -202.0970  -20.7550   33.3070 C.3   429  ASP429      0.1709
     36  C       -202.3290  -20.4450   34.7520 C.2   429  ASP429      0.2293
     37  O       -203.3550  -20.7410   35.3140 O.2   429  ASP429     -0.2864
     38  CB      -200.6550  -21.2640   33.1310 C.3   429  ASP429      0.1436
     39  CG      -199.7570  -20.3180   32.4050 C.2   429  ASP429      0.3671
     40  OD1     -199.5690  -20.4770   31.1950 O.co2 429  ASP429     -0.2456
     41  OD2     -199.1710  -19.4650   33.0490 O.co2 429  ASP429     -0.2456
     42  N       -192.2080  -16.9190   35.4450 N.3   438  SER438     -0.1202
     43  CA      -191.7740  -17.1330   34.0710 C.3   438  SER438      0.2020
     44  C       -192.2250  -16.0240   33.1310 C.2   438  SER438      0.2618
     45  O       -191.7650  -15.9860   31.9860 O.2   438  SER438     -0.2717
     46  CB      -192.2810  -18.4800   33.5540 C.3   438  SER438      0.2103
     47  OG      -193.6520  -18.4070   33.2060 O.3   438  SER438     -0.2182
     48  N       -193.1070  -15.1280   33.5770 N.am  439  PHE439     -0.1975
     49  CA      -193.4710  -13.9750   32.7620 C.3   439  PHE439      0.1639
     50  C       -192.3310  -12.9740   32.6170 C.2   439  PHE439      0.2290
     51  O       -192.4410  -12.0520   31.8010 O.2   439  PHE439     -0.2864
     52  CB      -194.6980  -13.2790   33.3480 C.3   439  PHE439      0.0560
     53  CG      -195.9420  -14.1110   33.3110 C.ar  439  PHE439     -0.0200
     54  CD1     -196.2660  -14.8420   32.1800 C.ar  439  PHE439     -0.0042
     55  CD2     -196.7910  -14.1600   34.4020 C.ar  439  PHE439     -0.0042
     56  CE1     -197.4110  -15.6100   32.1410 C.ar  439  PHE439     -0.0003
     57  CE2     -197.9370  -14.9260   34.3710 C.ar  439  PHE439     -0.0003
     58  CZ      -198.2480  -15.6520   33.2380 C.ar  439  PHE439     -0.0000
     59  N       -189.4160  -13.6900   31.3460 N.3   441  ARG441     -0.1231
     60  CA      -188.8480  -13.9660   30.0300 C.3   441  ARG441      0.1694
     61  C       -189.6000  -13.2210   28.9320 C.2   441  ARG441      0.2591
     62  O       -188.9910  -12.5390   28.0980 O.2   441  ARG441     -0.2718
     63  CB      -188.8610  -15.4730   29.7660 C.3   441  ARG441      0.0321
     64  CG      -187.6270  -16.0050   29.0590 C.3   441  ARG441      0.0489
     65  CD      -187.6100  -17.5250   29.0860 C.3   441  ARG441      0.2205
     66  NE      -188.1980  -18.0400   30.3210 N.pl3 441  ARG441     -0.0865
     67  CZ      -189.1800  -18.9350   30.3670 C.cat 441  ARG441      0.5346
     68  NH1     -189.6910  -19.4170   29.2480 N.pl3 441  ARG441      0.1354
     69  NH2     -189.6560  -19.3450   31.5350 N.pl3 441  ARG441      0.1354
     70  N       -190.9290  -13.3340   28.9180 N.am  442  VAL442     -0.1980
     71  CA      -191.7010  -12.7220   27.8390 C.3   442  VAL442      0.1595
     72  C       -191.6490  -11.2020   27.9270 C.2   442  VAL442      0.2287
     73  O       -191.5200  -10.5140   26.9070 O.2   442  VAL442     -0.2864
     74  CB      -193.1530  -13.2430   27.8430 C.3   442  VAL442      0.0276
     75  CG1     -193.8310  -12.9880   29.1810 C.3   442  VAL442      0.0022
     76  CG2     -193.9500  -12.6160   26.7070 C.3   442  VAL442      0.0022
     77  N       -202.1630   -3.7410   33.1050 N.3   463  PHE463     -0.1241
     78  CA      -202.4670   -5.1590   32.9410 C.3   463  PHE463      0.1605
     79  C       -202.0240   -5.9600   34.1570 C.2   463  PHE463      0.2264
     80  O       -202.6710   -6.9530   34.5110 O.2   463  PHE463     -0.2867
     81  CB      -201.8170   -5.7170   31.6760 C.3   463  PHE463      0.0534
     82  CG      -202.2010   -7.1420   31.3860 C.ar  463  PHE463     -0.0203
     83  CD1     -203.5330   -7.5270   31.3960 C.ar  463  PHE463     -0.0042
     84  CD2     -201.2350   -8.1000   31.1210 C.ar  463  PHE463     -0.0042
     85  CE1     -203.8960   -8.8360   31.1390 C.ar  463  PHE463     -0.0003
     86  CE2     -201.5910   -9.4130   30.8620 C.ar  463  PHE463     -0.0003
     87  CZ      -202.9240   -9.7810   30.8710 C.ar  463  PHE463     -0.0000
@<TRIPOS>BOND
     1    25    24    1
     2    24    23    1
     3    23    22    1
     4     1     2    1
     5     7     8    1
     6     7     6    1
     7    22    21    1
     8     2     5    1
     9     2     3    1
    10    76    74    1
    11     5     6    1
    12    73    72    2
    13    21    18    1
    14     3     4    2
    15     3     9   am
    16    71    74    1
    17    71    72    1
    18    71    70    1
    19    74    75    1
    20    62    61    2
    21    17    18    1
    22    18    19    1
    23     9    10    1
    24    70    61   am
    25    61    60    1
    26    64    65    1
    27    64    63    1
    28    65    66    1
    29    68    67    1
    30    11    10    1
    31    11    12    2
    32    19    26   am
    33    19    20    2
    34    63    60    1
    35    10    13    1
    36    60    59    1
    37    26    27    1
    38    66    67    2
    39    67    69    1
    40    86    87   ar
    41    86    84   ar
    42    13    14    1
    43    87    85   ar
    44    84    82   ar
    45    85    83   ar
    46    40    39   ar
    47    82    83   ar
    48    82    81    1
    49    27    28    1
    50    27    30    1
    51    81    78    1
    52    29    28    2
    53    51    50    2
    54    28    34   am
    55    45    44    2
    56    56    54   ar
    57    56    58   ar
    58    54    53   ar
    59    30    31    1
    60    14    16    1
    61    14    15    1
    62    39    41   ar
    63    39    38    1
    64    50    49    1
    65    34    35    1
    66    49    52    1
    67    49    48    1
    68    78    77    1
    69    78    79    1
    70    44    48   am
    71    44    43    1
    72    38    35    1
    73    47    46    1
    74    58    57   ar
    75    35    36    1
    76    53    52    1
    77    53    55   ar
    78    46    43    1
    79    31    32    1
    80    31    33    1
    81    43    42    1
    82    79    80    2
    83    57    55   ar
    84    36    37    2
