@<TRIPOS>MOLECULE
tmp/6dmgA00.pdb
 225 215 0 0 0
SMALL
GASTEIGER

@<TRIPOS>ATOM
      1  N         23.4900   11.9190   18.6760 N.3    21  ILE21      -0.1231
      2  CA        23.1670   11.3630   17.3660 C.3    21  ILE21       0.1692
      3  C         21.9330   12.0750   16.8310 C.2    21  ILE21       0.2593
      4  O         22.0090   12.8230   15.8500 O.2    21  ILE21      -0.2718
      5  CB        22.9330    9.8420   17.4260 C.3    21  ILE21       0.0266
      6  CG1       24.1950    9.1250   17.9090 C.3    21  ILE21       0.0019
      7  CG2       22.5170    9.3130   16.0480 C.3    21  ILE21       0.0020
      8  CD1       24.0010    7.6380   18.1540 C.3    21  ILE21       0.0001
      9  N         20.7870   11.8400   17.4690 N.am   22  GLY22      -0.1942
     10  CA        19.5420   12.4300   17.0230 C.3    22  GLY22       0.2014
     11  C         18.5920   12.6400   18.1810 C.2    22  GLY22       0.2639
     12  O         18.8450   12.2170   19.3120 O.2    22  GLY22      -0.2714
     13  N         17.4810   13.3040   17.8760 N.am   23  GLU23      -0.1963
     14  CA        16.4700   13.6330   18.8710 C.3    23  GLU23       0.1733
     15  C         15.0980   13.4080   18.2590 C.2    23  GLU23       0.2617
     16  O         14.8390   13.8450   17.1340 O.2    23  GLU23      -0.2715
     17  CB        16.6150   15.0850   19.3460 C.3    23  GLU23       0.0429
     18  CG        15.7290   15.4490   20.5250 C.3    23  GLU23       0.1163
     19  CD        15.9360   16.8780   20.9880 C.2    23  GLU23       0.3649
     20  OE1       16.5920   17.6520   20.2590 O.co2  23  GLU23      -0.2457
     21  OE2       15.4440   17.2280   22.0820 O.co2  23  GLU23      -0.2457
     22  N         14.2240   12.7240   18.9980 N.am   24  GLY24      -0.1940
     23  CA        12.8990   12.4010   18.5340 C.3    24  GLY24       0.2014
     24  C         11.8230   13.2470   19.1880 C.2    24  GLY24       0.2639
     25  O         12.0900   14.2200   19.8970 O.2    24  GLY24      -0.2714
     26  N         10.5740   12.8490   18.9360 N.am   25  ALA25      -0.1963
     27  CA         9.4330   13.5810   19.4680 C.3    25  ALA25       0.1728
     28  C          9.3350   13.4810   20.9840 C.2    25  ALA25       0.2616
     29  O          8.6500   14.3040   21.6030 O.2    25  ALA25      -0.2715
     30  CB         8.1390   13.0700   18.8340 C.3    25  ALA25       0.0334
     31  N          9.9970   12.4990   21.5960 N.am   26  TYR26      -0.1960
     32  CA         9.9240   12.3270   23.0430 C.3    26  TYR26       0.1771
     33  C         11.1340   11.5660   23.5740 C.2    26  TYR26       0.2620
     34  O         11.0400   10.8810   24.5980 O.2    26  TYR26      -0.2715
     35  CB         8.6310   11.6010   23.4270 C.3    26  TYR26       0.0574
     36  CG         8.5300   10.1800   22.9110 C.ar   26  TYR26      -0.0198
     37  CD1        8.6490    9.0990   23.7740 C.ar   26  TYR26      -0.0009
     38  CD2        8.3110    9.9210   21.5640 C.ar   26  TYR26      -0.0009
     39  CE1        8.5520    7.8000   23.3110 C.ar   26  TYR26       0.0417
     40  CE2        8.2160    8.6230   21.0920 C.ar   26  TYR26       0.0417
     41  CZ         8.3380    7.5660   21.9710 C.ar   26  TYR26       0.1957
     42  OH         8.2450    6.2710   21.5140 O.3    26  TYR26      -0.2866
     43  N         12.2710   11.6840   22.8980 N.am   27  GLY27      -0.1940
     44  CA        13.4700   11.0010   23.3460 C.3    27  GLY27       0.2014
     45  C         14.6870   11.5040   22.6040 C.2    27  GLY27       0.2639
     46  O         14.5930   12.3180   21.6820 O.2    27  GLY27      -0.2714
     47  N         15.8440   11.0000   23.0290 N.am   28  MET28      -0.1963
     48  CA        17.1220   11.3440   22.4270 C.3    28  MET28       0.1736
     49  C         17.9850   10.0930   22.3600 C.2    28  MET28       0.2616
     50  O         17.9270    9.2350   23.2440 O.2    28  MET28      -0.2715
     51  CB        17.8430   12.4400   23.2260 C.3    28  MET28       0.0427
     52  CG        19.2110   12.8210   22.6770 C.3    28  MET28       0.0599
     53  SD        20.0720   14.0280   23.7050 S.3    28  MET28      -0.1393
     54  CE        19.0040   15.4540   23.5250 C.3    28  MET28       0.0692
     55  N         18.7870    9.9970   21.3030 N.am   29  VAL29      -0.1977
     56  CA        19.6770    8.8630   21.0880 C.3    29  VAL29       0.1596
     57  C         21.1090    9.3760   21.0660 C.2    29  VAL29       0.2287
     58  O         21.4070   10.3720   20.3960 O.2    29  VAL29      -0.2864
     59  CB        19.3440    8.1140   19.7830 C.3    29  VAL29       0.0276
     60  CG1       20.2470    6.8970   19.6210 C.3    29  VAL29       0.0022
     61  CG2       17.8820    7.6960   19.7680 C.3    29  VAL29       0.0022
     62  N         24.2550    2.2130   21.0090 N.3    42  ALA42      -0.1245
     63  CA        23.3130    3.3150   20.8820 C.3    42  ALA42       0.1562
     64  C         22.3120    3.2360   22.0240 C.2    42  ALA42       0.2260
     65  O         21.6970    2.1870   22.2460 O.2    42  ALA42      -0.2867
     66  CB        22.5890    3.2710   19.5350 C.3    42  ALA42       0.0290
     67  N         18.9170    5.0700   23.6650 N.3    44  LYS44      -0.1245
     68  CA        17.7890    5.9590   23.4090 C.3    44  LYS44       0.1561
     69  C         17.1430    6.3130   24.7400 C.2    44  LYS44       0.2260
     70  O         16.5090    5.4620   25.3740 O.2    44  LYS44      -0.2867
     71  CB        16.7710    5.3110   22.4700 C.3    44  LYS44       0.0271
     72  CG        15.5270    6.1660   22.2490 C.3    44  LYS44       0.0035
     73  CD        14.6570    5.6430   21.1190 C.3    44  LYS44       0.0206
     74  CE        14.0840    4.2730   21.4350 C.3    44  LYS44       0.1093
     75  NZ        13.0520    3.8620   20.4440 N.3    44  LYS44      -0.1314
     76  N         14.2190    7.9280   26.7610 N.3    46  ILE46      -0.1245
     77  CA        12.8010    8.1620   26.5280 C.3    46  ILE46       0.1561
     78  C         12.2180    8.8570   27.7500 C.2    46  ILE46       0.2260
     79  O         12.5760    8.5370   28.8890 O.2    46  ILE46      -0.2867
     80  CB        12.0440    6.8520   26.2330 C.3    46  ILE46       0.0252
     81  CG1       12.7480    6.0600   25.1310 C.3    46  ILE46       0.0019
     82  CG2       10.6220    7.1610   25.7970 C.3    46  ILE46       0.0019
     83  CD1       12.1310    4.7040   24.8690 C.3    46  ILE46       0.0001
     84  N          3.5820    3.6570   22.6050 N.3    57  ARG57      -0.1245
     85  CA         4.6410    3.3860   21.6390 C.3    57  ARG57       0.1563
     86  C          5.8660    2.7890   22.3220 C.2    57  ARG57       0.2260
     87  O          6.4700    1.8380   21.8120 O.2    57  ARG57      -0.2867
     88  CB         5.0100    4.6720   20.8970 C.3    57  ARG57       0.0307
     89  CG         3.8240    5.3530   20.2210 C.3    57  ARG57       0.0489
     90  CD         4.2020    6.7060   19.6360 C.3    57  ARG57       0.2205
     91  NE         4.9010    6.5850   18.3610 N.pl3  57  ARG57      -0.0865
     92  CZ         5.2870    7.6190   17.6200 C.cat  57  ARG57       0.5346
     93  NH1        5.0450    8.8600   18.0260 N.pl3  57  ARG57       0.1354
     94  NH2        5.9150    7.4140   16.4700 N.pl3  57  ARG57       0.1354
     95  N          7.1380   -1.2160   21.6150 N.3    61  GLU61      -0.1245
     96  CA         8.4710   -1.4880   21.0880 C.3    61  GLU61       0.1567
     97  C          9.2610   -2.3920   22.0250 C.2    61  GLU61       0.2260
     98  O          9.9120   -3.3430   21.5780 O.2    61  GLU61      -0.2867
     99  CB         9.2220   -0.1770   20.8550 C.3    61  GLU61       0.0388
    100  CG        10.6320   -0.3730   20.3130 C.3    61  GLU61       0.1160
    101  CD        11.2870    0.9250   19.8950 C.2    61  GLU61       0.3649
    102  OE1       11.5060    1.7930   20.7650 O.co2  61  GLU61      -0.2457
    103  OE2       11.5790    1.0760   18.6890 O.co2  61  GLU61      -0.2457
    104  N         16.6700   -4.2050   14.6800 N.3    74  ILE74      -0.1245
    105  CA        17.3890   -3.6470   15.8160 C.3    74  ILE74       0.1561
    106  C         17.0010   -4.4010   17.0790 C.2    74  ILE74       0.2260
    107  O         15.8530   -4.8340   17.2470 O.2    74  ILE74      -0.2867
    108  CB        17.1080   -2.1410   15.9510 C.3    74  ILE74       0.0252
    109  CG1       18.1840   -1.4820   16.8190 C.3    74  ILE74       0.0019
    110  CG2       15.7170   -1.8960   16.5390 C.3    74  ILE74       0.0019
    111  CD1       18.1670    0.0330   16.7730 C.3    74  ILE74       0.0001
    112  N         20.6350   -0.2210   22.2580 N.3    95  GLN95      -0.1231
    113  CA        20.3540   -0.8670   20.9840 C.3    95  GLN95       0.1698
    114  C         21.6010   -0.8300   20.1110 C.2    95  GLN95       0.2592
    115  O         22.6340   -0.2650   20.4810 O.2    95  GLN95      -0.2718
    116  CB        19.1770   -0.1910   20.2730 C.3    95  GLN95       0.0381
    117  CG        17.9740    0.0240   21.1620 C.3    95  GLN95       0.0905
    118  CD        16.8120    0.6650   20.4330 C.2    95  GLN95       0.2608
    119  OE1       16.7090    1.8900   20.3650 O.2    95  GLN95      -0.2717
    120  NE2       15.9280   -0.1620   19.8860 N.am   95  GLN95      -0.0878
    121  N         21.4870   -1.4380   18.9330 N.am   96  ASP96      -0.1960
    122  CA        22.6020   -1.4980   18.0000 C.3    96  ASP96       0.1840
    123  C         23.0140   -0.1000   17.5590 C.2    96  ASP96       0.2622
    124  O         22.1720    0.7660   17.3060 O.2    96  ASP96      -0.2715
    125  CB        22.2160   -2.3350   16.7800 C.3    96  ASP96       0.1450
    126  CG        21.9260   -3.7750   17.1310 C.2    96  ASP96       0.3671
    127  OD1       22.8900   -4.5420   17.3390 O.co2  96  ASP96      -0.2456
    128  OD2       20.7340   -4.1350   17.2180 O.co2  96  ASP96      -0.2456
    129  N         24.3250    0.1130   17.4660 N.am   97  LEU97      -0.1963
    130  CA        24.8760    1.3490   16.9350 C.3    97  LEU97       0.1728
    131  C         25.1560    1.1730   15.4480 C.2    97  LEU97       0.2616
    132  O         25.7650    0.1800   15.0370 O.2    97  LEU97      -0.2715
    133  CB        26.1580    1.7380   17.6730 C.3    97  LEU97       0.0311
    134  CG        26.8660    2.9980   17.1600 C.3    97  LEU97       0.0022
    135  CD1       25.9700    4.2190   17.2930 C.3    97  LEU97       0.0001
    136  CD2       28.1770    3.2160   17.8960 C.3    97  LEU97       0.0001
    137  N         24.7260    2.1470   14.6520 N.am   98  MET98      -0.1963
    138  CA        24.7960    2.0720   13.2010 C.3    98  MET98       0.1736
    139  C         25.2180    3.4340   12.6740 C.2    98  MET98       0.2616
    140  O         24.7260    4.4640   13.1390 O.2    98  MET98      -0.2715
    141  CB        23.4460    1.6570   12.5940 C.3    98  MET98       0.0427
    142  CG        22.8560    0.3780   13.1890 C.3    98  MET98       0.0599
    143  SD        23.7440   -1.1210   12.7210 S.3    98  MET98      -0.1393
    144  CE        23.1250   -1.3640   11.0580 C.3    98  MET98       0.0692
    145  N         26.1260    3.4290   11.6970 N.am   99  GLU99      -0.1963
    146  CA        26.7700    4.6680   11.2740 C.3    99  GLU99       0.1733
    147  C         25.7890    5.6230   10.5990 C.2    99  GLU99       0.2617
    148  O         25.8310    6.8340   10.8450 O.2    99  GLU99      -0.2715
    149  CB        27.9410    4.3530   10.3450 C.3    99  GLU99       0.0429
    150  CG        29.2100    3.9290   11.0730 C.3    99  GLU99       0.1163
    151  CD        29.0780    2.5870   11.7750 C.2    99  GLU99       0.3649
    152  OE1       27.9870    1.9810   11.7210 O.co2  99  GLU99      -0.2457
    153  OE2       30.0710    2.1370   12.3850 O.co2  99  GLU99      -0.2457
    154  N         24.9060    5.1120    9.7430 N.am  100  THR100     -0.1937
    155  CA        23.9980    5.9720    8.9910 C.3   100  THR100      0.2028
    156  C         22.6540    5.2640    8.8430 C.2   100  THR100      0.2642
    157  O         22.3970    4.2300    9.4660 O.2   100  THR100     -0.2714
    158  CB        24.6100    6.3410    7.6310 C.3   100  THR100      0.1808
    159  OG1       23.7620    7.2800    6.9590 O.3   100  THR100     -0.2208
    160  CG2       24.7900    5.1030    6.7560 C.3   100  THR100      0.0379
    161  N         21.7840    5.8460    8.0170 N.am  101  ASP101     -0.1971
    162  CA        20.4900    5.2600    7.6980 C.3   101  ASP101      0.1709
    163  C         20.1600    5.5990    6.2520 C.2   101  ASP101      0.2293
    164  O         20.8250    6.4230    5.6190 O.2   101  ASP101     -0.2864
    165  CB        19.3910    5.7540    8.6490 C.3   101  ASP101      0.1436
    166  CG        19.2080    7.2600    8.6070 C.2   101  ASP101      0.3671
    167  OD1       18.8840    7.7950    7.5260 O.co2 101  ASP101     -0.2456
    168  OD2       19.3750    7.9090    9.6610 O.co2 101  ASP101     -0.2456
    169  N         17.6760    7.1860    4.9330 N.3   103  TYR103     -0.1227
    170  CA        17.2680    8.5680    4.6990 C.3   103  TYR103      0.1736
    171  C         18.4810    9.4430    4.4020 C.2   103  TYR103      0.2595
    172  O         18.4830   10.2160    3.4370 O.2   103  TYR103     -0.2718
    173  CB        16.4960    9.0960    5.9100 C.3   103  TYR103      0.0548
    174  CG        16.0800   10.5460    5.8040 C.ar  103  TYR103     -0.0200
    175  CD1       16.9120   11.5640    6.2520 C.ar  103  TYR103     -0.0009
    176  CD2       14.8490   10.8970    5.2680 C.ar  103  TYR103     -0.0009
    177  CE1       16.5340   12.8910    6.1620 C.ar  103  TYR103      0.0417
    178  CE2       14.4610   12.2210    5.1730 C.ar  103  TYR103      0.0417
    179  CZ        15.3070   13.2130    5.6220 C.ar  103  TYR103      0.1957
    180  OH        14.9240   14.5320    5.5280 O.3   103  TYR103     -0.2866
    181  N         19.5320    9.3210    5.2160 N.am  104  LYS104     -0.1980
    182  CA        20.7450   10.1040    4.9930 C.3   104  LYS104      0.1596
    183  C         21.3880    9.7540    3.6590 C.2   104  LYS104      0.2287
    184  O         21.7430   10.6420    2.8760 O.2   104  LYS104     -0.2864
    185  CB        21.7360    9.8740    6.1330 C.3   104  LYS104      0.0298
    186  CG        21.2880   10.4150    7.4770 C.3   104  LYS104      0.0038
    187  CD        22.3250   10.1470    8.5630 C.3   104  LYS104      0.0206
    188  CE        23.5760   11.0000    8.3820 C.3   104  LYS104      0.1093
    189  NZ        24.6570   10.6240    9.3340 N.3   104  LYS104     -0.1314
    190  N         14.1520    6.5300    7.0520 N.3   143  SER143     -0.1202
    191  CA        14.7490    6.9480    8.3170 C.3   143  SER143      0.2020
    192  C         14.6910    5.8550    9.3760 C.2   143  SER143      0.2618
    193  O         15.4220    5.9330   10.3680 O.2   143  SER143     -0.2717
    194  CB        14.0620    8.2110    8.8380 C.3   143  SER143      0.2103
    195  OG        12.7080    7.9630    9.1680 O.3   143  SER143     -0.2182
    196  N         13.8400    4.8440    9.1950 N.am  144  ASN144     -0.1974
    197  CA        13.7570    3.7170   10.1130 C.3   144  ASN144      0.1688
    198  C         14.5460    2.5110    9.6160 C.2   144  ASN144      0.2292
    199  O         14.3350    1.3960   10.1020 O.2   144  ASN144     -0.2864
    200  CB        12.2950    3.3370   10.3490 C.3   144  ASN144      0.1181
    201  CG        11.5450    4.3840   11.1480 C.2   144  ASN144      0.2629
    202  OD1       12.1200    5.0580   12.0030 O.2   144  ASN144     -0.2716
    203  ND2       10.2540    4.5270   10.8730 N.am  144  ASN144     -0.0877
    204  N         18.3880    1.5550    9.3830 N.3   146  LEU146     -0.1245
    205  CA        19.7540    1.9140    9.7290 C.3   146  LEU146      0.1561
    206  C         20.7420    1.0410    8.9680 C.2   146  LEU146      0.2260
    207  O         20.4380   -0.0950    8.5940 O.2   146  LEU146     -0.2867
    208  CB        19.9860    1.7640   11.2320 C.3   146  LEU146      0.0270
    209  CG        18.9120    2.3670   12.1420 C.3   146  LEU146      0.0019
    210  CD1       19.2580    2.1150   13.6000 C.3   146  LEU146      0.0001
    211  CD2       18.7320    3.8570   11.8820 C.3   146  LEU146      0.0001
    212  N         14.3010   -0.4380   12.5400 N.3   155  CYS155     -0.1221
    213  CA        14.1430    0.0990   13.8870 C.3   155  CYS155      0.1808
    214  C         12.8050    0.8250   14.0050 C.2   155  CYS155      0.2601
    215  O         12.0320    0.9200   13.0470 O.2   155  CYS155     -0.2717
    216  CB        15.3070    1.0340   14.2500 C.3   155  CYS155      0.0970
    217  SG        15.3530    2.6060   13.3470 S.3   155  CYS155     -0.0800
    218  N         12.5380    1.3300   15.2120 N.am  156  ASP156     -0.1973
    219  CA        11.3110    2.0510   15.5440 C.3   156  ASP156      0.1709
    220  C         10.0690    1.1900   15.3520 C.2   156  ASP156      0.2293
    221  O          9.4550    1.2010   14.2790 O.2   156  ASP156     -0.2864
    222  CB        11.1750    3.3240   14.7080 C.3   156  ASP156      0.1436
    223  CG        10.1520    4.2900   15.2890 C.2   156  ASP156      0.3671
    224  OD1       10.1010    5.4570   14.8490 O.co2 156  ASP156     -0.2456
    225  OD2        9.4130    3.8850   16.2080 O.co2 156  ASP156     -0.2456
@<TRIPOS>BOND
     1   184   183    2
     2   172   171    2
     3   183   182    1
     4   171   170    1
     5   171   181   am
     6   170   169    1
     7   170   173    1
     8   182   181    1
     9   182   185    1
    10   178   176   ar
    11   178   179   ar
    12   176   174   ar
    13   180   179    1
    14   164   163    2
    15   179   177   ar
    16   174   173    1
    17   174   175   ar
    18   185   186    1
    19   177   175   ar
    20   163   162    1
    21   160   158    1
    22   159   158    1
    23   190   191    1
    24   186   187    1
    25   167   166   ar
    26   158   155    1
    27   162   161    1
    28   162   165    1
    29   161   156   am
    30   191   194    1
    31   191   192    1
    32   188   187    1
    33   188   189    1
    34   207   206    2
    35   166   165    1
    36   166   168   ar
    37   194   195    1
    38   156   155    1
    39   156   157    2
    40   206   205    1
    41   155   154    1
    42   196   192   am
    43   196   197    1
    44   192   193    2
    45   204   205    1
    46   198   199    2
    47   198   197    1
    48   205   208    1
    49   154   147   am
    50   197   200    1
    51   149   150    1
    52   149   146    1
    53   200   201    1
    54   147   148    2
    55   147   146    1
    56   203   201   am
    57   144   143    1
    58   150   151    1
    59   201   202    2
    60   208   209    1
    61   146   145    1
    62   145   139   am
    63   152   151   ar
    64   151   153   ar
    65   211   209    1
    66   209   210    1
    67   212   213    1
    68   141   142    1
    69   141   138    1
    70   139   140    2
    71   139   138    1
    72   143   142    1
    73   215   214    2
    74   138   137    1
    75   217   216    1
    76   213   214    1
    77   213   216    1
    78   214   218   am
    79   221   220    2
    80   137   131   am
    81   104   105    1
    82   222   223    1
    83   222   219    1
    84   224   223   ar
    85   132   131    2
    86   218   219    1
    87   223   225   ar
    88   220   219    1
    89   131   130    1
    90   105   108    1
    91   105   106    1
    92     4     3    2
    93   108   110    1
    94   108   109    1
    95     7     5    1
    96    94    92    1
    97   111   109    1
    98   125   126    1
    99   125   122    1
   100     3     2    1
   101     3     9   am
   102   130   129    1
   103   130   133    1
   104    10     9    1
   105    10    11    1
   106   106   107    2
   107   126   128   ar
   108   126   127   ar
   109    16    15    2
   110   134   135    1
   111   134   133    1
   112   134   136    1
   113   124   123    2
   114     2     5    1
   115     2     1    1
   116     5     6    1
   117   129   123   am
   118   123   122    1
   119    92    93    1
   120    92    91    2
   121    13    11   am
   122    13    14    1
   123     6     8    1
   124   122   121    1
   125    11    12    2
   126    15    14    1
   127    15    22   am
   128    91    90    1
   129    23    22    1
   130    23    24    1
   131   103   101   ar
   132    30    27    1
   133    14    17    1
   134   121   114   am
   135    26    24   am
   136    26    27    1
   137    24    25    2
   138    17    18    1
   139    27    28    1
   140    66    63    1
   141    60    59    1
   142    90    89    1
   143    61    59    1
   144    59    56    1
   145   120   118   am
   146   101   100    1
   147   101   102   ar
   148   114   115    2
   149   114   113    1
   150    89    88    1
   151    20    19   ar
   152   116   113    1
   153   116   117    1
   154   100    99    1
   155   119   118    2
   156    58    57    2
   157   118   117    1
   158    75    74    1
   159    18    19    1
   160    99    96    1
   161    63    62    1
   162    63    64    1
   163    88    85    1
   164   113   112    1
   165    28    31   am
   166    28    29    2
   167    19    21   ar
   168    57    56    1
   169    56    55    1
   170    96    95    1
   171    96    97    1
   172    40    38   ar
   173    40    41   ar
   174    73    74    1
   175    73    72    1
   176    55    49   am
   177    42    41    1
   178    38    36   ar
   179    98    97    2
   180    31    32    1
   181    85    86    1
   182    85    84    1
   183    46    45    2
   184    87    86    2
   185    41    39   ar
   186    64    65    2
   187    72    71    1
   188    49    48    1
   189    49    50    2
   190    48    47    1
   191    48    51    1
   192    71    68    1
   193    45    47   am
   194    45    44    1
   195    52    51    1
   196    52    53    1
   197    43    44    1
   198    43    33   am
   199    36    35    1
   200    36    37   ar
   201    32    35    1
   202    32    33    1
   203    39    37   ar
   204    68    67    1
   205    68    69    1
   206    54    53    1
   207    33    34    2
   208    69    70    2
   209    83    81    1
   210    81    80    1
   211    82    80    1
   212    80    77    1
   213    77    76    1
   214    77    78    1
   215    78    79    2
