@<TRIPOS>MOLECULE
tmp/6dmiA00.pdb
 203 196 0 0 0
SMALL
GASTEIGER

@<TRIPOS>ATOM
      1  N        -24.8440   46.1410   84.2280 N.3    16  GLY16      -0.1210
      2  CA       -24.4930   46.3260   85.6090 C.3    16  GLY16       0.1956
      3  C        -24.6680   45.1060   86.4790 C.2    16  GLY16       0.2612
      4  O        -24.4250   45.1950   87.6890 O.2    16  GLY16      -0.2717
      5  N        -25.0790   43.9580   85.9160 N.am   17  GLN17      -0.1965
      6  CA       -25.2010   42.7320   86.7060 C.3    17  GLN17       0.1733
      7  C        -24.2820   41.6210   86.2060 C.2    17  GLN17       0.2616
      8  O        -24.5080   40.4570   86.5360 O.2    17  GLN17      -0.2715
      9  CB       -26.6400   42.2330   86.7190 C.3    17  GLN17       0.0408
     10  CG       -27.5800   43.0890   87.5310 C.3    17  GLN17       0.0908
     11  CD       -29.0190   42.5710   87.5060 C.2    17  GLN17       0.2608
     12  OE1      -29.3020   41.5030   86.9900 O.2    17  GLN17      -0.2717
     13  NE2      -29.9220   43.3450   88.0600 N.am   17  GLN17      -0.0878
     14  N        -23.2570   41.9490   85.4090 N.am   18  GLY18      -0.1955
     15  CA       -22.2780   40.9640   84.9830 C.3    18  GLY18       0.1869
     16  C        -22.7500   40.0690   83.8470 C.2    18  GLY18       0.2309
     17  O        -23.8790   40.1410   83.3680 O.2    18  GLY18      -0.2863
     18  N        -22.2320   33.4040   86.7220 N.3    35  LEU35      -0.1245
     19  CA       -21.4790   34.6190   86.4440 C.3    35  LEU35       0.1561
     20  C        -20.0010   34.3110   86.1520 C.2    35  LEU35       0.2260
     21  O        -19.3260   33.6120   86.9150 O.2    35  LEU35      -0.2867
     22  CB       -21.5830   35.5400   87.6460 C.3    35  LEU35       0.0270
     23  CG       -20.6250   36.7360   87.5020 C.3    35  LEU35       0.0019
     24  CD1      -21.3720   37.8520   86.8720 C.3    35  LEU35       0.0001
     25  CD2      -20.1230   37.1220   88.8390 C.3    35  LEU35       0.0001
     26  N        -16.3890   35.2660   86.3160 N.3    37  ASP37      -0.1239
     27  CA       -15.7300   36.2010   87.2300 C.3    37  ASP37       0.1674
     28  C        -14.2120   36.0090   87.2160 C.2    37  ASP37       0.2266
     29  O        -13.6990   35.1640   87.9520 O.2    37  ASP37      -0.2867
     30  CB       -16.3180   36.0050   88.6410 C.3    37  ASP37       0.1410
     31  CG       -15.8180   37.0110   89.6520 C.2    37  ASP37       0.3668
     32  OD1      -15.1310   37.9670   89.2720 O.co2  37  ASP37      -0.2456
     33  OD2      -16.1690   36.8500   90.8450 O.co2  37  ASP37      -0.2456
     34  N        -12.2670   37.9420   88.6230 N.3    39  GLY39      -0.1210
     35  CA       -11.7480   38.5160   89.8490 C.3    39  GLY39       0.1956
     36  C        -11.8210   37.6490   91.0930 C.2    39  GLY39       0.2613
     37  O        -11.5170   38.1460   92.1820 O.2    39  GLY39      -0.2717
     38  N        -12.2010   36.3810   90.9830 N.am   40  SER40      -0.1938
     39  CA       -12.1800   35.4690   92.1300 C.3    40  SER40       0.2055
     40  C        -11.8370   34.0740   91.6340 C.2    40  SER40       0.2644
     41  O        -11.6990   33.8450   90.4330 O.2    40  SER40      -0.2714
     42  CB       -13.5350   35.4550   92.8500 C.3    40  SER40       0.2130
     43  OG       -14.6000   35.1150   91.9530 O.3    40  SER40      -0.2179
     44  N        -11.8030   33.1000   92.5570 N.am   41  SER41      -0.1935
     45  CA       -11.2860   31.7840   92.1820 C.3    41  SER41       0.2055
     46  C        -12.0830   30.5890   92.7140 C.2    41  SER41       0.2643
     47  O        -11.5830   29.4570   92.6730 O.2    41  SER41      -0.2714
     48  CB        -9.8410   31.6850   92.6570 C.3    41  SER41       0.2130
     49  OG        -9.1160   32.8010   92.1520 O.3    41  SER41      -0.2179
     50  N        -13.3200   30.7890   93.1720 N.am   42  ASN42      -0.1971
     51  CA       -14.1920   29.7010   93.6110 C.3    42  ASN42       0.1688
     52  C        -15.3400   29.5400   92.6340 C.2    42  ASN42       0.2292
     53  O        -15.9110   30.5380   92.1580 O.2    42  ASN42      -0.2864
     54  CB       -14.8000   29.9710   95.0130 C.3    42  ASN42       0.1181
     55  CG       -13.8050   29.7290   96.1610 C.2    42  ASN42       0.2629
     56  OD1      -13.0490   30.6030   96.5180 O.2    42  ASN42      -0.2716
     57  ND2      -13.8750   28.5570   96.7730 N.am   42  ASN42      -0.0877
     58  N        -17.1930   32.9310  103.6360 N.3    74  VAL74      -0.1231
     59  CA       -16.5160   33.8670  102.7390 C.3    74  VAL74       0.1678
     60  C        -17.0990   35.2600  102.9110 C.2    74  VAL74       0.2434
     61  O        -18.0070   35.6640  102.1670 O.2    74  VAL74      -0.2733
     62  CB       -16.5940   33.4020  101.2750 C.3    74  VAL74       0.0265
     63  CG1      -15.8550   34.3670  100.3820 C.3    74  VAL74       0.0020
     64  CG2      -16.0120   31.9760  101.1240 C.3    74  VAL74       0.0020
     65  N        -16.6040   36.0310  103.8700 N.am   75  PRO75      -0.2718
     66  CA       -17.0180   37.4230  103.9760 C.3    75  PRO75       0.1535
     67  C        -16.2570   38.2920  102.9890 C.2    75  PRO75       0.2598
     68  O        -15.1870   37.9490  102.4860 O.2    75  PRO75      -0.2715
     69  CB       -16.6570   37.7840  105.4160 C.3    75  PRO75       0.0310
     70  CG       -15.4630   36.9610  105.6810 C.3    75  PRO75       0.0237
     71  CD       -15.6070   35.6820  104.8910 C.3    75  PRO75       0.0939
     72  N        -16.8470   39.4410  102.7220 N.am   76  TYR76      -0.1974
     73  CA       -16.2320   40.4900  101.9360 C.3    76  TYR76       0.1639
     74  C        -16.9970   41.7560  102.2850 C.2    76  TYR76       0.2290
     75  O        -17.6440   41.8270  103.3400 O.2    76  TYR76      -0.2864
     76  CB       -16.2560   40.1210  100.4420 C.3    76  TYR76       0.0560
     77  CG       -17.5990   39.6050   99.9700 C.ar   76  TYR76      -0.0198
     78  CD1      -17.7900   38.2480   99.6610 C.ar   76  TYR76      -0.0009
     79  CD2      -18.6740   40.4710   99.8150 C.ar   76  TYR76      -0.0009
     80  CE1      -19.0290   37.7760   99.2340 C.ar   76  TYR76       0.0417
     81  CE2      -19.9010   40.0130   99.3810 C.ar   76  TYR76       0.0417
     82  CZ       -20.0750   38.6740   99.0910 C.ar   76  TYR76       0.1957
     83  OH       -21.3170   38.2680   98.6610 O.3    76  TYR76      -0.2866
     84  N        -20.9350   34.9710  101.6360 N.3    81  TRP81      -0.1241
     85  CA       -21.5850   33.6950  101.3750 C.3    81  TRP81       0.1605
     86  C        -20.8910   32.6230  102.2000 C.2    81  TRP81       0.2264
     87  O        -19.7120   32.7490  102.5470 O.2    81  TRP81      -0.2867
     88  CB       -21.6190   33.3300   99.8580 C.3    81  TRP81       0.0550
     89  CG       -20.2970   33.1030   99.1710 C.ar   81  TRP81       0.0003
     90  CD1      -19.5680   34.0270   98.4440 C.ar   81  TRP81       0.0946
     91  CD2      -19.5650   31.8850   99.1130 C.ar   81  TRP81       0.0152
     92  NE1      -18.4120   33.4450   97.9630 N.ar   81  TRP81      -0.2442
     93  CE2      -18.3950   32.1280   98.3510 C.ar   81  TRP81       0.0810
     94  CE3      -19.7830   30.6020   99.6230 C.ar   81  TRP81       0.0012
     95  CZ2      -17.4540   31.1330   98.0950 C.ar   81  TRP81       0.0191
     96  CZ3      -18.8370   29.6230   99.3680 C.ar   81  TRP81       0.0001
     97  CH2      -17.6850   29.8980   98.6210 C.ar   81  TRP81       0.0015
     98  N        -26.3040   39.8640  100.6260 N.3   112  LYS112     -0.1231
     99  CA       -25.9250   40.8310   99.5850 C.3   112  LYS112      0.1693
    100  C        -25.0600   40.2170   98.4810 C.2   112  LYS112      0.2592
    101  O        -24.2210   40.8960   97.8700 O.2   112  LYS112     -0.2718
    102  CB       -25.2400   42.0470  100.2100 C.3   112  LYS112      0.0285
    103  CG       -26.2860   42.9090  100.9300 C.3   112  LYS112      0.0035
    104  CD       -25.6810   43.9110  101.9000 C.3   112  LYS112      0.0206
    105  CE       -26.7990   44.8160  102.4590 C.3   112  LYS112      0.1093
    106  NZ       -26.3110   45.6840  103.5700 N.3   112  LYS112     -0.1314
    107  N        -25.2630   38.9270   98.2240 N.am  113  PHE113     -0.1976
    108  CA       -24.5580   38.1900   97.1830 C.3   113  PHE113      0.1639
    109  C        -25.4310   38.0240   95.9450 C.2   113  PHE113      0.2290
    110  O        -25.1040   38.5310   94.8650 O.2   113  PHE113     -0.2864
    111  CB       -24.1290   36.8310   97.7320 C.3   113  PHE113      0.0560
    112  CG       -23.2950   36.0230   96.7640 C.ar  113  PHE113     -0.0200
    113  CD1      -21.9750   36.3820   96.4890 C.ar  113  PHE113     -0.0042
    114  CD2      -23.8390   34.9270   96.1060 C.ar  113  PHE113     -0.0042
    115  CE1      -21.1980   35.6440   95.6060 C.ar  113  PHE113     -0.0003
    116  CE2      -23.0750   34.1850   95.2150 C.ar  113  PHE113     -0.0003
    117  CZ       -21.7400   34.5470   94.9660 C.ar  113  PHE113     -0.0000
    118  N        -28.4970   38.7690   93.4790 N.3   115  ILE115     -0.1245
    119  CA       -29.1570   40.0280   93.1180 C.3   115  ILE115      0.1561
    120  C        -30.6260   39.7570   92.8110 C.2   115  ILE115      0.2260
    121  O        -30.9450   38.8750   92.0070 O.2   115  ILE115     -0.2867
    122  CB       -28.4770   40.6850   91.9050 C.3   115  ILE115      0.0252
    123  CG1      -27.0240   41.0410   92.2100 C.3   115  ILE115      0.0019
    124  CG2      -29.2930   41.8920   91.4020 C.3   115  ILE115      0.0019
    125  CD1      -26.2980   41.4780   90.9220 C.3   115  ILE115      0.0001
    126  N        -28.6440   34.9170   87.1530 N.3   120  TRP120     -0.1241
    127  CA       -27.5960   33.9500   87.4540 C.3   120  TRP120      0.1605
    128  C        -27.7320   33.4500   88.8850 C.2   120  TRP120      0.2264
    129  O        -28.2530   34.1460   89.7550 O.2   120  TRP120     -0.2867
    130  CB       -26.1620   34.4950   87.2110 C.3   120  TRP120      0.0550
    131  CG       -25.8050   35.8070   87.7670 C.ar  120  TRP120      0.0003
    132  CD1      -25.8140   37.0090   87.0990 C.ar  120  TRP120      0.0946
    133  CD2      -25.2400   36.0710   89.0640 C.ar  120  TRP120      0.0152
    134  NE1      -25.3550   38.0140   87.9210 N.ar  120  TRP120     -0.2442
    135  CE2      -24.9800   37.4640   89.1270 C.ar  120  TRP120      0.0810
    136  CE3      -24.9530   35.2680   90.1880 C.ar  120  TRP120      0.0012
    137  CZ2      -24.4410   38.0740   90.2660 C.ar  120  TRP120      0.0191
    138  CZ3      -24.4290   35.8800   91.3190 C.ar  120  TRP120      0.0001
    139  CH2      -24.1850   37.2750   91.3470 C.ar  120  TRP120      0.0015
    140  N        -21.3560   31.7130   90.7030 N.3   123  ILE123     -0.1245
    141  CA       -20.2430   32.4540   90.0980 C.3   123  ILE123      0.1561
    142  C        -19.1200   31.4860   89.7590 C.2   123  ILE123      0.2260
    143  O        -18.8660   30.5140   90.4770 O.2   123  ILE123     -0.2867
    144  CB       -19.7100   33.6020   90.9820 C.3   123  ILE123      0.0252
    145  CG1      -19.0720   33.1170   92.2590 C.3   123  ILE123      0.0019
    146  CG2      -20.8600   34.6480   91.2970 C.3   123  ILE123      0.0019
    147  CD1      -18.3970   34.2730   93.0100 C.3   123  ILE123      0.0001
    148  N         -5.9740   32.9090   95.6350 N.3   131  ILE131     -0.1245
    149  CA        -7.0650   33.6360   96.2780 C.3   131  ILE131      0.1561
    150  C         -8.3280   32.7910   96.3930 C.2   131  ILE131      0.2260
    151  O         -9.3940   33.3260   96.6830 O.2   131  ILE131     -0.2867
    152  CB        -7.3770   34.9770   95.5780 C.3   131  ILE131      0.0252
    153  CG1       -7.7540   34.7640   94.1130 C.3   131  ILE131      0.0019
    154  CG2       -6.2540   36.0040   95.7960 C.3   131  ILE131      0.0019
    155  CD1       -8.3710   36.0040   93.4660 C.3   131  ILE131      0.0001
    156  N        -10.9480   30.2970   98.2540 N.3   133  ARG133     -0.1245
    157  CA       -11.3370   30.0660   99.6340 C.3   133  ARG133      0.1563
    158  C        -11.6690   28.5940   99.8370 C.2   133  ARG133      0.2260
    159  O        -12.3000   27.9720   98.9690 O.2   133  ARG133     -0.2867
    160  CB       -12.5450   30.9080  100.0400 C.3   133  ARG133      0.0307
    161  CG       -12.4470   32.3480   99.6640 C.3   133  ARG133      0.0489
    162  CD       -11.4860   33.0740  100.5410 C.3   133  ARG133      0.2205
    163  NE       -11.1590   34.3540   99.9320 N.pl3 133  ARG133     -0.0865
    164  CZ       -11.6640   35.5210  100.3110 C.cat 133  ARG133      0.5346
    165  NH1      -12.5330   35.5910  101.3270 N.pl3 133  ARG133      0.1354
    166  NH2      -11.2910   36.6230   99.6700 N.pl3 133  ARG133      0.1354
    167  N        -10.8780   42.2950   85.7190 N.3   222  ASP222     -0.1225
    168  CA       -11.9480   41.6710   86.5230 C.3   222  ASP222      0.1805
    169  C        -13.3050   41.7680   85.8170 C.2   222  ASP222      0.2598
    170  O        -13.9840   42.7890   85.9010 O.2   222  ASP222     -0.2718
    171  CB       -11.9990   42.3270   87.9030 C.3   222  ASP222      0.1424
    172  CG       -13.0360   41.6770   88.8290 C.2   222  ASP222      0.3668
    173  OD1      -13.5980   40.6260   88.4450 O.co2 222  ASP222     -0.2456
    174  OD2      -13.2870   42.2130   89.9250 O.co2 222  ASP222     -0.2456
    175  N        -13.7120   40.6940   85.1480 N.am  223  SER223     -0.1938
    176  CA       -15.0160   40.6380   84.5070 C.3   223  SER223      0.2055
    177  C        -16.1800   40.6780   85.5050 C.2   223  SER223      0.2644
    178  O        -17.3140   40.8850   85.0810 O.2   223  SER223     -0.2714
    179  CB       -15.1300   39.3730   83.6580 C.3   223  SER223      0.2130
    180  OG       -15.0640   38.2240   84.4800 O.3   223  SER223     -0.2179
    181  N        -15.9200   40.4810   86.7860 N.am  224  GLY224     -0.1939
    182  CA       -16.9580   40.5090   87.8020 C.3   224  GLY224      0.2014
    183  C        -17.0710   41.8510   88.4970 C.2   224  GLY224      0.2640
    184  O        -17.6380   41.9320   89.5790 O.2   224  GLY224     -0.2714
    185  N        -16.5090   42.9070   87.9080 N.am  225  THR225     -0.1936
    186  CA       -16.7060   44.2660   88.3890 C.3   225  THR225      0.2028
    187  C        -17.2470   45.0770   87.2270 C.2   225  THR225      0.2642
    188  O        -16.8000   44.9160   86.0850 O.2   225  THR225     -0.2714
    189  CB       -15.4070   44.8880   88.9270 C.3   225  THR225      0.1808
    190  OG1      -14.9930   44.2020   90.1080 O.3   225  THR225     -0.2208
    191  CG2      -15.5770   46.3650   89.2430 C.3   225  THR225      0.0379
    192  N        -18.2450   45.9230   87.5050 N.am  226  THR226     -0.1950
    193  CA       -18.8370   46.7110   86.4280 C.3   226  THR226      0.1897
    194  C        -17.9240   47.8710   86.0190 C.2   226  THR226      0.2313
    195  O        -17.7320   48.1240   84.8210 O.2   226  THR226     -0.2863
    196  CB       -20.1990   47.2720   86.8650 C.3   226  THR226      0.1794
    197  OG1      -21.1240   46.1990   87.0320 O.3   226  THR226     -0.2208
    198  CG2      -20.7400   48.2280   85.8100 C.3   226  THR226      0.0378
    199  N        -15.9520   45.7840   83.5260 N.3   324  ALA324     -0.1245
    200  CA       -16.6350   45.7660   82.2330 C.3   324  ALA324      0.1562
    201  C        -16.4470   47.0550   81.4510 C.2   324  ALA324      0.2260
    202  O        -16.4790   47.0120   80.2200 O.2   324  ALA324     -0.2867
    203  CB       -18.1360   45.4950   82.4080 C.3   324  ALA324      0.0290
@<TRIPOS>BOND
     1   202   201    2
     2   201   200    1
     3   200   203    1
     4   200   199    1
     5    17    16    2
     6   179   180    1
     7   179   176    1
     8    16    15    1
     9     1     2    1
    10   176   175    1
    11   176   177    1
    12   195   194    2
    13    15    14    1
    14   178   177    2
    15   175   169   am
    16    14     7   am
    17   177   181   am
    18     2     3    1
    19   167   168    1
    20   198   196    1
    21   169   170    2
    22   169   168    1
    23     5     3   am
    24     5     6    1
    25   194   193    1
    26   188   187    2
    27    20    19    1
    28    20    21    2
    29     7     8    2
    30     7     6    1
    31    26    27    1
    32   193   196    1
    33   193   192    1
    34    19    18    1
    35    19    22    1
    36     3     4    2
    37   168   171    1
    38     6     9    1
    39     9    10    1
    40   181   182    1
    41   196   197    1
    42    24    23    1
    43    12    11    2
    44   132   131   ar
    45   132   134   ar
    46   126   127    1
    47   130   127    1
    48   130   131    1
    49    28    27    1
    50    28    29    2
    51   187   192   am
    52   187   186    1
    53    27    30    1
    54   127   128    1
    55    23    22    1
    56    23    25    1
    57    11    10    1
    58    11    13   am
    59   131   133   ar
    60   182   183    1
    61   171   172    1
    62   185   186    1
    63   185   183   am
    64   134   135   ar
    65   186   189    1
    66   173   172   ar
    67   183   184    2
    68    34    35    1
    69    30    31    1
    70   172   174   ar
    71   128   129    2
    72   189   191    1
    73   189   190    1
    74   133   135   ar
    75   133   136   ar
    76   135   137   ar
    77    32    31   ar
    78    31    33   ar
    79   142   141    1
    80   142   143    2
    81    35    36    1
    82   141   140    1
    83   141   144    1
    84   136   138   ar
    85   137   139   ar
    86    41    40    2
    87   125   123    1
    88   144   146    1
    89   144   145    1
    90    38    36   am
    91    38    39    1
    92    36    37    2
    93   138   139   ar
    94   124   122    1
    95    40    39    1
    96    40    44   am
    97   122   123    1
    98   122   119    1
    99    43    42    1
   100   121   120    2
   101    39    42    1
   102    49    48    1
   103    53    52    2
   104    45    44    1
   105    45    48    1
   106    45    46    1
   107   145   147    1
   108    52    51    1
   109    47    46    2
   110    46    50   am
   111   120   119    1
   112   119   118    1
   113    50    51    1
   114   155   153    1
   115    51    54    1
   116   153   152    1
   117   110   109    2
   118   117   116   ar
   119   117   115   ar
   120    54    55    1
   121   116   114   ar
   122   152   154    1
   123   152   149    1
   124   115   113   ar
   125   148   149    1
   126   109   108    1
   127   114   112   ar
   128    55    56    2
   129    55    57   am
   130   149   150    1
   131   150   151    2
   132   113   112   ar
   133   112   111    1
   134   108   111    1
   135   108   107    1
   136   101   100    2
   137    92    93   ar
   138    92    90   ar
   139    95    93   ar
   140    95    97   ar
   141   107   100   am
   142   156   157    1
   143    93    91   ar
   144    90    89   ar
   145   100    99    1
   146    97    96   ar
   147    83    82    1
   148   159   158    2
   149    82    80   ar
   150    82    81   ar
   151    91    89   ar
   152    91    94   ar
   153    89    88    1
   154    80    78   ar
   155    96    94   ar
   156    81    79   ar
   157    99   102    1
   158    99    98    1
   159   157   158    1
   160   157   160    1
   161    78    77   ar
   162   161   160    1
   163   161   162    1
   164   166   164    1
   165    79    77   ar
   166    88    85    1
   167   163   164    2
   168   163   162    1
   169    77    76    1
   170   102   103    1
   171   164   165    1
   172    63    62    1
   173    76    73    1
   174   103   104    1
   175    64    62    1
   176    62    59    1
   177    85    84    1
   178    85    86    1
   179   104   105    1
   180    73    74    1
   181    73    72    1
   182    61    60    2
   183    86    87    2
   184    74    75    2
   185   105   106    1
   186    68    67    2
   187    72    67   am
   188    59    60    1
   189    59    58    1
   190    60    65   am
   191    67    66    1
   192    65    66    1
   193    65    71    1
   194    66    69    1
   195    71    70    1
   196    69    70    1
