@<TRIPOS>MOLECULE
tmp/6dmlA00.pdb
 149 146 0 0 0
SMALL
GASTEIGER

@<TRIPOS>ATOM
      1  N          7.4640   -2.8000   12.4020 N.3    40  TRP40      -0.1228
      2  CA         8.7680   -3.0270   13.0080 C.3    40  TRP40       0.1722
      3  C          9.6400   -1.7780   13.0770 C.2    40  TRP40       0.2437
      4  O         10.3870   -1.6640   14.0630 O.2    40  TRP40      -0.2733
      5  CB         9.4810   -4.1950   12.2980 C.3    40  TRP40       0.0563
      6  CG         9.7290   -3.9890   10.8360 C.ar   40  TRP40       0.0003
      7  CD1        8.9120   -4.3440    9.7810 C.ar   40  TRP40       0.0946
      8  CD2       10.8800   -3.3730   10.2630 C.ar   40  TRP40       0.0152
      9  NE1        9.5130   -3.9550    8.5950 N.ar   40  TRP40      -0.2442
     10  CE2       10.7100   -3.3520    8.8770 C.ar   40  TRP40       0.0810
     11  CE3       12.0350   -2.8350   10.8010 C.ar   40  TRP40       0.0012
     12  CZ2       11.6690   -2.8260    8.0220 C.ar   40  TRP40       0.0191
     13  CZ3       12.9680   -2.3030    9.9630 C.ar   40  TRP40       0.0001
     14  CH2       12.7800   -2.2960    8.5840 C.ar   40  TRP40       0.0015
     15  N          9.6130   -0.8200   12.1330 N.am   41  PRO41      -0.2718
     16  CA        10.4670    0.3770   12.2860 C.3    41  PRO41       0.1535
     17  C         10.0630    1.2400   13.4510 C.2    41  PRO41       0.2598
     18  O         10.8680    2.0750   13.8980 O.2    41  PRO41      -0.2715
     19  CB        10.2510    1.1480   10.9740 C.3    41  PRO41       0.0310
     20  CG         9.7710    0.1040   10.0130 C.3    41  PRO41       0.0237
     21  CD         8.8860   -0.7690   10.8590 C.3    41  PRO41       0.0939
     22  N          8.8830    0.9890   13.9840 N.am   42  PHE42      -0.1974
     23  CA         8.2690    1.8130   15.0080 C.3    42  PHE42       0.1639
     24  C          8.2730    1.1280   16.3660 C.2    42  PHE42       0.2290
     25  O          7.7820    1.7070   17.3370 O.2    42  PHE42      -0.2864
     26  CB         6.8290    2.1590   14.5950 C.3    42  PHE42       0.0560
     27  CG         6.7390    2.8580   13.2770 C.ar   42  PHE42      -0.0200
     28  CD1        6.5000    2.1380   12.1060 C.ar   42  PHE42      -0.0042
     29  CD2        6.8650    4.2140   13.1930 C.ar   42  PHE42      -0.0042
     30  CE1        6.4340    2.7690   10.8780 C.ar   42  PHE42      -0.0003
     31  CE2        6.7600    4.8610   11.9580 C.ar   42  PHE42      -0.0003
     32  CZ         6.5700    4.1250   10.7980 C.ar   42  PHE42      -0.0000
     33  N         10.7130    0.4070   18.4140 N.3    44  GLN44      -0.1231
     34  CA        11.7830    0.7850   19.3220 C.3    44  GLN44       0.1683
     35  C         12.2790    2.1710   18.9430 C.2    44  GLN44       0.2434
     36  O         12.0060    2.6490   17.8370 O.2    44  GLN44      -0.2733
     37  CB        12.9230   -0.2310   19.2540 C.3    44  GLN44       0.0380
     38  CG        13.5860   -0.3600   17.8850 C.3    44  GLN44       0.0905
     39  CD        12.7640   -1.1200   16.8850 C.2    44  GLN44       0.2608
     40  OE1       12.3000   -2.2390   17.1400 O.2    44  GLN44      -0.2717
     41  NE2       12.5330   -0.4880   15.7460 N.am   44  GLN44      -0.0878
     42  N         12.9520    2.8650   19.8580 N.am   45  PRO45      -0.2718
     43  CA        13.4970    4.1840   19.5310 C.3    45  PRO45       0.1535
     44  C         14.3740    4.1350   18.2870 C.2    45  PRO45       0.2598
     45  O         15.0790    3.1470   18.0330 O.2    45  PRO45      -0.2715
     46  CB        14.3140    4.5330   20.7850 C.3    45  PRO45       0.0310
     47  CG        13.6060    3.8410   21.8650 C.3    45  PRO45       0.0237
     48  CD        13.2070    2.5150   21.2690 C.3    45  PRO45       0.0939
     49  N         14.3250    5.2270   17.5070 N.am   46  VAL46      -0.1978
     50  CA        15.2250    5.3510   16.3570 C.3    46  VAL46       0.1596
     51  C         16.6650    5.2950   16.8460 C.2    46  VAL46       0.2287
     52  O         17.1000    6.1390   17.6430 O.2    46  VAL46      -0.2864
     53  CB        14.9540    6.6440   15.5880 C.3    46  VAL46       0.0276
     54  CG1       15.9690    6.8030   14.4250 C.3    46  VAL46       0.0022
     55  CG2       13.5410    6.6140   15.0140 C.3    46  VAL46       0.0022
     56  N         21.4830    3.3310   12.3010 N.3    51  LEU51      -0.1245
     57  CA        20.8670    3.6270   11.0120 C.3    51  LEU51       0.1561
     58  C         21.6170    4.7020   10.2280 C.2    51  LEU51       0.2260
     59  O         21.2090    5.0350    9.1060 O.2    51  LEU51      -0.2867
     60  CB        19.4110    4.0390   11.2080 C.3    51  LEU51       0.0270
     61  CG        18.5180    2.9920   11.8630 C.3    51  LEU51       0.0019
     62  CD1       17.1570    3.6580   12.0890 C.3    51  LEU51       0.0001
     63  CD2       18.3880    1.7210   11.0440 C.3    51  LEU51       0.0001
     64  N         21.9710    7.9740   10.7190 N.3    53  LEU53      -0.1245
     65  CA        21.0810    9.1200   10.5830 C.3    53  LEU53       0.1561
     66  C         21.5790   10.1910   11.5450 C.2    53  LEU53       0.2260
     67  O         20.9100   10.5200   12.5300 O.2    53  LEU53      -0.2867
     68  CB        19.6290    8.7440   10.8910 C.3    53  LEU53       0.0270
     69  CG        18.9870    7.6770   10.0110 C.3    53  LEU53       0.0019
     70  CD1       17.5710    7.3720   10.4820 C.3    53  LEU53       0.0001
     71  CD2       18.9690    8.1270    8.5720 C.3    53  LEU53       0.0001
     72  N         19.2340   12.9710   12.9380 N.3    56  TYR56      -0.1241
     73  CA        17.8890   12.6280   13.3870 C.3    56  TYR56       0.1605
     74  C         17.5230   13.3780   14.6670 C.2    56  TYR56       0.2264
     75  O         16.4850   14.0450   14.7290 O.2    56  TYR56      -0.2867
     76  CB        17.7390   11.1150   13.5690 C.3    56  TYR56       0.0534
     77  CG        16.3000   10.8000   13.9390 C.ar   56  TYR56      -0.0201
     78  CD1       15.3190   10.7160   12.9650 C.ar   56  TYR56      -0.0009
     79  CD2       15.9160   10.6740   15.2590 C.ar   56  TYR56      -0.0009
     80  CE1       13.9900   10.4880   13.2990 C.ar   56  TYR56       0.0417
     81  CE2       14.5840   10.4450   15.6030 C.ar   56  TYR56       0.0417
     82  CZ        13.6240   10.3380   14.6170 C.ar   56  TYR56       0.1957
     83  OH        12.2950   10.1090   14.9220 O.3    56  TYR56      -0.2866
     84  N          4.7070   10.1320   17.5820 N.3    91  MET91      -0.1245
     85  CA         5.4380    9.1730   16.7730 C.3    91  MET91       0.1570
     86  C          5.1710    9.3740   15.2870 C.2    91  MET91       0.2261
     87  O          6.1070    9.3800   14.4740 O.2    91  MET91      -0.2867
     88  CB         5.0330    7.7710   17.2080 C.3    91  MET91       0.0387
     89  CG         5.7270    6.6770   16.4240 C.3    91  MET91       0.0595
     90  SD         5.1080    5.0470   16.8610 S.3    91  MET91      -0.1393
     91  CE         3.6060    4.9800   15.9320 C.3    91  MET91       0.0692
     92  N          6.5850   12.8040   14.0020 N.3    94  ASN94      -0.1225
     93  CA         8.0300   12.8170   13.8390 C.3    94  ASN94       0.1785
     94  C          8.4190   12.1760   12.5270 C.2    94  ASN94       0.2597
     95  O          9.3110   12.6770   11.8290 O.2    94  ASN94      -0.2718
     96  CB         8.7250   12.0520   14.9560 C.3    94  ASN94       0.1169
     97  CG         8.6790   12.7420   16.2620 C.2    94  ASN94       0.2627
     98  OD1        8.4230   13.9520   16.3730 O.2    94  ASN94      -0.2716
     99  ND2        8.9490   11.9600   17.2890 N.am   94  ASN94      -0.0877
    100  N          7.7270   11.0870   12.1600 N.am   95  CYS95      -0.1970
    101  CA         8.0220   10.3700   10.9190 C.3    95  CYS95       0.1712
    102  C          7.7280   11.2500    9.7140 C.2    95  CYS95       0.2296
    103  O          8.5340   11.3150    8.7840 O.2    95  CYS95      -0.2864
    104  CB         7.2070    9.0850   10.8640 C.3    95  CYS95       0.0983
    105  SG         7.5770    8.0610    9.4570 S.3    95  CYS95      -0.0798
    106  N         10.5080   14.1950    9.5910 N.3    98  TYR98      -0.1227
    107  CA        11.8800   13.8480    9.2740 C.3    98  TYR98       0.1736
    108  C         12.0020   13.3260    7.8450 C.2    98  TYR98       0.2595
    109  O         12.9590   13.6780    7.1350 O.2    98  TYR98      -0.2718
    110  CB        12.4170   12.8310   10.2940 C.3    98  TYR98       0.0548
    111  CG        13.8390   12.4860    9.9950 C.ar   98  TYR98      -0.0200
    112  CD1       14.8660   13.3540   10.3260 C.ar   98  TYR98      -0.0009
    113  CD2       14.1580   11.3220    9.3180 C.ar   98  TYR98      -0.0009
    114  CE1       16.1860   13.0590   10.0020 C.ar   98  TYR98       0.0417
    115  CE2       15.4580   11.0270    9.0000 C.ar   98  TYR98       0.0417
    116  CZ        16.4700   11.8840    9.3520 C.ar   98  TYR98       0.1957
    117  OH        17.7650   11.5390    8.9960 O.3    98  TYR98      -0.2866
    118  N         11.0350   12.5290    7.3830 N.am   99  ASN99      -0.1974
    119  CA        11.1540   11.8620    6.0880 C.3    99  ASN99       0.1688
    120  C         10.4300   12.6390    4.9820 C.2    99  ASN99       0.2292
    121  O          9.6470   13.5570    5.2190 O.2    99  ASN99      -0.2864
    122  CB        10.6270   10.4240    6.1980 C.3    99  ASN99       0.1181
    123  CG        11.3590    9.6270    7.2660 C.2    99  ASN99       0.2629
    124  OD1       12.4810    9.1800    7.0540 O.2    99  ASN99      -0.2716
    125  ND2       10.7460    9.5020    8.4380 N.am   99  ASN99      -0.0877
    126  N          8.8620    5.3190    1.5590 N.3   104  ASP104     -0.1225
    127  CA         8.2130    4.1050    2.0200 C.3   104  ASP104      0.1805
    128  C          7.8720    4.1750    3.4990 C.2   104  ASP104      0.2597
    129  O          6.8280    3.6620    3.9160 O.2   104  ASP104     -0.2718
    130  CB         9.1130    2.9170    1.7760 C.3   104  ASP104      0.1424
    131  CG         9.0860    2.4470    0.3520 C.2   104  ASP104      0.3668
    132  OD1        8.2260    2.8990   -0.4430 O.co2 104  ASP104     -0.2456
    133  OD2        9.9530    1.6240    0.0400 O.co2 104  ASP104     -0.2456
    134  N          8.7770    4.7210    4.3240 N.am  105  ILE105     -0.1980
    135  CA         8.5060    4.7390    5.7670 C.3   105  ILE105      0.1595
    136  C          7.2990    5.6010    6.0600 C.2   105  ILE105      0.2287
    137  O          6.5380    5.3170    6.9910 O.2   105  ILE105     -0.2864
    138  CB         9.7630    5.1940    6.5550 C.3   105  ILE105      0.0276
    139  CG1        9.6020    5.0200    8.0900 C.3   105  ILE105      0.0022
    140  CG2       10.1300    6.6410    6.2180 C.3   105  ILE105      0.0022
    141  CD1        9.6140    3.5820    8.5360 C.3   105  ILE105      0.0001
    142  N          4.2280    3.4820    5.2680 N.3   108  MET108     -0.1245
    143  CA         4.0090    2.5790    6.3830 C.3   108  MET108      0.1570
    144  C          3.3470    3.3000    7.5450 C.2   108  MET108      0.2261
    145  O          2.4050    2.7900    8.1540 O.2   108  MET108     -0.2867
    146  CB         5.3410    1.9940    6.8190 C.3   108  MET108      0.0387
    147  CG         5.9340    1.0590    5.7490 C.3   108  MET108      0.0595
    148  SD         7.6640    0.6240    6.0620 S.3   108  MET108     -0.1393
    149  CE         7.4910   -0.6520    7.2890 C.3   108  MET108      0.0692
@<TRIPOS>BOND
     1   132   131   ar
     2   133   131   ar
     3   131   130    1
     4   126   127    1
     5   130   127    1
     6   127   128    1
     7   128   129    2
     8   128   134   am
     9   134   135    1
    10   120   121    2
    11   120   119    1
    12   142   143    1
    13   147   148    1
    14   147   146    1
    15   135   136    1
    16   135   138    1
    17   136   137    2
    18   148   149    1
    19   119   122    1
    20   119   118    1
    21   122   123    1
    22   140   138    1
    23   143   146    1
    24   143   144    1
    25   138   139    1
    26   124   123    2
    27   109   108    2
    28   123   125   am
    29   118   108   am
    30   144   145    2
    31   108   107    1
    32    12    14   ar
    33    12    10   ar
    34   139   141    1
    35    71    69    1
    36    14    13   ar
    37     9    10   ar
    38     9     7   ar
    39   103   102    2
    40    10     8   ar
    41   117   116    1
    42   115   113   ar
    43   115   116   ar
    44    59    58    2
    45   107   106    1
    46   107   110    1
    47   113   111   ar
    48   116   114   ar
    49   105   104    1
    50   102   101    1
    51     7     6   ar
    52    13    11   ar
    53   111   110    1
    54   111   112   ar
    55   114   112   ar
    56    69    70    1
    57    69    68    1
    58    20    21    1
    59    20    19    1
    60    58    57    1
    61     8    11   ar
    62     8     6   ar
    63    65    64    1
    64    65    68    1
    65    65    66    1
    66    32    30   ar
    67    32    31   ar
    68     6     5    1
    69    21    15    1
    70   104   101    1
    71    30    28   ar
    72   101   100    1
    73    19    16    1
    74    57    60    1
    75    57    56    1
    76    63    61    1
    77    60    61    1
    78    66    67    2
    79    95    94    2
    80    61    62    1
    81    31    29   ar
    82    28    27   ar
    83    15    16    1
    84    15     3   am
    85   100    94   am
    86    16    17    1
    87     5     2    1
    88     1     2    1
    89    94    93    1
    90    72    73    1
    91    78    80   ar
    92    78    77   ar
    93     2     3    1
    94     3     4    2
    95    29    27   ar
    96    27    26    1
    97    80    82   ar
    98    73    76    1
    99    73    74    1
   100    17    18    2
   101    17    22   am
   102    76    77    1
   103    93    92    1
   104    93    96    1
   105    77    79   ar
   106    22    23    1
   107    54    53    1
   108    87    86    2
   109    26    23    1
   110    82    83    1
   111    82    81   ar
   112    74    75    2
   113    96    97    1
   114    23    24    1
   115    55    53    1
   116    79    81   ar
   117    86    85    1
   118    53    50    1
   119    41    39   am
   120    91    90    1
   121    97    98    2
   122    97    99   am
   123    50    51    1
   124    50    49    1
   125    24    25    2
   126    89    90    1
   127    89    88    1
   128    85    88    1
   129    85    84    1
   130    51    52    2
   131    39    40    2
   132    39    38    1
   133    49    44   am
   134    36    35    2
   135    38    37    1
   136    45    44    2
   137    44    43    1
   138    33    34    1
   139    35    34    1
   140    35    42   am
   141    37    34    1
   142    43    42    1
   143    43    46    1
   144    42    48    1
   145    46    47    1
   146    48    47    1
