@<TRIPOS>MOLECULE
tmp/6dmuA00.pdb
 153 147 0 0 0
SMALL
GASTEIGER

@<TRIPOS>ATOM
      1  N        130.6360  115.9180   93.4770 N.3   270  ARG270     -0.1245
      2  CA       129.9510  114.6470   93.6960 C.3   270  ARG270      0.1563
      3  C        130.2890  113.6220   92.6250 C.2   270  ARG270      0.2260
      4  O        130.4520  112.4360   92.9300 O.2   270  ARG270     -0.2867
      5  CB       128.4460  114.8680   93.7260 C.3   270  ARG270      0.0307
      6  CG       128.0030  115.7370   94.8580 C.3   270  ARG270      0.0489
      7  CD       128.2440  115.0290   96.1630 C.3   270  ARG270      0.2205
      8  NE       127.7320  115.7920   97.2920 N.pl3 270  ARG270     -0.0865
      9  CZ       128.4450  116.6750   97.9780 C.cat 270  ARG270      0.5346
     10  NH1      127.8920  117.3200   98.9930 N.pl3 270  ARG270      0.1354
     11  NH2      129.7090  116.9100   97.6520 N.pl3 270  ARG270      0.1354
     12  N        132.7660  110.6950   92.5920 N.3   273  ARG273     -0.1245
     13  CA       132.4230  109.5080   93.3710 C.3   273  ARG273      0.1563
     14  C        131.8400  108.4060   92.4880 C.2   273  ARG273      0.2260
     15  O        131.9380  107.2180   92.8160 O.2   273  ARG273     -0.2867
     16  CB       131.4520  109.8900   94.4940 C.3   273  ARG273      0.0307
     17  CG       131.2530  108.8110   95.5480 C.3   273  ARG273      0.0489
     18  CD       130.3940  109.2460   96.7360 C.3   273  ARG273      0.2205
     19  NE       128.9760  109.3990   96.4250 N.pl3 273  ARG273     -0.0865
     20  CZ       128.2890  110.5260   96.5750 C.cat 273  ARG273      0.5346
     21  NH1      128.8850  111.6140   97.0440 N.pl3 273  ARG273      0.1354
     22  NH2      126.9990  110.5600   96.2700 N.pl3 273  ARG273      0.1354
     23  N        139.8230  117.3030  108.5900 N.3   384  PHE384     -0.1227
     24  CA       138.4510  117.2440  109.0910 C.3   384  PHE384      0.1736
     25  C        137.4530  117.4250  107.9580 C.2   384  PHE384      0.2596
     26  O        136.3960  118.0320  108.1480 O.2   384  PHE384     -0.2718
     27  CB       138.2260  118.3120  110.1580 C.3   384  PHE384      0.0547
     28  CG       139.0020  118.0950  111.4280 C.ar  384  PHE384     -0.0202
     29  CD1      139.4800  116.8440  111.7770 C.ar  384  PHE384     -0.0042
     30  CD2      139.2750  119.1660  112.2640 C.ar  384  PHE384     -0.0042
     31  CE1      140.1960  116.6650  112.9480 C.ar  384  PHE384     -0.0003
     32  CE2      139.9940  118.9910  113.4310 C.ar  384  PHE384     -0.0003
     33  CZ       140.4550  117.7410  113.7710 C.ar  384  PHE384     -0.0000
     34  N        137.7850  116.9160  106.7690 N.am  385  GLY385     -0.1942
     35  CA       137.1210  117.2850  105.5310 C.3   385  GLY385      0.2014
     36  C        135.6540  116.9380  105.3960 C.2   385  GLY385      0.2639
     37  O        134.8070  117.8350  105.4000 O.2   385  GLY385     -0.2714
     38  N        135.3320  115.6540  105.2940 N.am  386  GLN386     -0.1963
     39  CA       133.9410  115.2430  105.1780 C.3   386  GLN386      0.1733
     40  C        133.8070  113.8160  105.6860 C.2   386  GLN386      0.2617
     41  O        134.7700  113.2050  106.1550 O.2   386  GLN386     -0.2715
     42  CB       133.4220  115.3870  103.7430 C.3   386  GLN386      0.0408
     43  CG       134.0990  114.5120  102.7140 C.3   386  GLN386      0.0908
     44  CD       133.5340  114.7340  101.3260 C.2   386  GLN386      0.2608
     45  OE1      132.5840  115.4960  101.1470 O.2   386  GLN386     -0.2717
     46  NE2      134.1160  114.0720  100.3350 N.am  386  GLN386     -0.0878
     47  N        132.5910  113.2870  105.5690 N.am  387  THR387     -0.1951
     48  CA       132.1960  112.1180  106.3400 C.3   387  THR387      0.1897
     49  C        132.7980  110.8330  105.7940 C.2   387  THR387      0.2313
     50  O        132.9960  109.8780  106.5520 O.2   387  THR387     -0.2863
     51  CB       130.6780  112.0280  106.3580 C.3   387  THR387      0.1794
     52  OG1      130.2100  111.7330  105.0380 O.3   387  THR387     -0.2208
     53  CG2      130.1130  113.3690  106.7630 C.3   387  THR387      0.0378
     54  N        134.8340  113.0980  112.1130 N.3   392  PRO392     -0.2116
     55  CA       134.2680  112.9960  113.4680 C.3   392  PRO392      0.1372
     56  C        134.6360  111.7340  114.2290 C.2   392  PRO392      0.2244
     57  O        134.4090  111.6880  115.4410 O.2   392  PRO392     -0.2868
     58  CB       132.7590  113.0800  113.2220 C.3   392  PRO392      0.0268
     59  CG       132.6440  113.8680  111.9930 C.3   392  PRO392      0.0207
     60  CD       133.7860  113.4450  111.1360 C.3   392  PRO392      0.0892
     61  N        138.3340  113.1890  115.5890 N.3   395  VAL395     -0.1245
     62  CA       138.4530  114.1980  116.6440 C.3   395  VAL395      0.1561
     63  C        138.2930  113.5680  118.0370 C.2   395  VAL395      0.2260
     64  O        138.9710  113.9720  119.0040 O.2   395  VAL395     -0.2867
     65  CB       137.4620  115.3560  116.3810 C.3   395  VAL395      0.0252
     66  CG1      136.0150  114.8910  116.3780 C.3   395  VAL395      0.0019
     67  CG2      137.6560  116.4790  117.3790 C.3   395  VAL395      0.0019
     68  N        125.4140  109.2810  111.5720 N.3   451  GLN451     -0.1231
     69  CA       126.2640  110.4680  111.5200 C.3   451  GLN451      0.1698
     70  C        125.5580  111.6220  110.8130 C.2   451  GLN451      0.2592
     71  O        125.5450  112.7570  111.3160 O.2   451  GLN451     -0.2718
     72  CB       127.5840  110.1220  110.8330 C.3   451  GLN451      0.0381
     73  CG       128.6610  111.1870  110.9010 C.3   451  GLN451      0.0905
     74  CD       128.5460  112.1880  109.7780 C.2   451  GLN451      0.2608
     75  OE1      127.9970  111.8790  108.7260 O.2   451  GLN451     -0.2717
     76  NE2      129.0350  113.3980  110.0020 N.am  451  GLN451     -0.0878
     77  N        124.9700  111.3480  109.6420 N.am  452  LYS452     -0.1980
     78  CA       124.2450  112.3840  108.9100 C.3   452  LYS452      0.1596
     79  C        123.0290  112.8660  109.6880 C.2   452  LYS452      0.2287
     80  O        122.7020  114.0590  109.6650 O.2   452  LYS452     -0.2864
     81  CB       123.8190  111.8590  107.5430 C.3   452  LYS452      0.0298
     82  CG       123.2120  112.9080  106.6400 C.3   452  LYS452      0.0038
     83  CD       122.8280  112.3060  105.3120 C.3   452  LYS452      0.0206
     84  CE       124.0630  111.8780  104.5470 C.3   452  LYS452      0.1093
     85  NZ       124.9220  113.0320  104.1790 N.3   452  LYS452     -0.1314
     86  N        124.3740  115.1880  112.7140 N.3   455  PHE455     -0.1227
     87  CA       124.9980  116.4640  112.3770 C.3   455  PHE455      0.1736
     88  C        124.2050  117.3050  111.3900 C.2   455  PHE455      0.2596
     89  O        124.5070  118.4920  111.2370 O.2   455  PHE455     -0.2718
     90  CB       126.4130  116.2610  111.8340 C.3   455  PHE455      0.0547
     91  CG       127.4240  115.9780  112.8950 C.ar  455  PHE455     -0.0202
     92  CD1      127.9130  117.0040  113.6820 C.ar  455  PHE455     -0.0042
     93  CD2      127.8900  114.6960  113.1070 C.ar  455  PHE455     -0.0042
     94  CE1      128.8430  116.7560  114.6650 C.ar  455  PHE455     -0.0003
     95  CE2      128.8240  114.4410  114.0900 C.ar  455  PHE455     -0.0003
     96  CZ       129.3010  115.4730  114.8690 C.ar  455  PHE455     -0.0000
     97  N        123.2070  116.7440  110.7210 N.am  456  GLY456     -0.1957
     98  CA       122.5170  117.5260  109.7200 C.3   456  GLY456      0.1869
     99  C        121.1290  117.9760  110.1100 C.2   456  GLY456      0.2309
    100  O        120.6520  119.0060  109.6300 O.2   456  GLY456     -0.2863
    101  N        120.5260  119.7040  114.6900 N.3   459  MET459     -0.1230
    102  CA       121.1090  121.0090  114.9640 C.3   459  MET459      0.1702
    103  C        120.3120  122.1260  114.3070 C.2   459  MET459      0.2592
    104  O        120.2790  123.2480  114.8220 O.2   459  MET459     -0.2718
    105  CB       122.5620  121.0270  114.4950 C.3   459  MET459      0.0401
    106  CG       123.3460  122.2450  114.9220 C.3   459  MET459      0.0596
    107  SD       123.5030  122.3340  116.7120 S.3   459  MET459     -0.1393
    108  CE       123.7630  124.0910  116.9440 C.3   459  MET459      0.0692
    109  N        119.6360  121.8410  113.2010 N.am  460  ARG460     -0.1980
    110  CA       118.7830  122.8400  112.5770 C.3   460  ARG460      0.1597
    111  C        117.3610  122.8070  113.1110 C.2   460  ARG460      0.2287
    112  O        116.5170  123.5650  112.6290 O.2   460  ARG460     -0.2864
    113  CB       118.7660  122.6630  111.0560 C.3   460  ARG460      0.0334
    114  CG       118.0600  121.4140  110.5850 C.3   460  ARG460      0.0492
    115  CD       118.1210  121.2660  109.0770 C.3   460  ARG460      0.2205
    116  NE       119.4740  121.0030  108.6040 N.pl3 460  ARG460     -0.0865
    117  CZ       119.8140  120.9330  107.3220 C.cat 460  ARG460      0.5346
    118  NH1      121.0700  120.6890  106.9830 N.pl3 460  ARG460      0.1354
    119  NH2      118.8950  121.0940  106.3820 N.pl3 460  ARG460      0.1354
    120  N        116.3090  124.6930  118.0060 N.3   463  TRP463     -0.1241
    121  CA       115.9570  126.0420  118.4470 C.3   463  TRP463      0.1605
    122  C        114.4880  126.1540  118.8420 C.2   463  TRP463      0.2264
    123  O        114.1540  126.7650  119.8730 O.2   463  TRP463     -0.2867
    124  CB       116.2660  127.0340  117.3340 C.3   463  TRP463      0.0550
    125  CG       117.7020  127.1160  116.9980 C.ar  463  TRP463      0.0003
    126  CD1      118.3410  126.4670  115.9900 C.ar  463  TRP463      0.0946
    127  CD2      118.6920  127.9020  117.6630 C.ar  463  TRP463      0.0152
    128  NE1      119.6730  126.7960  115.9840 N.ar  463  TRP463     -0.2442
    129  CE2      119.9140  127.6770  117.0040 C.ar  463  TRP463      0.0810
    130  CE3      118.6630  128.7740  118.7530 C.ar  463  TRP463      0.0012
    131  CZ2      121.0970  128.2900  117.3990 C.ar  463  TRP463      0.0191
    132  CZ3      119.8380  129.3820  119.1440 C.ar  463  TRP463      0.0001
    133  CH2      121.0390  129.1380  118.4680 C.ar  463  TRP463      0.0015
    134  N        116.1900  108.4810  102.0780 N.3   552  ARG552     -0.1245
    135  CA       117.0660  108.9690  101.0170 C.3   552  ARG552      0.1563
    136  C        118.4030  108.2400  101.0080 C.2   552  ARG552      0.2260
    137  O        118.9430  107.9330   99.9410 O.2   552  ARG552     -0.2867
    138  CB       117.2810  110.4670  101.1720 C.3   552  ARG552      0.0307
    139  CG       118.0140  111.1020  100.0230 C.3   552  ARG552      0.0489
    140  CD       118.1540  112.5850  100.2590 C.3   552  ARG552      0.2205
    141  NE       119.0790  112.8700  101.3470 N.pl3 552  ARG552     -0.0865
    142  CZ       119.1960  114.0560  101.9320 C.cat 552  ARG552      0.5346
    143  NH1      120.0700  114.2330  102.9110 N.pl3 552  ARG552      0.1354
    144  NH2      118.4260  115.0620  101.5470 N.pl3 552  ARG552      0.1354
    145  N        121.0510  104.1520   98.0450 N.3   556  GLU556     -0.1245
    146  CA       122.3530  104.0670   97.3930 C.3   556  GLU556      0.1567
    147  C        123.4490  103.5160   98.3070 C.2   556  GLU556      0.2260
    148  O        124.6040  103.9500   98.2580 O.2   556  GLU556     -0.2867
    149  CB       122.7340  105.4320   96.8300 C.3   556  GLU556      0.0388
    150  CG       122.7110  106.5550   97.8430 C.3   556  GLU556      0.1160
    151  CD       122.9580  107.9010   97.2040 C.2   556  GLU556      0.3649
    152  OE1      123.1480  107.9420   95.9730 O.co2 556  GLU556     -0.2457
    153  OE2      122.9480  108.9190   97.9250 O.co2 556  GLU556     -0.2457
@<TRIPOS>BOND
     1    14    15    2
     2    14    13    1
     3    12    13    1
     4     3     4    2
     5     3     2    1
     6    13    16    1
     7     1     2    1
     8     2     5    1
     9     5     6    1
    10    16    17    1
    11     6     7    1
    12    17    18    1
    13   152   151   ar
    14     7     8    1
    15    22    20    1
    16    19    20    2
    17    19    18    1
    18    20    21    1
    19   149   146    1
    20   149   150    1
    21   151   150    1
    22   151   153   ar
    23     8     9    2
    24   146   145    1
    25   146   147    1
    26    11     9    1
    27     9    10    1
    28   148   147    2
    29   137   136    2
    30   139   140    1
    31   139   138    1
    32   140   141    1
    33    46    44   am
    34   136   135    1
    35   135   138    1
    36   135   134    1
    37    45    44    2
    38    44    43    1
    39   141   142    2
    40   144   142    1
    41   142   143    1
    42    43    42    1
    43    42    39    1
    44    85    84    1
    45    84    83    1
    46    52    51    1
    47    39    38    1
    48    39    40    1
    49    38    36   am
    50    83    82    1
    51    36    37    2
    52    36    35    1
    53    35    34    1
    54    47    40   am
    55    47    48    1
    56    40    41    2
    57    49    48    1
    58    49    50    2
    59    48    51    1
    60    51    53    1
    61   119   117    1
    62    82    81    1
    63    34    25   am
    64   118   117    1
    65   117   116    2
    66    81    78    1
    67    25    26    2
    68    25    24    1
    69    23    24    1
    70   116   115    1
    71    75    74    2
    72    78    77    1
    73    78    79    1
    74   115   114    1
    75    24    27    1
    76   100    99    2
    77    77    70   am
    78    80    79    2
    79    98    99    1
    80    98    97    1
    81    74    76   am
    82    74    73    1
    83    27    28    1
    84   114   113    1
    85    97    88   am
    86    70    71    2
    87    70    69    1
    88    72    73    1
    89    72    69    1
    90   113   110    1
    91    60    59    1
    92    60    54    1
    93    89    88    2
    94    88    87    1
    95    28    29   ar
    96    28    30   ar
    97    69    68    1
    98    29    31   ar
    99    90    87    1
   100    90    91    1
   101    59    58    1
   102    54    55    1
   103    30    32   ar
   104    87    86    1
   105   110   111    1
   106   110   109    1
   107   112   111    2
   108    91    93   ar
   109    91    92   ar
   110    31    33   ar
   111    93    95   ar
   112   109   103   am
   113    58    55    1
   114    32    33   ar
   115    55    56    1
   116    92    94   ar
   117    95    96   ar
   118    56    57    2
   119   103   104    2
   120   103   102    1
   121   105   106    1
   122   105   102    1
   123    94    96   ar
   124   101   102    1
   125   106   107    1
   126    61    62    1
   127   128   126   ar
   128   128   129   ar
   129   126   125   ar
   130    66    65    1
   131    65    62    1
   132    65    67    1
   133    62    63    1
   134   107   108    1
   135   125   124    1
   136   125   127   ar
   137   129   131   ar
   138   129   127   ar
   139   124   121    1
   140   131   133   ar
   141   127   130   ar
   142   120   121    1
   143    63    64    2
   144   121   122    1
   145   133   132   ar
   146   130   132   ar
   147   122   123    2
