@<TRIPOS>MOLECULE
tmp/6dnaD01.pdb
 118 113 0 0 0
SMALL
GASTEIGER

@<TRIPOS>ATOM
      1  N       -100.8400  -62.9660   10.8050 N.3   106  PHE106     -0.1227
      2  CA      -101.9870  -62.0710   10.7830 C.3   106  PHE106      0.1736
      3  C       -101.7080  -60.8070   11.6060 C.2   106  PHE106      0.2595
      4  O       -101.9740  -59.7010   11.1360 O.2   106  PHE106     -0.2718
      5  CB      -103.2630  -62.7590   11.2680 C.3   106  PHE106      0.0547
      6  CG      -104.3910  -61.7830   11.4550 C.ar  106  PHE106     -0.0202
      7  CD1     -104.5020  -61.0550   12.6320 C.ar  106  PHE106     -0.0042
      8  CD2     -105.2850  -61.5200   10.4290 C.ar  106  PHE106     -0.0042
      9  CE1     -105.5070  -60.1190   12.7980 C.ar  106  PHE106     -0.0003
     10  CE2     -106.2940  -60.5860   10.6030 C.ar  106  PHE106     -0.0003
     11  CZ      -106.3960  -59.8810   11.7780 C.ar  106  PHE106     -0.0000
     12  N       -101.1860  -60.9730   12.8230 N.am  107  LEU107     -0.1980
     13  CA      -100.9260  -59.8290   13.7190 C.3   107  LEU107      0.1596
     14  C        -99.8450  -58.9220   13.1240 C.2   107  LEU107      0.2287
     15  O        -99.9000  -57.6950   13.2900 O.2   107  LEU107     -0.2864
     16  CB      -100.5160  -60.3560   15.0980 C.3   107  LEU107      0.0297
     17  CG      -101.5890  -61.1830   15.8340 C.3   107  LEU107      0.0022
     18  CD1     -100.9410  -61.9390   16.9660 C.3   107  LEU107      0.0001
     19  CD2     -102.7450  -60.3270   16.3280 C.3   107  LEU107      0.0001
     20  N       -102.5990  -56.2080   12.8620 N.3   111  TYR111     -0.1241
     21  CA      -102.8560  -55.8660   14.2750 C.3   111  TYR111      0.1605
     22  C       -101.9540  -54.7110   14.7250 C.2   111  TYR111      0.2264
     23  O       -100.7940  -54.6260   14.3570 O.2   111  TYR111     -0.2867
     24  CB      -102.6540  -57.0790   15.1900 C.3   111  TYR111      0.0534
     25  CG      -102.6670  -56.7570   16.6650 C.ar  111  TYR111     -0.0201
     26  CD1     -103.8530  -56.5850   17.3620 C.ar  111  TYR111     -0.0009
     27  CD2     -101.4820  -56.5880   17.3590 C.ar  111  TYR111     -0.0009
     28  CE1     -103.8620  -56.2890   18.7120 C.ar  111  TYR111      0.0417
     29  CE2     -101.4700  -56.2950   18.7140 C.ar  111  TYR111      0.0417
     30  CZ      -102.6650  -56.1150   19.3930 C.ar  111  TYR111      0.1957
     31  OH      -102.6490  -55.7580   20.7230 O.3   111  TYR111     -0.2866
     32  N       -102.5120  -58.0590   24.3290 N.3   206  PHE206     -0.1241
     33  CA      -103.2170  -59.0260   23.5030 C.3   206  PHE206      0.1605
     34  C       -102.8270  -60.4150   23.9810 C.2   206  PHE206      0.2264
     35  O       -101.6530  -60.7710   23.9580 O.2   206  PHE206     -0.2867
     36  CB      -102.8700  -58.8320   22.0310 C.3   206  PHE206      0.0534
     37  CG      -103.5520  -59.7760   21.0810 C.ar  206  PHE206     -0.0203
     38  CD1     -103.0670  -61.0610   20.9020 C.ar  206  PHE206     -0.0042
     39  CD2     -104.6100  -59.3440   20.3020 C.ar  206  PHE206     -0.0042
     40  CE1     -103.6630  -61.9210   19.9960 C.ar  206  PHE206     -0.0003
     41  CE2     -105.2000  -60.1990   19.3870 C.ar  206  PHE206     -0.0003
     42  CZ      -104.7270  -61.4810   19.2440 C.ar  206  PHE206     -0.0000
     43  N       -110.4020  -59.7270   23.7640 N.3   237  GLU237     -0.1245
     44  CA      -110.2420  -60.2180   22.3860 C.3   237  GLU237      0.1567
     45  C       -108.9390  -61.0050   22.3410 C.2   237  GLU237      0.2260
     46  O       -108.0100  -60.6080   23.0350 O.2   237  GLU237     -0.2867
     47  CB      -110.2140  -59.0660   21.3760 C.3   237  GLU237      0.0388
     48  CG      -111.5290  -58.3020   21.2940 C.3   237  GLU237      0.1160
     49  CD      -111.3850  -56.8560   20.8590 C.2   237  GLU237      0.3649
     50  OE1     -110.6400  -56.1160   21.5290 O.co2 237  GLU237     -0.2457
     51  OE2     -112.0870  -56.4660   19.9020 O.co2 237  GLU237     -0.2457
     52  N       -106.5510  -64.6390   20.2470 N.3   239  PHE239     -0.1241
     53  CA      -106.4240  -65.9040   19.5680 C.3   239  PHE239      0.1605
     54  C       -106.0850  -66.9810   20.6030 C.2   239  PHE239      0.2264
     55  O       -105.5960  -66.7190   21.7220 O.2   239  PHE239     -0.2867
     56  CB      -105.3310  -65.8860   18.4970 C.3   239  PHE239      0.0534
     57  CG      -105.5190  -64.8880   17.3790 C.ar  239  PHE239     -0.0203
     58  CD1     -106.6940  -64.2060   17.1800 C.ar  239  PHE239     -0.0042
     59  CD2     -104.4620  -64.5940   16.5370 C.ar  239  PHE239     -0.0042
     60  CE1     -106.8320  -63.2640   16.1800 C.ar  239  PHE239     -0.0003
     61  CE2     -104.5900  -63.6740   15.5080 C.ar  239  PHE239     -0.0003
     62  CZ      -105.7880  -63.0260   15.3220 C.ar  239  PHE239     -0.0000
     63  N       -110.4080  -67.6940   17.2190 N.3   260  VAL260     -0.1245
     64  CA      -110.3890  -66.2500   17.2820 C.3   260  VAL260      0.1561
     65  C       -111.6370  -65.8050   18.0500 C.2   260  VAL260      0.2260
     66  O       -112.7440  -66.2130   17.6750 O.2   260  VAL260     -0.2867
     67  CB      -110.3920  -65.6270   15.8700 C.3   260  VAL260      0.0252
     68  CG1     -110.2500  -64.1130   15.9450 C.3   260  VAL260      0.0019
     69  CG2     -109.3500  -66.2610   14.9440 C.3   260  VAL260      0.0019
     70  N       -115.1730  -58.9260   19.4810 N.3   263  LYS263     -0.1231
     71  CA      -116.2150  -58.1080   20.1080 C.3   263  LYS263      0.1693
     72  C       -117.5470  -58.2750   19.3720 C.2   263  LYS263      0.2591
     73  O       -118.5900  -58.2440   20.0150 O.2   263  LYS263     -0.2718
     74  CB      -115.8110  -56.6290   20.1260 C.3   263  LYS263      0.0285
     75  CG      -114.9520  -56.2240   21.3240 C.3   263  LYS263      0.0035
     76  CD      -115.7670  -56.0380   22.5920 C.3   263  LYS263      0.0206
     77  CE      -115.1220  -56.5410   23.8760 C.3   263  LYS263      0.1093
     78  NZ      -116.1820  -56.9580   24.8230 N.3   263  LYS263     -0.1314
     79  N       -117.5170  -58.4190   18.0440 N.am  264  GLU264     -0.1979
     80  CA      -118.7580  -58.5680   17.2480 C.3   264  GLU264      0.1602
     81  C       -118.4830  -59.4340   16.0170 C.2   264  GLU264      0.2287
     82  O       -117.3430  -59.5190   15.5560 O.2   264  GLU264     -0.2864
     83  CB      -119.3400  -57.2020   16.8490 C.3   264  GLU264      0.0415
     84  CG      -118.2900  -56.1900   16.4340 C.3   264  GLU264      0.1163
     85  CD      -118.5320  -54.8070   17.0040 C.2   264  GLU264      0.3649
     86  OE1     -119.2530  -54.0170   16.3580 O.co2 264  GLU264     -0.2457
     87  OE2     -117.9980  -54.5040   18.0990 O.co2 264  GLU264     -0.2457
     88  N       -118.9060  -59.0350   12.8320 N.3   266  GLU266     -0.1231
     89  CA      -118.2240  -58.1560   11.8400 C.3   266  GLU266      0.1699
     90  C       -116.7010  -58.3740   11.8090 C.2   266  GLU266      0.2592
     91  O       -116.0490  -58.4890   10.7630 O.2   266  GLU266     -0.2718
     92  CB      -118.3890  -56.6830   12.2660 C.3   266  GLU266      0.0402
     93  CG      -117.1260  -55.7880   12.2000 C.3   266  GLU266      0.1161
     94  CD      -116.7100  -54.9960   13.4530 C.2   266  GLU266      0.3649
     95  OE1     -116.2000  -55.5980   14.4310 O.co2 266  GLU266     -0.2457
     96  OE2     -116.8570  -53.7550   13.4450 O.co2 266  GLU266     -0.2457
     97  N       -116.1410  -58.3140   13.0180 N.am  267  SER267     -0.1952
     98  CA      -114.6960  -58.4290   13.2320 C.3   267  SER267      0.1924
     99  C       -114.2200  -59.7880   12.7010 C.2   267  SER267      0.2314
    100  O       -113.2690  -59.8580   11.9140 O.2   267  SER267     -0.2863
    101  CB      -114.3040  -58.2660   14.6980 C.3   267  SER267      0.2116
    102  OG      -115.2160  -57.4850   15.4880 O.3   267  SER267     -0.2180
    103  N       -114.2480  -59.9810    8.8150 N.3   270  GLN270     -0.1231
    104  CA      -113.0620  -59.2570    8.3080 C.3   270  GLN270      0.1698
    105  C       -111.7970  -60.1030    8.5750 C.2   270  GLN270      0.2592
    106  O       -111.0270  -60.3860    7.6530 O.2   270  GLN270     -0.2718
    107  CB      -112.8820  -57.8590    8.9170 C.3   270  GLN270      0.0381
    108  CG      -111.9600  -56.9710    8.0520 C.3   270  GLN270      0.0905
    109  CD      -111.0370  -55.9900    8.7530 C.2   270  GLN270      0.2608
    110  OE1     -109.8310  -55.9400    8.5260 O.2   270  GLN270     -0.2717
    111  NE2     -111.6030  -55.1750    9.6250 N.am  270  GLN270     -0.0878
    112  N       -111.6180  -60.5240    9.8320 N.am  271  VAL271     -0.1980
    113  CA      -110.4170  -61.2340   10.2880 C.3   271  VAL271      0.1595
    114  C       -110.2490  -62.5550    9.5110 C.2   271  VAL271      0.2287
    115  O       -109.1610  -62.8430    9.0040 O.2   271  VAL271     -0.2864
    116  CB      -110.4570  -61.4740   11.8140 C.3   271  VAL271      0.0276
    117  CG1     -109.4260  -62.4950   12.2760 C.3   271  VAL271      0.0022
    118  CG2     -110.2930  -60.1830   12.6010 C.3   271  VAL271      0.0022
@<TRIPOS>BOND
     1   106   105    2
     2   108   109    1
     3   108   107    1
     4   104   105    1
     5   104   103    1
     6   104   107    1
     7   110   109    2
     8   105   112   am
     9   109   111   am
    10   115   114    2
    11   114   113    1
    12   112   113    1
    13   113   116    1
    14     8    10   ar
    15     8     6   ar
    16    10    11   ar
    17    91    90    2
    18     2     1    1
    19     2     5    1
    20     2     3    1
    21     4     3    2
    22     5     6    1
    23     6     7   ar
    24     3    12   am
    25    11     9   ar
    26    90    89    1
    27    90    97   am
    28   116   117    1
    29   116   118    1
    30    89    92    1
    31    89    88    1
    32   100    99    2
    33    93    92    1
    34    93    94    1
    35     7     9   ar
    36    99    98    1
    37    12    13    1
    38    20    21    1
    39    97    98    1
    40    14    15    2
    41    14    13    1
    42    98   101    1
    43    96    94   ar
    44    94    95   ar
    45    13    16    1
    46    21    22    1
    47    21    24    1
    48    23    22    2
    49   101   102    1
    50    69    67    1
    51    16    17    1
    52    24    25    1
    53    62    61   ar
    54    62    60   ar
    55    61    59   ar
    56    82    81    2
    57    17    19    1
    58    17    18    1
    59    67    68    1
    60    67    64    1
    61    81    80    1
    62    60    58   ar
    63    86    85   ar
    64    84    83    1
    65    84    85    1
    66    59    57   ar
    67    25    27   ar
    68    25    26   ar
    69    83    80    1
    70    85    87   ar
    71    58    57   ar
    72    63    64    1
    73    80    79    1
    74    64    65    1
    75    27    29   ar
    76    26    28   ar
    77    57    56    1
    78    66    65    2
    79    79    72   am
    80    56    53    1
    81    28    30   ar
    82    29    30   ar
    83    42    41   ar
    84    42    40   ar
    85    72    73    2
    86    72    71    1
    87    41    39   ar
    88    30    31    1
    89    70    71    1
    90    53    52    1
    91    53    54    1
    92    51    49   ar
    93    40    38   ar
    94    71    74    1
    95    74    75    1
    96    39    37   ar
    97    54    55    2
    98    49    48    1
    99    49    50   ar
   100    38    37   ar
   101    37    36    1
   102    48    47    1
   103    75    76    1
   104    47    44    1
   105    36    33    1
   106    45    44    1
   107    45    46    2
   108    44    43    1
   109    76    77    1
   110    33    34    1
   111    33    32    1
   112    77    78    1
   113    35    34    2
