@<TRIPOS>MOLECULE
tmp/6dnaD02.pdb
 131 125 0 0 0
SMALL
GASTEIGER

@<TRIPOS>ATOM
      1  N       -101.5460  -78.3550   12.7470 N.3    95  GLY95      -0.1210
      2  CA      -101.2060  -78.4230   14.1560 C.3    95  GLY95       0.1956
      3  C       -101.1510  -77.0590   14.8120 C.2    95  GLY95       0.2612
      4  O       -101.3430  -76.0360   14.1660 O.2    95  GLY95      -0.2717
      5  N       -100.9290  -77.0570   16.1340 N.am   96  GLY96      -0.1942
      6  CA      -100.6900  -75.8550   16.9220 C.3    96  GLY96       0.2014
      7  C        -99.6040  -74.9720   16.3300 C.2    96  GLY96       0.2638
      8  O        -99.7230  -73.7490   16.3990 O.2    96  GLY96      -0.2714
      9  N        -98.5520  -75.5700   15.7580 N.am   97  ALA97      -0.1977
     10  CA       -97.4810  -74.7750   15.0980 C.3    97  ALA97       0.1597
     11  C        -98.0630  -74.0450   13.8790 C.2    97  ALA97       0.2287
     12  O        -97.7090  -72.9170   13.6170 O.2    97  ALA97      -0.2864
     13  CB       -96.2950  -75.6340   14.7140 C.3    97  ALA97       0.0319
     14  N       -100.3580  -71.1090   15.2210 N.3   100  LEU100     -0.1245
     15  CA       -99.4720  -70.0570   15.7870 C.3   100  LEU100      0.1561
     16  C        -98.9440  -69.1630   14.6700 C.2   100  LEU100      0.2260
     17  O        -99.1180  -67.9380   14.7290 O.2   100  LEU100     -0.2867
     18  CB       -98.2950  -70.6920   16.5300 C.3   100  LEU100      0.0270
     19  CG       -98.6350  -71.1930   17.9510 C.3   100  LEU100      0.0019
     20  CD1      -97.5330  -72.0860   18.4980 C.3   100  LEU100      0.0001
     21  CD2      -98.9270  -70.0360   18.9030 C.3   100  LEU100      0.0001
     22  N        -91.7600  -72.8120   25.0430 N.3   128  TRP128     -0.1241
     23  CA       -91.4950  -73.7520   23.9680 C.3   128  TRP128      0.1605
     24  C        -90.4410  -73.1480   23.0180 C.2   128  TRP128      0.2264
     25  O        -90.5510  -71.9900   22.5920 O.2   128  TRP128     -0.2867
     26  CB       -92.7780  -74.1300   23.2150 C.3   128  TRP128      0.0550
     27  CG       -92.5730  -75.1770   22.1620 C.ar  128  TRP128      0.0003
     28  CD1      -91.9050  -76.3570   22.3080 C.ar  128  TRP128      0.0946
     29  CD2      -93.0560  -75.1590   20.8010 C.ar  128  TRP128      0.0152
     30  NE1      -91.9640  -77.0830   21.1430 N.ar  128  TRP128     -0.2442
     31  CE2      -92.6110  -76.3440   20.1900 C.ar  128  TRP128      0.0810
     32  CE3      -93.7770  -74.2330   20.0490 C.ar  128  TRP128      0.0012
     33  CZ2      -92.9280  -76.6570   18.8770 C.ar  128  TRP128      0.0191
     34  CZ3      -94.0980  -74.5380   18.7510 C.ar  128  TRP128      0.0001
     35  CH2      -93.6860  -75.7420   18.1790 C.ar  128  TRP128      0.0015
     36  N        -91.4800  -70.9540   19.8410 N.3   131  HIS131     -0.1241
     37  CA       -92.3880  -69.7770   19.8660 C.3   131  HIS131      0.1621
     38  C        -91.6880  -68.5570   19.2270 C.2   131  HIS131      0.2264
     39  O        -92.1880  -67.9510   18.2940 O.2   131  HIS131     -0.2867
     40  CB       -92.8380  -69.4660   21.3100 C.3   131  HIS131      0.0745
     41  CG       -94.0370  -70.2250   21.7780 C.ar  131  HIS131      0.0817
     42  ND1      -94.3350  -70.4360   23.1170 N.ar  131  HIS131     -0.2268
     43  CD2      -95.0120  -70.8430   21.0940 C.ar  131  HIS131      0.1154
     44  CE1      -95.4640  -71.1110   23.2210 C.ar  131  HIS131      0.1986
     45  NE2      -95.8770  -71.4140   22.0020 N.ar  131  HIS131     -0.2212
     46  N        -99.4200  -70.0250   27.8130 N.3   177  HIS177     -0.1241
     47  CA       -99.7660  -71.4350   27.8220 C.3   177  HIS177      0.1621
     48  C       -101.1060  -71.5910   28.5330 C.2   177  HIS177      0.2264
     49  O       -101.2030  -71.2660   29.7200 O.2   177  HIS177     -0.2867
     50  CB       -98.6750  -72.2500   28.5030 C.3   177  HIS177      0.0745
     51  CG       -97.3740  -72.1970   27.7880 C.ar  177  HIS177      0.0817
     52  ND1      -96.8300  -73.2900   27.1540 N.ar  177  HIS177     -0.2268
     53  CD2      -96.4940  -71.1870   27.6420 C.ar  177  HIS177      0.1154
     54  CE1      -95.6640  -72.9350   26.6330 C.ar  177  HIS177      0.1986
     55  NE2      -95.4460  -71.6490   26.9190 N.ar  177  HIS177     -0.2212
     56  N        -95.2230  -75.7710   28.9830 N.3   182  ASN182     -0.1240
     57  CA       -94.1140  -76.5090   28.4110 C.3   182  ASN182      0.1653
     58  C        -92.9650  -75.5160   28.2860 C.2   182  ASN182      0.2266
     59  O        -93.0710  -74.5500   27.5250 O.2   182  ASN182     -0.2867
     60  CB       -94.4880  -77.1110   27.0630 C.3   182  ASN182      0.1155
     61  CG       -93.3290  -77.7660   26.3380 C.2   182  ASN182      0.2627
     62  OD1      -92.1610  -77.5360   26.6370 O.2   182  ASN182     -0.2716
     63  ND2      -93.6570  -78.6650   25.4190 N.am  182  ASN182     -0.0877
     64  N       -101.7000  -70.4450   23.6380 N.3   210  ASP210     -0.1239
     65  CA      -101.2460  -71.6980   23.0800 C.3   210  ASP210      0.1674
     66  C       -101.8250  -72.8320   23.9370 C.2   210  ASP210      0.2266
     67  O       -101.5490  -72.9060   25.1430 O.2   210  ASP210     -0.2867
     68  CB       -99.7180  -71.7520   22.9890 C.3   210  ASP210      0.1410
     69  CG       -99.2370  -73.0050   22.2760 C.2   210  ASP210      0.3668
     70  OD1      -99.8850  -74.0800   22.4540 O.co2 210  ASP210     -0.2456
     71  OD2      -98.2080  -72.9150   21.5590 O.co2 210  ASP210     -0.2456
     72  N       -102.2050  -76.5370   23.3870 N.3   212  ALA212     -0.1231
     73  CA      -101.8400  -77.8070   22.7230 C.3   212  ALA212      0.1694
     74  C       -102.1900  -79.0540   23.5600 C.2   212  ALA212      0.2592
     75  O       -102.1700  -80.1610   23.0540 O.2   212  ALA212     -0.2718
     76  CB      -100.3780  -77.7540   22.3950 C.3   212  ALA212      0.0304
     77  N       -102.4820  -78.8710   24.8500 N.am  213  TYR213     -0.1976
     78  CA      -102.6120  -79.9750   25.8100 C.3   213  TYR213      0.1639
     79  C       -103.8950  -79.8270   26.6390 C.2   213  TYR213      0.2290
     80  O       -103.9280  -80.2240   27.7830 O.2   213  TYR213     -0.2864
     81  CB      -101.3970  -80.0560   26.7510 C.3   213  TYR213      0.0560
     82  CG      -100.0690  -80.0110   26.0340 C.ar  213  TYR213     -0.0198
     83  CD1      -99.5800  -81.1260   25.3650 C.ar  213  TYR213     -0.0009
     84  CD2      -99.3180  -78.8350   25.9890 C.ar  213  TYR213     -0.0009
     85  CE1      -98.4160  -81.0540   24.6190 C.ar  213  TYR213      0.0417
     86  CE2      -98.2080  -78.7370   25.1730 C.ar  213  TYR213      0.0417
     87  CZ       -97.7270  -79.8650   24.5310 C.ar  213  TYR213      0.1957
     88  OH       -96.5700  -79.8310   23.8110 O.3   213  TYR213     -0.2866
     89  N       -104.0860  -77.4740   19.4680 N.3   243  SER243     -0.1217
     90  CA      -103.5030  -78.6620   18.7880 C.3   243  SER243      0.1889
     91  C       -104.1430  -79.9640   19.2740 C.2   243  SER243      0.2288
     92  O       -104.4140  -80.1040   20.4580 O.2   243  SER243     -0.2866
     93  CB      -102.0540  -78.7910   19.0290 C.3   243  SER243      0.2089
     94  OG      -101.6420  -80.0540   18.5320 O.3   243  SER243     -0.2183
     95  N       -102.6010  -82.9770   18.4110 N.3   245  SER245     -0.1202
     96  CA      -101.5240  -83.9070   18.2530 C.3   245  SER245      0.2020
     97  C       -101.4010  -84.7870   19.5020 C.2   245  SER245      0.2618
     98  O       -101.2040  -86.0090   19.3870 O.2   245  SER245     -0.2717
     99  CB      -100.2090  -83.1990   18.0030 C.3   245  SER245      0.2103
    100  OG      -100.2720  -82.3730   16.8680 O.3   245  SER245     -0.2182
    101  N       -101.5010  -84.1780   20.6930 N.am  246  LYS246     -0.1979
    102  CA      -101.3310  -84.9100   21.9450 C.3   246  LYS246      0.1596
    103  C       -102.6600  -85.4840   22.4340 C.2   246  LYS246      0.2287
    104  O       -102.7030  -86.6620   22.7910 O.2   246  LYS246     -0.2864
    105  CB      -100.6870  -84.0240   23.0130 C.3   246  LYS246      0.0298
    106  CG       -99.1740  -84.0720   23.0090 C.3   246  LYS246      0.0038
    107  CD       -98.5520  -83.2730   21.8860 C.3   246  LYS246      0.0206
    108  CE       -97.0370  -83.3340   21.9500 C.3   246  LYS246      0.1093
    109  NZ       -96.4070  -82.1240   21.3740 N.3   246  LYS246     -0.1314
    110  N       -101.2600  -83.6710   11.5120 N.3   254  ARG254     -0.1245
    111  CA      -101.1460  -82.2030   11.5100 C.3   254  ARG254      0.1563
    112  C       -102.4990  -81.5360   11.7430 C.2   254  ARG254      0.2260
    113  O       -102.9080  -80.7520   10.9290 O.2   254  ARG254     -0.2867
    114  CB      -100.4500  -81.7280   10.2260 C.3   254  ARG254      0.0307
    115  CG       -99.1510  -82.4680    9.9330 C.3   254  ARG254      0.0489
    116  CD       -98.1800  -82.6240   11.1380 C.3   254  ARG254      0.2205
    117  NE       -97.8110  -81.3480   11.7560 N.pl3 254  ARG254     -0.0865
    118  CZ       -98.0870  -80.9790   13.0190 C.cat 254  ARG254      0.5346
    119  NH1      -98.8100  -81.7750   13.8180 N.pl3 254  ARG254      0.1354
    120  NH2      -97.5900  -79.8240   13.4610 N.pl3 254  ARG254      0.1354
    121  N        -94.6500  -82.6530   30.7080 N.3   348  PHE348     -0.1241
    122  CA       -93.2670  -82.3400   30.9770 C.3   348  PHE348      0.1605
    123  C        -93.1010  -81.8820   32.4290 C.2   348  PHE348      0.2264
    124  O        -93.8390  -81.0270   32.9230 O.2   348  PHE348     -0.2867
    125  CB       -92.7820  -81.2630   30.0170 C.3   348  PHE348      0.0534
    126  CG       -92.9110  -81.6480   28.5710 C.ar  348  PHE348     -0.0203
    127  CD1      -91.9800  -82.4980   28.0030 C.ar  348  PHE348     -0.0042
    128  CD2      -93.9380  -81.1590   27.7730 C.ar  348  PHE348     -0.0042
    129  CE1      -92.0480  -82.8300   26.6560 C.ar  348  PHE348     -0.0003
    130  CE2      -94.0420  -81.5440   26.4510 C.ar  348  PHE348     -0.0003
    131  CZ       -93.0900  -82.3610   25.8920 C.ar  348  PHE348     -0.0000
@<TRIPOS>BOND
     1   115   114    1
     2   115   116    1
     3   114   111    1
     4   113   112    2
     5   116   117    1
     6   111   110    1
     7   111   112    1
     8   117   118    2
     9     1     2    1
    10   118   120    1
    11   118   119    1
    12    12    11    2
    13    11    10    1
    14     2     3    1
    15     4     3    2
    16    16    17    2
    17    16    15    1
    18    13    10    1
    19     3     5   am
    20    10     9    1
    21    14    15    1
    22     9     7   am
    23    15    18    1
    24     5     6    1
    25     7     8    2
    26     7     6    1
    27    18    19    1
    28   100    99    1
    29    19    20    1
    30    19    21    1
    31    99    96    1
    32    35    34   ar
    33    35    33   ar
    34    96    95    1
    35    96    97    1
    36    39    38    2
    37    94    93    1
    38    34    32   ar
    39    90    93    1
    40    90    91    1
    41    90    89    1
    42    33    31   ar
    43    38    37    1
    44    91    92    2
    45    98    97    2
    46    97   101   am
    47    36    37    1
    48    37    40    1
    49    32    29   ar
    50    31    29   ar
    51    31    30   ar
    52   101   102    1
    53    29    27   ar
    54    43    41   ar
    55    43    45   ar
    56    30    28   ar
    57    40    41    1
    58   109   108    1
    59    71    69   ar
    60    41    42   ar
    61   107   108    1
    62   107   106    1
    63   102   103    1
    64   102   105    1
    65    45    44   ar
    66    27    28   ar
    67    27    26    1
    68    69    70   ar
    69    69    68    1
    70    76    73    1
    71   103   104    2
    72    25    24    2
    73    73    72    1
    74    73    74    1
    75    68    65    1
    76   106   105    1
    77    24    23    1
    78    75    74    2
    79    65    64    1
    80    65    66    1
    81    42    44   ar
    82    26    23    1
    83    74    77   am
    84    88    87    1
    85    66    67    2
    86    23    22    1
    87    87    85   ar
    88    87    86   ar
    89    85    83   ar
    90    77    78    1
    91    86    84   ar
    92    83    82   ar
    93    63    61   am
    94    78    79    1
    95    78    81    1
    96   131   130   ar
    97   131   129   ar
    98    84    82   ar
    99    82    81    1
   100    61    62    2
   101    61    60    1
   102   130   128   ar
   103    54    55   ar
   104    54    52   ar
   105    79    80    2
   106   129   127   ar
   107    55    53   ar
   108    60    57    1
   109    52    51   ar
   110    59    58    2
   111    53    51   ar
   112   128   126   ar
   113    51    50    1
   114    46    47    1
   115    47    50    1
   116    47    48    1
   117   127   126   ar
   118    58    57    1
   119    57    56    1
   120    48    49    2
   121   126   125    1
   122   125   122    1
   123   121   122    1
   124   122   123    1
   125   123   124    2
