@<TRIPOS>MOLECULE
tmp/6dneA00.pdb
 166 165 0 0 0
SMALL
GASTEIGER

@<TRIPOS>ATOM
      1  N         -8.5980   12.3270  -12.6370 N.3    38  TRP38      -0.1228
      2  CA        -9.4170   13.5300  -12.5180 C.3    38  TRP38       0.1722
      3  C        -10.3870   13.5420  -11.3370 C.2    38  TRP38       0.2437
      4  O        -10.5620   14.6240  -10.7510 O.2    38  TRP38      -0.2733
      5  CB       -10.1430   13.7930  -13.8460 C.3    38  TRP38       0.0563
      6  CG       -11.0480   12.7160  -14.3110 C.ar   38  TRP38       0.0003
      7  CD1      -10.7150   11.6310  -15.0630 C.ar   38  TRP38       0.0946
      8  CD2      -12.4550   12.6270  -14.0750 C.ar   38  TRP38       0.0152
      9  NE1      -11.8280   10.8570  -15.2990 N.ar   38  TRP38      -0.2442
     10  CE2      -12.9100   11.4490  -14.7030 C.ar   38  TRP38       0.0810
     11  CE3      -13.3710   13.4230  -13.3820 C.ar   38  TRP38       0.0012
     12  CZ2      -14.2430   11.0490  -14.6630 C.ar   38  TRP38       0.0191
     13  CZ3      -14.6910   13.0260  -13.3420 C.ar   38  TRP38       0.0001
     14  CH2      -15.1180   11.8480  -13.9790 C.ar   38  TRP38       0.0015
     15  N        -11.0270   12.4400  -10.9170 N.am   39  PRO39      -0.2718
     16  CA       -11.9090   12.5370   -9.7400 C.3    39  PRO39       0.1535
     17  C        -11.1580   12.7140   -8.4340 C.2    39  PRO39       0.2598
     18  O        -11.7980   12.8960   -7.3910 O.2    39  PRO39      -0.2715
     19  CB       -12.6750   11.2050   -9.7520 C.3    39  PRO39       0.0310
     20  CG       -12.4410   10.6230  -11.1050 C.3    39  PRO39       0.0237
     21  CD       -11.0700   11.0800  -11.4780 C.3    39  PRO39       0.0939
     22  N         -9.8290   12.6710   -8.4550 N.am   40  PHE40      -0.1974
     23  CA        -9.0330   12.7040   -7.2410 C.3    40  PHE40       0.1639
     24  C         -8.0950   13.9000   -7.1630 C.2    40  PHE40       0.2290
     25  O         -7.3350   14.0050   -6.1940 O.2    40  PHE40      -0.2864
     26  CB        -8.2240   11.4040   -7.1160 C.3    40  PHE40       0.0560
     27  CG        -9.0650   10.1550   -7.1800 C.ar   40  PHE40      -0.0200
     28  CD1       -9.6880    9.6630   -6.0460 C.ar   40  PHE40      -0.0042
     29  CD2       -9.2290    9.4730   -8.3760 C.ar   40  PHE40      -0.0042
     30  CE1      -10.4620    8.5150   -6.1060 C.ar   40  PHE40      -0.0003
     31  CE2      -10.0020    8.3260   -8.4410 C.ar   40  PHE40      -0.0003
     32  CZ       -10.6160    7.8460   -7.3050 C.ar   40  PHE40      -0.0000
     33  N         -8.7420   16.8930   -6.5060 N.3    42  GLN42      -0.1245
     34  CA        -9.2940   17.9290   -5.6460 C.3    42  GLN42       0.1566
     35  C        -10.2780   17.2730   -4.6900 C.2    42  GLN42       0.2260
     36  O        -10.7340   16.1520   -4.9430 O.2    42  GLN42      -0.2867
     37  CB        -9.9860   19.0280   -6.4700 C.3    42  GLN42       0.0367
     38  CG       -11.3580   18.6440   -6.9910 C.3    42  GLN42       0.0905
     39  CD       -11.3070   17.4890   -7.9710 C.2    42  GLN42       0.2608
     40  OE1      -10.4870   17.4780   -8.8910 O.2    42  GLN42      -0.2717
     41  NE2      -12.1780   16.5030   -7.7730 N.am   42  GLN42      -0.0878
     42  N        -13.6510   16.1290   -2.7980 N.3    44  VAL44      -0.1231
     43  CA       -14.9570   15.7860   -3.3470 C.3    44  VAL44       0.1692
     44  C        -15.9060   16.9520   -3.1180 C.2    44  VAL44       0.2592
     45  O        -16.1150   17.3870   -1.9790 O.2    44  VAL44      -0.2718
     46  CB       -15.4990   14.4990   -2.7150 C.3    44  VAL44       0.0266
     47  CG1      -16.9580   14.3050   -3.0940 C.3    44  VAL44       0.0020
     48  CG2      -14.6730   13.3040   -3.1490 C.3    44  VAL44       0.0020
     49  N        -16.4840   17.4670   -4.2010 N.am   45  ASP45      -0.1974
     50  CA       -17.4640   18.5480   -4.1190 C.3    45  ASP45       0.1709
     51  C        -18.8250   17.9170   -3.8550 C.2    45  ASP45       0.2293
     52  O        -19.5690   17.5840   -4.7790 O.2    45  ASP45      -0.2864
     53  CB       -17.4620   19.3770   -5.3960 C.3    45  ASP45       0.1436
     54  CG       -18.1090   20.7330   -5.2110 C.2    45  ASP45       0.3671
     55  OD1      -18.9410   20.8780   -4.2910 O.co2  45  ASP45      -0.2456
     56  OD2      -17.7850   21.6540   -5.9900 O.co2  45  ASP45      -0.2456
     57  N        -21.7820   17.4610   -6.5560 N.3    49  LEU49      -0.1231
     58  CA       -22.0890   16.0720   -6.8690 C.3    49  LEU49       0.1693
     59  C        -23.3650   15.5710   -6.2100 C.2    49  LEU49       0.2592
     60  O        -23.7430   14.4170   -6.4360 O.2    49  LEU49      -0.2718
     61  CB       -20.9270   15.1650   -6.4620 C.3    49  LEU49       0.0284
     62  CG       -19.6350   15.3120   -7.2590 C.3    49  LEU49       0.0019
     63  CD1      -18.6810   14.1910   -6.8930 C.3    49  LEU49       0.0001
     64  CD2      -19.9260   15.3150   -8.7510 C.3    49  LEU49       0.0001
     65  N        -24.0300   16.4000   -5.4040 N.am   50  ASN50      -0.1960
     66  CA       -25.2430   16.0050   -4.6890 C.3    50  ASN50       0.1819
     67  C        -24.9790   14.7700   -3.8210 C.2    50  ASN50       0.2621
     68  O        -25.5440   13.6910   -4.0190 O.2    50  ASN50      -0.2715
     69  CB       -26.4000   15.7750   -5.6670 C.3    50  ASN50       0.1195
     70  CG       -27.6650   15.3190   -4.9760 C.2    50  ASN50       0.2630
     71  OD1      -28.3130   14.3700   -5.4120 O.2    50  ASN50      -0.2716
     72  ND2      -28.0090   15.9770   -3.8760 N.am   50  ASN50      -0.0877
     73  N        -24.0880   14.9530   -2.8520 N.am   51  LEU51      -0.1964
     74  CA       -23.6780   13.9010   -1.9240 C.3    51  LEU51       0.1713
     75  C        -23.7940   14.4420   -0.5080 C.2    51  LEU51       0.2458
     76  O        -22.7870   14.7570    0.1390 O.2    51  LEU51      -0.2730
     77  CB       -22.2520   13.4340   -2.2170 C.3    51  LEU51       0.0310
     78  CG       -21.9900   12.8770   -3.6130 C.3    51  LEU51       0.0022
     79  CD1      -20.5490   12.4210   -3.7270 C.3    51  LEU51       0.0001
     80  CD2      -22.9430   11.7340   -3.9200 C.3    51  LEU51       0.0001
     81  N        -25.0190   14.5720    0.0030 N.am   52  PRO52      -0.2716
     82  CA       -25.1900   15.1680    1.3360 C.3    52  PRO52       0.1536
     83  C        -24.5780   14.3400    2.4470 C.2    52  PRO52       0.2599
     84  O        -24.1720   14.8960    3.4750 O.2    52  PRO52      -0.2715
     85  CB       -26.7160   15.2600    1.4860 C.3    52  PRO52       0.0310
     86  CG       -27.2620   15.1190    0.0970 C.3    52  PRO52       0.0237
     87  CD       -26.3070   14.2260   -0.6200 C.3    52  PRO52       0.0939
     88  N        -24.4980   13.0230    2.2700 N.am   53  ASP53      -0.1958
     89  CA       -24.0270   12.1250    3.3140 C.3    53  ASP53       0.1840
     90  C        -22.5190   11.9230    3.3000 C.2    53  ASP53       0.2622
     91  O        -21.9910   11.3070    4.2330 O.2    53  ASP53      -0.2715
     92  CB       -24.7140   10.7660    3.1720 C.3    53  ASP53       0.1450
     93  CG       -24.5000   10.1450    1.8000 C.2    53  ASP53       0.3671
     94  OD1      -24.3160   10.8980    0.8170 O.co2  53  ASP53      -0.2456
     95  OD2      -24.5130    8.9010    1.7050 O.co2  53  ASP53      -0.2456
     96  N        -21.8190   12.4250    2.2810 N.am   54  TYR54      -0.1974
     97  CA       -20.4140   12.0750    2.0970 C.3    54  TYR54       0.1639
     98  C        -19.5760   12.4930    3.2980 C.2    54  TYR54       0.2290
     99  O        -18.9350   11.6600    3.9470 O.2    54  TYR54      -0.2864
    100  CB       -19.8700   12.7080    0.8160 C.3    54  TYR54       0.0560
    101  CG       -18.4590   12.2620    0.4990 C.ar   54  TYR54      -0.0198
    102  CD1      -17.3620   12.9800    0.9590 C.ar   54  TYR54      -0.0009
    103  CD2      -18.2250   11.1100   -0.2400 C.ar   54  TYR54      -0.0009
    104  CE1      -16.0730   12.5670    0.6830 C.ar   54  TYR54       0.0417
    105  CE2      -16.9400   10.6910   -0.5220 C.ar   54  TYR54       0.0417
    106  CZ       -15.8690   11.4220   -0.0580 C.ar   54  TYR54       0.1957
    107  OH       -14.5880   11.0050   -0.3380 O.3    54  TYR54      -0.2866
    108  N        -13.0290    6.1490   -1.2140 N.3    93  CYS93      -0.1235
    109  CA       -13.7040    5.8430   -2.4690 C.3    93  CYS93       0.1677
    110  C        -14.3230    4.4540   -2.4300 C.2    93  CYS93       0.2270
    111  O        -15.4780    4.2620   -2.8280 O.2    93  CYS93      -0.2867
    112  CB       -12.7170    5.9520   -3.6300 C.3    93  CYS93       0.0956
    113  SG       -13.4440    5.5630   -5.2340 S.3    93  CYS93      -0.0801
    114  N        -17.3860    4.3230    0.2760 N.3    96  TYR96      -0.1227
    115  CA       -18.5400    5.1870    0.0450 C.3    96  TYR96       0.1736
    116  C        -19.3470    4.7480   -1.1680 C.2    96  TYR96       0.2595
    117  O        -20.5600    4.9820   -1.2210 O.2    96  TYR96      -0.2718
    118  CB       -18.1040    6.6420   -0.1250 C.3    96  TYR96       0.0548
    119  CG       -19.2710    7.5590   -0.4000 C.ar   96  TYR96      -0.0200
    120  CD1      -20.1530    7.9070    0.6120 C.ar   96  TYR96      -0.0009
    121  CD2      -19.5110    8.0510   -1.6760 C.ar   96  TYR96      -0.0009
    122  CE1      -21.2330    8.7300    0.3710 C.ar   96  TYR96       0.0417
    123  CE2      -20.5930    8.8800   -1.9280 C.ar   96  TYR96       0.0417
    124  CZ       -21.4510    9.2160   -0.8980 C.ar   96  TYR96       0.1957
    125  OH       -22.5320   10.0360   -1.1260 O.3    96  TYR96      -0.2866
    126  N        -18.7050    4.1150   -2.1390 N.am   97  ASN97      -0.1960
    127  CA       -19.3560    3.7300   -3.3760 C.3    97  ASN97       0.1819
    128  C        -19.8110    2.2740   -3.2940 C.2    97  ASN97       0.2621
    129  O        -19.6910    1.6160   -2.2560 O.2    97  ASN97      -0.2715
    130  CB       -18.4110    3.9840   -4.5520 C.3    97  ASN97       0.1195
    131  CG       -18.1410    5.4570   -4.7660 C.2    97  ASN97       0.2630
    132  OD1      -18.9010    6.1490   -5.4410 O.2    97  ASN97      -0.2716
    133  ND2      -17.0550    5.9460   -4.1910 N.am   97  ASN97      -0.0877
    134  N        -20.3440    1.7670   -4.3960 N.am   98  LYS98      -0.1977
    135  CA       -20.8740    0.4190   -4.5050 C.3    98  LYS98       0.1596
    136  C        -19.9970   -0.4210   -5.4220 C.2    98  LYS98       0.2287
    137  O        -19.2940    0.1130   -6.2870 O.2    98  LYS98      -0.2864
    138  CB       -22.3070    0.4560   -5.0520 C.3    98  LYS98       0.0298
    139  CG       -23.1380    1.5870   -4.4790 C.3    98  LYS98       0.0038
    140  CD       -24.4560    1.7710   -5.2130 C.3    98  LYS98       0.0206
    141  CE       -24.2400    2.1370   -6.6730 C.3    98  LYS98       0.1093
    142  NZ       -24.1830    0.9490   -7.5730 N.3    98  LYS98      -0.1314
    143  N        -17.9370    2.6550  -11.6850 N.3   102  ASP102     -0.1225
    144  CA       -16.7610    3.0290  -12.4620 C.3   102  ASP102      0.1805
    145  C        -15.6810    3.6250  -11.5730 C.2   102  ASP102      0.2597
    146  O        -14.4920    3.3300  -11.7420 O.2   102  ASP102     -0.2718
    147  CB       -17.1530    4.0160  -13.5580 C.3   102  ASP102      0.1424
    148  CG       -18.0390    3.3910  -14.6130 C.2   102  ASP102      0.3668
    149  OD1      -18.2720    2.1660  -14.5480 O.co2 102  ASP102     -0.2456
    150  OD2      -18.5000    4.1260  -15.5100 O.co2 102  ASP102     -0.2456
    151  N        -16.0810    4.4550  -10.6060 N.am  103  ILE103     -0.1980
    152  CA       -15.1180    5.1150   -9.7310 C.3   103  ILE103      0.1595
    153  C        -14.3430    4.0930   -8.9080 C.2   103  ILE103      0.2287
    154  O        -13.2020    4.3450   -8.5010 O.2   103  ILE103     -0.2864
    155  CB       -15.8500    6.1420   -8.8440 C.3   103  ILE103      0.0276
    156  CG1      -14.8560    7.0110   -8.0700 C.3   103  ILE103      0.0022
    157  CG2      -16.8040    5.4400   -7.8940 C.3   103  ILE103      0.0022
    158  CD1      -13.8370    7.6940   -8.9380 C.3   103  ILE103      0.0001
    159  N        -11.7010    2.5480  -11.4050 N.3   106  MET106     -0.1245
    160  CA       -10.6180    3.5030  -11.6010 C.3   106  MET106      0.1570
    161  C         -9.7080    3.5550  -10.3790 C.2   106  MET106      0.2261
    162  O         -8.4790    3.5610  -10.5080 O.2   106  MET106     -0.2867
    163  CB       -11.1920    4.8840  -11.9100 C.3   106  MET106      0.0387
    164  CG       -12.1280    4.9350  -13.1130 C.3   106  MET106      0.0595
    165  SD       -13.1750    6.4050  -13.1420 S.3   106  MET106     -0.1393
    166  CE       -11.9460    7.7090  -13.2090 C.3   106  MET106      0.0692
@<TRIPOS>BOND
     1   150   148   ar
     2     9     7   ar
     3     9    10   ar
     4     7     6   ar
     5    10    12   ar
     6    10     8   ar
     7    12    14   ar
     8   148   149   ar
     9   148   147    1
    10     6     8   ar
    11     6     5    1
    12     8    11   ar
    13    14    13   ar
    14     5     2    1
    15   147   144    1
    16    11    13   ar
    17   166   165    1
    18   165   164    1
    19   164   163    1
    20     1     2    1
    21     2     3    1
    22   144   143    1
    23   144   145    1
    24   163   160    1
    25   146   145    2
    26   160   159    1
    27   160   161    1
    28   145   151   am
    29    21    20    1
    30    21    15    1
    31     3    15   am
    32     3     4    2
    33    20    19    1
    34    15    16    1
    35   151   152    1
    36   162   161    2
    37    19    16    1
    38    16    17    1
    39   152   153    1
    40   152   155    1
    41   158   156    1
    42   153   154    2
    43    40    39    2
    44   155   156    1
    45   155   157    1
    46    64    62    1
    47    22    17   am
    48    22    23    1
    49    31    29   ar
    50    31    32   ar
    51    17    18    2
    52    29    27   ar
    53    39    41   am
    54    39    38    1
    55   142   141    1
    56    32    30   ar
    57    62    63    1
    58    62    61    1
    59    23    24    1
    60    23    26    1
    61    27    26    1
    62    27    28   ar
    63    24    25    2
    64    38    37    1
    65    58    57    1
    66    58    61    1
    67    58    59    1
    68   141   140    1
    69    33    34    1
    70    37    34    1
    71    60    59    2
    72   137   136    2
    73    59    65   am
    74    30    28   ar
    75    56    54   ar
    76    69    70    1
    77    69    66    1
    78    34    35    1
    79   132   131    2
    80   136   135    1
    81    71    70    2
    82    65    66    1
    83    53    54    1
    84    53    50    1
    85   113   112    1
    86   140   139    1
    87    54    55   ar
    88   138   135    1
    89   138   139    1
    90    70    72   am
    91    36    35    2
    92    52    51    2
    93   131   130    1
    94   131   133   am
    95    66    67    1
    96   130   127    1
    97   135   134    1
    98   134   128   am
    99    49    50    1
   100    49    44   am
   101    50    51    1
   102    68    67    2
   103    80    78    1
   104    67    73   am
   105    79    78    1
   106   112   109    1
   107    78    77    1
   108   127   128    1
   109   127   126    1
   110    43    44    1
   111    43    42    1
   112    43    46    1
   113   128   129    2
   114    48    46    1
   115    44    45    2
   116    47    46    1
   117    73    74    1
   118   111   110    2
   119   109   110    1
   120   109   108    1
   121    77    74    1
   122   126   116   am
   123   123   121   ar
   124   123   124   ar
   125    74    75    1
   126   121   119   ar
   127   117   116    2
   128   116   115    1
   129   125   124    1
   130   124   122   ar
   131    87    81    1
   132    87    86    1
   133   105   103   ar
   134   105   106   ar
   135    75    81   am
   136    75    76    2
   137   119   118    1
   138   119   120   ar
   139   107   106    1
   140   103   101   ar
   141   118   115    1
   142   106   104   ar
   143    81    82    1
   144   115   114    1
   145    86    85    1
   146   122   120   ar
   147   101   100    1
   148   101   102   ar
   149   104   102   ar
   150   100    97    1
   151    94    93   ar
   152    82    85    1
   153    82    83    1
   154    95    93   ar
   155    93    92    1
   156    97    96    1
   157    97    98    1
   158    88    83   am
   159    88    89    1
   160    96    90   am
   161    83    84    2
   162    92    89    1
   163    98    99    2
   164    90    89    1
   165    90    91    2
