@<TRIPOS>MOLECULE
tmp/6dnfC01.pdb
 79 72 0 0 0
SMALL
GASTEIGER

@<TRIPOS>ATOM
      1  N        178.2400  177.3490  207.8280 N.3   143  TYR143     -0.1241
      2  CA       177.1940  176.7450  208.6470 C.3   143  TYR143      0.1605
      3  C        177.7280  175.5330  209.3970 C.2   143  TYR143      0.2264
      4  O        177.3950  175.3140  210.5700 O.2   143  TYR143     -0.2867
      5  CB       176.0120  176.3460  207.7680 C.3   143  TYR143      0.0534
      6  CG       174.8600  175.7510  208.5280 C.ar  143  TYR143     -0.0201
      7  CD1      173.9360  176.5540  209.1690 C.ar  143  TYR143     -0.0009
      8  CD2      174.7110  174.3850  208.6220 C.ar  143  TYR143     -0.0009
      9  CE1      172.8880  176.0070  209.8660 C.ar  143  TYR143      0.0417
     10  CE2      173.6760  173.8280  209.3170 C.ar  143  TYR143      0.0417
     11  CZ       172.7650  174.6410  209.9380 C.ar  143  TYR143      0.1957
     12  OH       171.7290  174.0710  210.6320 O.3   143  TYR143     -0.2866
     13  N        179.8370  176.6510  212.3060 N.3   146  ILE146     -0.1245
     14  CA       179.0000  177.2780  213.3210 C.3   146  ILE146      0.1561
     15  C        178.3080  176.2170  214.1530 C.2   146  ILE146      0.2260
     16  O        178.2580  176.3010  215.3850 O.2   146  ILE146     -0.2867
     17  CB       177.9850  178.2290  212.6640 C.3   146  ILE146      0.0252
     18  CG1      178.7080  179.4490  212.0890 C.3   146  ILE146      0.0019
     19  CG2      176.9280  178.6490  213.6710 C.3   146  ILE146      0.0019
     20  CD1      177.8990  180.2430  211.0940 C.3   146  ILE146      0.0001
     21  N        178.8890  175.6620  218.1510 N.3   150  LEU150     -0.1245
     22  CA       177.7530  175.8450  219.0420 C.3   150  LEU150      0.1561
     23  C        177.3960  174.5560  219.7590 C.2   150  LEU150      0.2260
     24  O        176.9300  174.5920  220.9040 O.2   150  LEU150     -0.2867
     25  CB       176.5510  176.3640  218.2620 C.3   150  LEU150      0.0270
     26  CG       176.6140  177.8050  217.7610 C.3   150  LEU150      0.0019
     27  CD1      175.4340  178.1080  216.8570 C.3   150  LEU150      0.0001
     28  CD2      176.6250  178.7680  218.9270 C.3   150  LEU150      0.0001
     29  N        174.4740  175.4980  225.6960 N.3   156  LEU156     -0.1245
     30  CA       173.1900  175.5710  225.0090 C.3   156  LEU156      0.1561
     31  C        172.7260  174.1830  224.5800 C.2   156  LEU156      0.2260
     32  O        171.7140  173.6720  225.0730 O.2   156  LEU156     -0.2867
     33  CB       173.3090  176.4940  223.7990 C.3   156  LEU156      0.0270
     34  CG       173.7160  177.9370  224.0750 C.3   156  LEU156      0.0019
     35  CD1      173.9610  178.6420  222.7600 C.3   156  LEU156      0.0001
     36  CD2      172.6640  178.6560  224.8880 C.3   156  LEU156      0.0001
     37  N        168.7780  173.0660  222.0970 N.3   160  VAL160     -0.1231
     38  CA       168.4590  174.4040  221.6290 C.3   160  VAL160      0.1692
     39  C        168.7640  174.5670  220.1460 C.2   160  VAL160      0.2591
     40  O        168.1720  175.4430  219.4980 O.2   160  VAL160     -0.2718
     41  CB       169.2330  175.4550  222.4450 C.3   160  VAL160      0.0266
     42  CG1      168.8460  176.8620  222.0070 C.3   160  VAL160      0.0020
     43  CG2      169.0010  175.2320  223.9280 C.3   160  VAL160      0.0020
     44  N        169.6560  173.7510  219.5870 N.am  161  MET161     -0.1979
     45  CA       170.1010  173.9720  218.2160 C.3   161  MET161      0.1605
     46  C        169.2050  173.3210  217.1710 C.2   161  MET161      0.2287
     47  O        169.0790  173.8550  216.0660 O.2   161  MET161     -0.2864
     48  CB       171.5200  173.4480  218.0330 C.3   161  MET161      0.0413
     49  CG       172.5670  174.1970  218.8240 C.3   161  MET161      0.0598
     50  SD       172.6800  175.9470  218.4160 S.3   161  MET161     -0.1393
     51  CE       173.2980  175.8380  216.7430 C.3   161  MET161      0.0692
     52  N        166.6590  175.4540  215.3230 N.3   164  VAL164     -0.1245
     53  CA       167.3560  176.3880  214.4480 C.3   164  VAL164      0.1561
     54  C        167.6390  175.7210  213.1140 C.2   164  VAL164      0.2260
     55  O        167.4880  176.3280  212.0490 O.2   164  VAL164     -0.2867
     56  CB       168.6520  176.8820  215.1170 C.3   164  VAL164      0.0252
     57  CG1      169.3700  177.8670  214.2180 C.3   164  VAL164      0.0019
     58  CG2      168.3640  177.4700  216.4900 C.3   164  VAL164      0.0019
     59  N        164.3660  175.2940  211.0710 N.3   167  LEU167     -0.1231
     60  CA       163.9280  176.5850  210.5640 C.3   167  LEU167      0.1693
     61  C        164.8220  177.0600  209.4290 C.2   167  LEU167      0.2591
     62  O        164.3380  177.6350  208.4490 O.2   167  LEU167     -0.2718
     63  CB       163.9250  177.5800  211.7170 C.3   167  LEU167      0.0284
     64  CG       162.9240  177.2530  212.8320 C.3   167  LEU167      0.0019
     65  CD1      163.2730  177.9740  214.1220 C.3   167  LEU167      0.0001
     66  CD2      161.5210  177.6000  212.4030 C.3   167  LEU167      0.0001
     67  N        166.1260  176.8050  209.5320 N.am  168  VAL168     -0.1980
     68  CA       167.0500  177.2240  208.4850 C.3   168  VAL168      0.1595
     69  C        166.8110  176.4240  207.2140 C.2   168  VAL168      0.2287
     70  O        166.8540  176.9700  206.1040 O.2   168  VAL168     -0.2864
     71  CB       168.5000  177.0970  208.9850 C.3   168  VAL168      0.0276
     72  CG1      169.4720  177.2510  207.8560 C.3   168  VAL168      0.0022
     73  CG2      168.7850  178.1560  210.0180 C.3   168  VAL168      0.0022
     74  N        163.8010  177.8640  205.6160 N.3   171  SER171     -0.1217
     75  CA       164.1350  179.1340  204.9830 C.3   171  SER171      0.1889
     76  C        164.8330  178.9080  203.6520 C.2   171  SER171      0.2288
     77  O        164.5930  179.6340  202.6780 O.2   171  SER171     -0.2866
     78  CB       165.0210  179.9650  205.9080 C.3   171  SER171      0.2089
     79  OG       164.3150  180.3630  207.0690 O.3   171  SER171     -0.2183
@<TRIPOS>BOND
     1    77    76    2
     2    76    75    1
     3    75    74    1
     4    75    78    1
     5    78    79    1
     6    70    69    2
     7    69    68    1
     8     5     6    1
     9     5     2    1
    10     1     2    1
    11    72    71    1
    12    62    61    2
    13    68    71    1
    14    68    67    1
    15     6     8   ar
    16     6     7   ar
    17     8    10   ar
    18     2     3    1
    19    71    73    1
    20     7     9   ar
    21    10    11   ar
    22     3     4    2
    23    61    67   am
    24    61    60    1
    25     9    11   ar
    26    11    12    1
    27    60    59    1
    28    60    63    1
    29    20    18    1
    30    63    64    1
    31    55    54    2
    32    18    17    1
    33    13    14    1
    34    66    64    1
    35    17    14    1
    36    17    19    1
    37    64    65    1
    38    54    53    1
    39    14    15    1
    40    15    16    2
    41    57    56    1
    42    53    56    1
    43    53    52    1
    44    56    58    1
    45    47    46    2
    46    51    50    1
    47    27    26    1
    48    46    45    1
    49    26    25    1
    50    26    28    1
    51    48    45    1
    52    48    49    1
    53    21    22    1
    54    45    44    1
    55    25    22    1
    56    50    49    1
    57    22    23    1
    58    40    39    2
    59    44    39   am
    60    23    24    2
    61    39    38    1
    62    38    37    1
    63    38    41    1
    64    42    41    1
    65    41    43    1
    66    35    34    1
    67    33    34    1
    68    33    30    1
    69    34    36    1
    70    31    30    1
    71    31    32    2
    72    30    29    1
