@<TRIPOS>MOLECULE
tmp/6dnjA01.pdb
 105 101 0 0 0
SMALL
GASTEIGER

@<TRIPOS>ATOM
      1  N         -7.6800  -21.9980  -13.6660 N.3    10  ILE10      -0.1245
      2  CA        -6.8670  -21.3690  -12.6270 C.3    10  ILE10       0.1561
      3  C         -5.5530  -20.9430  -13.2580 C.2    10  ILE10       0.2260
      4  O         -4.8860  -21.7530  -13.9080 O.2    10  ILE10      -0.2867
      5  CB        -6.6340  -22.3080  -11.4160 C.3    10  ILE10       0.0252
      6  CG1       -7.9380  -22.4940  -10.6240 C.3    10  ILE10       0.0019
      7  CG2       -5.5610  -21.7340  -10.4790 C.3    10  ILE10       0.0019
      8  CD1       -8.8500  -23.5960  -11.1200 C.3    10  ILE10       0.0001
      9  N         -9.6400  -17.6240  -13.1930 N.3    49  TRP49      -0.1227
     10  CA        -9.3180  -17.3550  -11.8020 C.3    49  TRP49       0.1737
     11  C         -7.8230  -17.1540  -11.6160 C.2    49  TRP49       0.2595
     12  O         -7.0380  -18.0760  -11.8280 O.2    49  TRP49      -0.2718
     13  CB        -9.8080  -18.4970  -10.9440 C.3    49  TRP49       0.0564
     14  CG       -11.3220  -18.6190  -10.8850 C.ar   49  TRP49       0.0003
     15  CD1      -12.2570  -17.6410  -11.1380 C.ar   49  TRP49       0.0946
     16  CD2      -12.0580  -19.7780  -10.4930 C.ar   49  TRP49       0.0152
     17  NE1      -13.5220  -18.1330  -10.9460 N.ar   49  TRP49      -0.2442
     18  CE2      -13.4350  -19.4420  -10.5450 C.ar   49  TRP49       0.0810
     19  CE3      -11.6880  -21.0770  -10.1020 C.ar   49  TRP49       0.0012
     20  CZ2      -14.4350  -20.3570  -10.2270 C.ar   49  TRP49       0.0191
     21  CZ3      -12.6730  -21.9780   -9.7890 C.ar   49  TRP49       0.0001
     22  CH2      -14.0390  -21.6190   -9.8510 C.ar   49  TRP49       0.0015
     23  N         -7.4440  -15.9390  -11.2110 N.am   50  ASP50      -0.1960
     24  CA        -6.0410  -15.5400  -11.1190 C.3    50  ASP50       0.1840
     25  C         -5.5170  -15.6160   -9.6850 C.2    50  ASP50       0.2621
     26  O         -6.1660  -15.1230   -8.7540 O.2    50  ASP50      -0.2715
     27  CB        -5.8650  -14.1190  -11.6630 C.3    50  ASP50       0.1450
     28  CG        -4.4200  -13.6660  -11.6380 C.2    50  ASP50       0.3671
     29  OD1       -4.0250  -13.0660  -10.6200 O.co2  50  ASP50      -0.2456
     30  OD2       -3.6700  -13.9340  -12.5970 O.co2  50  ASP50      -0.2456
     31  N         -4.3210  -16.2040   -9.5330 N.am   51  ILE51      -0.1977
     32  CA        -3.6380  -16.2930   -8.2310 C.3    51  ILE51       0.1596
     33  C         -2.2040  -15.7530   -8.3160 C.2    51  ILE51       0.2287
     34  O         -1.3190  -16.1880   -7.5700 O.2    51  ILE51      -0.2864
     35  CB        -3.6430  -17.7410   -7.6840 C.3    51  ILE51       0.0276
     36  CG1       -2.9160  -18.6880   -8.6520 C.3    51  ILE51       0.0022
     37  CG2       -5.0750  -18.1930   -7.4310 C.3    51  ILE51       0.0022
     38  CD1       -2.6260  -20.0600   -8.0860 C.3    51  ILE51       0.0001
     39  N        -12.0610  -13.6260  -11.8840 N.3    79  GLY79      -0.1210
     40  CA       -12.0470  -13.5630  -10.4300 C.3    79  GLY79       0.1956
     41  C        -10.6750  -13.8300   -9.8630 C.2    79  GLY79       0.2612
     42  O         -9.7420  -14.1950  -10.5930 O.2    79  GLY79      -0.2717
     43  N        -10.5640  -13.6450   -8.5470 N.am   80  GLY80      -0.1942
     44  CA        -9.3340  -13.9230   -7.8280 C.3    80  GLY80       0.2014
     45  C         -8.8260  -12.6540   -7.1910 C.2    80  GLY80       0.2639
     46  O         -8.1050  -11.8870   -7.8140 O.2    80  GLY80      -0.2714
     47  N         -9.2370  -12.4200   -5.9470 N.am   81  GLY81      -0.1954
     48  CA        -8.7720  -11.2680   -5.1930 C.3    81  GLY81       0.1869
     49  C         -9.2500   -9.9130   -5.6960 C.2    81  GLY81       0.2309
     50  O         -8.5360   -8.9200   -5.5470 O.2    81  GLY81      -0.2863
     51  N        -16.3270  -12.2350  -10.4590 N.3   100  GLU100     -0.1231
     52  CA       -16.6100  -13.2660   -9.4440 C.3   100  GLU100      0.1699
     53  C        -15.8710  -12.9060   -8.1440 C.2   100  GLU100      0.2592
     54  O        -14.6370  -12.9150   -8.1180 O.2   100  GLU100     -0.2718
     55  CB       -16.1740  -14.6410   -9.9810 C.3   100  GLU100      0.0402
     56  CG       -16.8470  -15.8620   -9.3610 C.3   100  GLU100      0.1161
     57  CD       -16.7160  -17.1380  -10.1890 C.2   100  GLU100      0.3649
     58  OE1      -16.2940  -17.1070  -11.3690 O.co2 100  GLU100     -0.2457
     59  OE2      -17.0420  -18.2070   -9.6480 O.co2 100  GLU100     -0.2457
     60  N        -16.6370  -12.6000   -7.0870 N.am  101  ILE101     -0.1966
     61  CA       -16.1180  -12.1040   -5.8090 C.3   101  ILE101      0.1727
     62  C        -16.5740  -13.0190   -4.6820 C.2   101  ILE101      0.2616
     63  O        -17.6430  -13.6260   -4.7530 O.2   101  ILE101     -0.2715
     64  CB       -16.5490  -10.6370   -5.5320 C.3   101  ILE101      0.0290
     65  CG1      -18.0820  -10.4730   -5.5580 C.3   101  ILE101      0.0022
     66  CG2      -15.9230   -9.6960   -6.5540 C.3   101  ILE101      0.0023
     67  CD1      -18.5850   -9.0720   -5.2380 C.3   101  ILE101      0.0001
     68  N        -15.7420  -13.1230   -3.6480 N.am  102  ASN102     -0.1958
     69  CA       -16.0590  -13.9420   -2.4760 C.3   102  ASN102      0.1819
     70  C        -15.6890  -13.1670   -1.2040 C.2   102  ASN102      0.2621
     71  O        -16.5590  -12.5240   -0.6080 O.2   102  ASN102     -0.2715
     72  CB       -15.3730  -15.3180   -2.5450 C.3   102  ASN102      0.1195
     73  CG       -15.6090  -16.1560   -1.2900 C.2   102  ASN102      0.2630
     74  OD1      -16.3630  -15.7730   -0.3880 O.2   102  ASN102     -0.2716
     75  ND2      -14.9690  -17.3140   -1.2320 N.am  102  ASN102     -0.0877
     76  N        -14.4140  -13.2000   -0.8170 N.am  103  THR103     -0.1951
     77  CA       -13.9850  -12.6580    0.4720 C.3   103  THR103      0.1897
     78  C        -14.3430  -11.1820    0.6330 C.2   103  THR103      0.2313
     79  O        -14.8700  -10.7900    1.6770 O.2   103  THR103     -0.2863
     80  CB       -12.4720  -12.8510    0.6790 C.3   103  THR103      0.1794
     81  OG1      -12.1660  -14.2530    0.7140 O.3   103  THR103     -0.2208
     82  CG2      -11.9940  -12.2040    1.9780 C.3   103  THR103      0.0378
     83  N        -19.1930  -15.9980   -5.3880 N.3   127  TYR127     -0.1241
     84  CA       -18.7390  -17.3470   -5.0710 C.3   127  TYR127      0.1605
     85  C        -18.8770  -17.5490   -3.5630 C.2   127  TYR127      0.2264
     86  O        -18.2960  -16.7930   -2.7830 O.2   127  TYR127     -0.2867
     87  CB       -17.2930  -17.5560   -5.5190 C.3   127  TYR127      0.0534
     88  CG       -16.8410  -19.0030   -5.4400 C.ar  127  TYR127     -0.0201
     89  CD1      -16.5490  -19.6030   -4.2080 C.ar  127  TYR127     -0.0009
     90  CD2      -16.7050  -19.7790   -6.5910 C.ar  127  TYR127     -0.0009
     91  CE1      -16.1500  -20.9330   -4.1300 C.ar  127  TYR127      0.0417
     92  CE2      -16.2920  -21.1000   -6.5220 C.ar  127  TYR127      0.0417
     93  CZ       -16.0270  -21.6750   -5.2940 C.ar  127  TYR127      0.1957
     94  OH       -15.6310  -22.9910   -5.2420 O.3   127  TYR127     -0.2866
     95  N        -18.0670  -20.2590   -0.7520 N.3   129  ALA129     -0.1245
     96  CA       -17.3830  -21.4690   -0.3020 C.3   129  ALA129      0.1562
     97  C        -17.9660  -21.8580    1.0480 C.2   129  ALA129      0.2260
     98  O        -17.8950  -21.0780    1.9970 O.2   129  ALA129     -0.2867
     99  CB       -15.8860  -21.2310   -0.1890 C.3   129  ALA129      0.0290
    100  N         -9.7340  -18.3570    0.7740 N.3   143  SER143     -0.1217
    101  CA        -9.4190  -19.6500    0.1560 C.3   143  SER143      0.1889
    102  C         -9.6250  -20.8300    1.1130 C.2   143  SER143      0.2288
    103  O         -8.8020  -21.7410    1.1790 O.2   143  SER143     -0.2866
    104  CB        -7.9870  -19.6360   -0.3930 C.3   143  SER143      0.2089
    105  OG        -7.7630  -18.5050   -1.2180 O.3   143  SER143     -0.2183
@<TRIPOS>BOND
     1     4     3    2
     2     1     2    1
     3     3     2    1
     4     9    10    1
     5     2     5    1
     6    30    28   ar
     7    39    40    1
     8    12    11    2
     9    10    11    1
    10    10    13    1
    11    27    28    1
    12    27    24    1
    13    28    29   ar
    14    11    23   am
    15     5     6    1
    16     5     7    1
    17    58    57   ar
    18    23    24    1
    19    15    17   ar
    20    15    14   ar
    21     8     6    1
    22    24    25    1
    23    17    18   ar
    24    13    14    1
    25    14    16   ar
    26    42    41    2
    27    18    16   ar
    28    18    20   ar
    29    16    19   ar
    30    51    52    1
    31    40    41    1
    32    20    22   ar
    33    57    59   ar
    34    57    56    1
    35    19    21   ar
    36    55    52    1
    37    55    56    1
    38    41    43   am
    39    22    21   ar
    40    25    31   am
    41    25    26    2
    42    31    32    1
    43    52    53    1
    44    36    38    1
    45    36    35    1
    46    43    44    1
    47    33    32    1
    48    33    34    2
    49    32    35    1
    50    53    54    2
    51    53    60   am
    52    44    45    1
    53    46    45    2
    54    35    37    1
    55    45    47   am
    56    60    61    1
    57    90    92   ar
    58    90    88   ar
    59    66    64    1
    60    92    93   ar
    61    47    48    1
    62    61    64    1
    63    61    62    1
    64    49    50    2
    65    49    48    1
    66    65    64    1
    67    65    67    1
    68    87    88    1
    69    87    84    1
    70    88    89   ar
    71    83    84    1
    72    93    94    1
    73    93    91   ar
    74    84    85    1
    75    63    62    2
    76    62    68   am
    77    89    91   ar
    78    68    69    1
    79    85    86    2
    80    72    69    1
    81    72    73    1
    82    69    70    1
    83    73    75   am
    84    73    74    2
    85   105   104    1
    86    70    76   am
    87    70    71    2
    88    76    77    1
    89    95    96    1
    90   104   101    1
    91    96    99    1
    92    96    97    1
    93   101   100    1
    94   101   102    1
    95    77    78    1
    96    77    80    1
    97    78    79    2
    98    80    81    1
    99    80    82    1
   100    97    98    2
   101   102   103    2
