@<TRIPOS>MOLECULE
tmp/6dnkA00.pdb
 124 122 0 0 0
SMALL
GASTEIGER

@<TRIPOS>ATOM
      1  N        136.0120   29.4750  -37.4930 N.3     6  LEU6       -0.1245
      2  CA       134.7660   28.8770  -37.0870 C.3     6  LEU6        0.1561
      3  C        133.6510   29.1390  -38.0960 C.2     6  LEU6        0.2260
      4  O        132.8270   28.2740  -38.3140 O.2     6  LEU6       -0.2867
      5  CB       134.3630   29.3710  -35.6910 C.3     6  LEU6        0.0270
      6  CG       135.2950   28.9490  -34.5460 C.3     6  LEU6        0.0019
      7  CD1      134.8660   29.6100  -33.2480 C.3     6  LEU6        0.0001
      8  CD2      135.3810   27.4480  -34.3730 C.3     6  LEU6        0.0001
      9  N        134.3510   26.8610  -40.9190 N.3     9  SER9       -0.1202
     10  CA       134.0150   25.5080  -40.5180 C.3     9  SER9        0.2020
     11  C        132.5060   25.2780  -40.5340 C.2     9  SER9        0.2618
     12  O        132.0260   24.2040  -40.9550 O.2     9  SER9       -0.2717
     13  CB       134.5770   25.2370  -39.1050 C.3     9  SER9        0.2103
     14  OG       134.1330   24.0110  -38.6180 O.3     9  SER9       -0.2182
     15  N        131.7500   26.2620  -40.0470 N.am   10  TYR10      -0.1975
     16  CA       130.2940   26.1850  -40.0640 C.3    10  TYR10       0.1639
     17  C        129.7240   26.0740  -41.4980 C.2    10  TYR10       0.2290
     18  O        128.7740   25.3620  -41.7340 O.2    10  TYR10      -0.2864
     19  CB       129.7410   27.3890  -39.3560 C.3    10  TYR10       0.0560
     20  CG       128.2750   27.3670  -39.0190 C.ar   10  TYR10      -0.0198
     21  CD1      127.7200   26.3440  -38.2610 C.ar   10  TYR10      -0.0009
     22  CD2      127.4560   28.4130  -39.3850 C.ar   10  TYR10      -0.0009
     23  CE1      126.3700   26.3540  -37.9330 C.ar   10  TYR10       0.0417
     24  CE2      126.1070   28.4180  -39.0620 C.ar   10  TYR10       0.0417
     25  CZ       125.5700   27.3990  -38.3240 C.ar   10  TYR10       0.1957
     26  OH       124.2220   27.4240  -37.9670 O.3    10  TYR10      -0.2866
     27  N        131.6040   22.4050  -43.0450 N.3    13  GLY13      -0.1210
     28  CA       131.1950   21.1480  -42.4400 C.3    13  GLY13       0.1956
     29  C        129.7270   21.0680  -42.0950 C.2    13  GLY13       0.2611
     30  O        129.2770   20.1150  -41.4770 O.2    13  GLY13      -0.2717
     31  N        128.9430   22.0720  -42.4710 N.am   14  TYR14      -0.1976
     32  CA       127.5260   22.0010  -42.1730 C.3    14  TYR14       0.1639
     33  C        126.6630   22.6730  -43.2250 C.2    14  TYR14       0.2290
     34  O        125.9140   21.9830  -43.9150 O.2    14  TYR14      -0.2864
     35  CB       127.2970   22.5710  -40.7860 C.3    14  TYR14       0.0560
     36  CG       125.8810   22.5120  -40.2820 C.ar   14  TYR14      -0.0198
     37  CD1      125.2800   21.3220  -40.0450 C.ar   14  TYR14      -0.0009
     38  CD2      125.1640   23.6750  -40.0180 C.ar   14  TYR14      -0.0009
     39  CE1      123.9830   21.2690  -39.5720 C.ar   14  TYR14       0.0417
     40  CE2      123.8840   23.6340  -39.5410 C.ar   14  TYR14       0.0417
     41  CZ       123.2920   22.4360  -39.3190 C.ar   14  TYR14       0.1957
     42  OH       121.9870   22.3990  -38.8710 O.3    14  TYR14      -0.2866
     43  N        130.6150   10.3010  -43.2870 N.3    73  ARG73      -0.1245
     44  CA       131.4640   11.4970  -43.1180 C.3    73  ARG73       0.1563
     45  C        132.6870   11.1500  -42.3110 C.2    73  ARG73       0.2260
     46  O        132.5680   10.7800  -41.1500 O.2    73  ARG73      -0.2867
     47  CB       130.6980   12.6830  -42.4520 C.3    73  ARG73       0.0307
     48  CG       129.9200   13.5470  -43.4600 C.3    73  ARG73       0.0489
     49  CD       130.0000   15.0610  -43.2460 C.3    73  ARG73       0.2205
     50  NE       131.3170   15.6740  -43.0020 N.pl3  73  ARG73      -0.0865
     51  CZ       131.5290   16.7710  -42.2560 C.cat  73  ARG73       0.5346
     52  NH1      130.5460   17.4400  -41.5930 N.pl3  73  ARG73       0.1354
     53  NH2      132.7530   17.2150  -42.1180 N.pl3  73  ARG73       0.1354
     54  N        126.4910    9.4460  -40.4190 N.3    79  ARG79      -0.1231
     55  CA       126.4030   10.6440  -39.6140 C.3    79  ARG79       0.1694
     56  C        125.0490   11.3050  -39.8910 C.2    79  ARG79       0.2592
     57  O        124.6040   11.3730  -41.0270 O.2    79  ARG79      -0.2718
     58  CB       127.5290   11.6290  -39.9300 C.3    79  ARG79       0.0321
     59  CG       127.4840   12.8110  -38.9710 C.3    79  ARG79       0.0489
     60  CD       128.7690   13.5840  -38.9760 C.3    79  ARG79       0.2205
     61  NE       128.6350   14.8680  -38.3010 N.pl3  79  ARG79      -0.0865
     62  CZ       129.6030   15.7620  -38.2230 C.cat  79  ARG79       0.5346
     63  NH1      130.8160   15.4860  -38.7170 N.pl3  79  ARG79       0.1354
     64  NH2      129.3610   16.9410  -37.6540 N.pl3  79  ARG79       0.1354
     65  N        124.4110   11.7630  -38.8280 N.am   80  VAL80      -0.1966
     66  CA       123.0640   12.3300  -38.8860 C.3    80  VAL80       0.1727
     67  C        123.0620   13.8590  -38.6790 C.2    80  VAL80       0.2616
     68  O        123.5550   14.3590  -37.6460 O.2    80  VAL80      -0.2715
     69  CB       122.1760   11.7060  -37.7820 C.3    80  VAL80       0.0290
     70  CG1      120.7360   12.1920  -37.8960 C.3    80  VAL80       0.0023
     71  CG2      122.2240   10.1720  -37.8450 C.3    80  VAL80       0.0023
     72  N        122.4550   14.5570  -39.6350 N.am   81  TYR81      -0.1960
     73  CA       122.1430   15.9840  -39.5150 C.3    81  TYR81       0.1771
     74  C        120.6210   16.0710  -39.3020 C.2    81  TYR81       0.2620
     75  O        119.8400   15.5710  -40.1030 O.2    81  TYR81      -0.2715
     76  CB       122.5850   16.7340  -40.7730 C.3    81  TYR81       0.0574
     77  CG       124.0850   16.5860  -40.9960 C.ar   81  TYR81      -0.0198
     78  CD1      124.9760   17.4630  -40.4100 C.ar   81  TYR81      -0.0009
     79  CD2      124.6020   15.5150  -41.7140 C.ar   81  TYR81      -0.0009
     80  CE1      126.3400   17.3120  -40.5550 C.ar   81  TYR81       0.0417
     81  CE2      125.9730   15.3570  -41.8770 C.ar   81  TYR81       0.0417
     82  CZ       126.8280   16.2660  -41.2930 C.ar   81  TYR81       0.1957
     83  OH       128.1850   16.1460  -41.4130 O.3    81  TYR81      -0.2866
     84  N        120.2360   16.6710  -38.1920 N.am   82  SER82      -0.1950
     85  CA       118.8350   16.7770  -37.7900 C.3    82  SER82       0.1924
     86  C        118.4730   18.2520  -37.5730 C.2    82  SER82       0.2314
     87  O        119.3060   19.0550  -37.1180 O.2    82  SER82      -0.2863
     88  CB       118.5620   15.9420  -36.5260 C.3    82  SER82       0.2116
     89  OG       117.1440   15.7690  -36.3780 O.3    82  SER82      -0.2180
     90  N        117.2940   27.3590  -35.4070 N.3   101  GLU101     -0.1231
     91  CA       118.3490   26.8810  -34.5240 C.3   101  GLU101      0.1699
     92  C        119.3770   27.9740  -34.2360 C.2   101  GLU101      0.2592
     93  O        119.4440   28.9780  -34.9290 O.2   101  GLU101     -0.2718
     94  CB       119.0630   25.6820  -35.1310 C.3   101  GLU101      0.0402
     95  CG       119.7330   25.9580  -36.4730 C.3   101  GLU101      0.1161
     96  CD       120.0870   24.6840  -37.1930 C.2   101  GLU101      0.3649
     97  OE1      119.1550   23.8640  -37.3910 O.co2 101  GLU101     -0.2457
     98  OE2      121.2790   24.4980  -37.5640 O.co2 101  GLU101     -0.2457
     99  N        120.1740   27.7580  -33.1970 N.am  102  TYR102     -0.1976
    100  CA       121.3010   28.6330  -32.9210 C.3   102  TYR102      0.1639
    101  C        122.5120   28.2090  -33.7480 C.2   102  TYR102      0.2290
    102  O        122.6730   27.0160  -34.0850 O.2   102  TYR102     -0.2864
    103  CB       121.6810   28.5790  -31.4620 C.3   102  TYR102      0.0560
    104  CG       120.7440   29.2910  -30.5670 C.ar  102  TYR102     -0.0198
    105  CD1      120.8250   30.6720  -30.4000 C.ar  102  TYR102     -0.0009
    106  CD2      119.7920   28.5920  -29.8360 C.ar  102  TYR102     -0.0009
    107  CE1      119.9860   31.3410  -29.5460 C.ar  102  TYR102      0.0417
    108  CE2      118.9370   29.2570  -28.9560 C.ar  102  TYR102      0.0417
    109  CZ       119.0340   30.6320  -28.8160 C.ar  102  TYR102      0.1957
    110  OH       118.1930   31.2920  -27.9570 O.3   102  TYR102     -0.2866
    111  N        125.8440   26.9890  -33.6060 N.3   104  THR104     -0.1204
    112  CA       126.6110   26.2080  -32.6460 C.3   104  THR104      0.1979
    113  C        128.0370   26.7420  -32.3580 C.2   104  THR104      0.2459
    114  O        128.4820   26.7190  -31.2090 O.2   104  THR104     -0.2732
    115  CB       126.6410   24.7300  -33.1100 C.3   104  THR104      0.1783
    116  OG1      126.8760   24.6760  -34.5260 O.3   104  THR104     -0.2211
    117  CG2      125.3250   24.0830  -32.8630 C.3   104  THR104      0.0376
    118  N        128.7480   27.2760  -33.3920 N.am  105  PRO105     -0.2728
    119  CA       130.0900   27.8060  -33.0900 C.3   105  PRO105      0.1401
    120  C        130.1450   28.8860  -32.0050 C.2   105  PRO105      0.2269
    121  O        131.1970   29.0900  -31.3710 O.2   105  PRO105     -0.2865
    122  CB       130.5370   28.4040  -34.4210 C.3   105  PRO105      0.0296
    123  CG       129.8270   27.5770  -35.4490 C.3   105  PRO105      0.0237
    124  CD       128.4680   27.4010  -34.8330 C.3   105  PRO105      0.0939
@<TRIPOS>BOND
     1    34    33    2
     2    48    49    1
     3    48    47    1
     4    43    44    1
     5    49    50    1
     6    33    32    1
     7    44    47    1
     8    44    45    1
     9    27    28    1
    10    50    51    2
    11    31    32    1
    12    31    29   am
    13    28    29    1
    14    45    46    2
    15    51    53    1
    16    51    52    1
    17    32    35    1
    18    29    30    2
    19    81    79   ar
    20    81    82   ar
    21    18    17    2
    22    79    77   ar
    23    17    16    1
    24    83    82    1
    25    82    80   ar
    26    57    56    2
    27    77    76    1
    28    77    78   ar
    29    12    11    2
    30     9    10    1
    31    35    36    1
    32    76    73    1
    33    80    78   ar
    34    11    10    1
    35    11    15   am
    36    10    13    1
    37    54    55    1
    38    36    37   ar
    39    36    38   ar
    40    75    74    2
    41    16    15    1
    42    16    19    1
    43    37    39   ar
    44    38    40   ar
    45    58    55    1
    46    58    59    1
    47    56    55    1
    48    56    65   am
    49    72    73    1
    50    72    67   am
    51    39    41   ar
    52    40    41   ar
    53    73    74    1
    54    22    24   ar
    55    22    20   ar
    56    19    20    1
    57    41    42    1
    58    74    84   am
    59    13    14    1
    60    24    25   ar
    61    20    21   ar
    62    60    59    1
    63    60    61    1
    64    66    65    1
    65    66    67    1
    66    66    69    1
    67    63    62    1
    68    67    68    2
    69    25    26    1
    70    25    23   ar
    71     4     3    2
    72    61    62    2
    73    21    23   ar
    74    62    64    1
    75    84    85    1
    76     3     2    1
    77    70    69    1
    78    71    69    1
    79    85    86    1
    80    85    88    1
    81    86    87    2
    82    98    96   ar
    83     1     2    1
    84    97    96   ar
    85    96    95    1
    86     2     5    1
    87    88    89    1
    88    95    94    1
    89     5     6    1
    90   123   124    1
    91   123   122    1
    92    90    91    1
    93    94    91    1
    94    93    92    2
    95   124   118    1
    96     6     8    1
    97     6     7    1
    98   116   115    1
    99    91    92    1
   100   122   119    1
   101    92    99   am
   102   102   101    2
   103   101   100    1
   104   111   112    1
   105   118   119    1
   106   118   113   am
   107    99   100    1
   108   115   117    1
   109   115   112    1
   110   119   120    1
   111   100   103    1
   112   112   113    1
   113   113   114    2
   114   120   121    2
   115   103   104    1
   116   104   105   ar
   117   104   106   ar
   118   105   107   ar
   119   106   108   ar
   120   107   109   ar
   121   108   109   ar
   122   109   110    1
