@<TRIPOS>MOLECULE
tmp/6dnpA01.pdb
 78 75 0 0 0
SMALL
GASTEIGER

@<TRIPOS>ATOM
      1  N         56.8770   85.6020   56.6190 N.3    57  ASP57      -0.1239
      2  CA        57.9370   84.5950   56.6590 C.3    57  ASP57       0.1674
      3  C         59.2080   85.1420   57.2980 C.2    57  ASP57       0.2266
      4  O         59.8590   84.4470   58.0860 O.2    57  ASP57      -0.2867
      5  CB        58.2680   84.0990   55.2420 C.3    57  ASP57       0.1410
      6  CG        57.0920   83.4460   54.5380 C.2    57  ASP57       0.3668
      7  OD1       56.1490   82.9540   55.2020 O.co2  57  ASP57      -0.2456
      8  OD2       57.1390   83.4020   53.2920 O.co2  57  ASP57      -0.2456
      9  N         58.7360   85.4830   61.0780 N.3    60  GLN60      -0.1231
     10  CA        58.7140   84.1870   61.7500 C.3    60  GLN60       0.1698
     11  C         60.1000   83.5590   61.8090 C.2    60  GLN60       0.2592
     12  O         60.4300   82.8660   62.7820 O.2    60  GLN60      -0.2718
     13  CB        57.7340   83.2380   61.0660 C.3    60  GLN60       0.0381
     14  CG        57.4570   81.9750   61.8710 C.3    60  GLN60       0.0905
     15  CD        56.8850   82.2830   63.2640 C.2    60  GLN60       0.2608
     16  OE1       55.7750   82.7950   63.3870 O.2    60  GLN60      -0.2717
     17  NE2       57.6490   81.9650   64.3150 N.am   60  GLN60      -0.0878
     18  N         60.9250   83.7840   60.7850 N.am   61  ALA61      -0.1980
     19  CA        62.2720   83.2220   60.8030 C.3    61  ALA61       0.1597
     20  C         63.1250   83.8690   61.8880 C.2    61  ALA61       0.2287
     21  O         63.9300   83.1900   62.5370 O.2    61  ALA61      -0.2864
     22  CB        62.9200   83.3770   59.4260 C.3    61  ALA61       0.0319
     23  N         61.8160   82.4030   65.2380 N.3    64  ASP64      -0.1239
     24  CA        62.3480   81.0420   65.2860 C.3    64  ASP64       0.1674
     25  C         63.7950   81.0220   65.7830 C.2    64  ASP64       0.2266
     26  O         64.1380   80.3170   66.7410 O.2    64  ASP64      -0.2867
     27  CB        62.2710   80.4060   63.8890 C.3    64  ASP64       0.1410
     28  CG        60.8940   79.8490   63.5590 C.2    64  ASP64       0.3668
     29  OD1       59.9550   80.0050   64.3620 O.co2  64  ASP64      -0.2456
     30  OD2       60.7490   79.2400   62.4810 O.co2  64  ASP64      -0.2456
     31  N         52.1540   78.1640   66.5840 N.3   454  HIS454     -0.1241
     32  CA        53.1550   78.2360   65.5190 C.3   454  HIS454      0.1621
     33  C         54.1830   79.3320   65.7810 C.2   454  HIS454      0.2264
     34  O         55.3790   79.1400   65.5350 O.2   454  HIS454     -0.2867
     35  CB        52.4820   78.4500   64.1660 C.3   454  HIS454      0.0745
     36  CG        53.4070   78.2080   63.0120 C.ar  454  HIS454      0.0817
     37  ND1       53.6280   76.9490   62.4990 N.ar  454  HIS454     -0.2268
     38  CD2       54.1930   79.0500   62.3030 C.ar  454  HIS454      0.1154
     39  CE1       54.5060   77.0260   61.5100 C.ar  454  HIS454      0.1986
     40  NE2       54.8620   78.2920   61.3700 N.ar  454  HIS454     -0.2212
     41  N         55.2540   72.0710   61.0460 N.3   688  ALA688     -0.1231
     42  CA        56.1780   73.1320   61.4270 C.3   688  ALA688      0.1694
     43  C         56.6300   73.9700   60.2400 C.2   688  ALA688      0.2592
     44  O         57.0350   75.1240   60.4410 O.2   688  ALA688     -0.2718
     45  CB        57.4020   72.5600   62.1610 C.3   688  ALA688      0.0304
     46  N         56.5410   73.4430   59.0100 N.am  689  GLN689     -0.1966
     47  CA        57.0160   74.1590   57.8340 C.3   689  GLN689      0.1733
     48  C         55.9010   74.8590   57.0760 C.2   689  GLN689      0.2616
     49  O         56.1770   75.4920   56.0520 O.2   689  GLN689     -0.2715
     50  CB        57.7530   73.2130   56.8750 C.3   689  GLN689      0.0408
     51  CG        59.0060   72.5580   57.4560 C.3   689  GLN689      0.0908
     52  CD        59.9890   73.5560   58.0420 C.2   689  GLN689      0.2608
     53  OE1       60.2360   74.6150   57.4740 O.2   689  GLN689     -0.2717
     54  NE2       60.5610   73.2120   59.1910 N.am  689  GLN689     -0.0878
     55  N         54.6400   74.7460   57.5350 N.am  690  GLN690     -0.1964
     56  CA        53.5840   75.4700   56.8420 C.3   690  GLN690      0.1718
     57  C         53.6140   76.9410   57.2520 C.2   690  GLN690      0.2458
     58  O         53.9360   77.2670   58.4020 O.2   690  GLN690     -0.2730
     59  CB        52.2100   74.8640   57.1430 C.3   690  GLN690      0.0407
     60  CG        52.0770   73.3900   56.8220 C.3   690  GLN690      0.0908
     61  CD        52.4730   73.0960   55.3620 C.2   690  GLN690      0.2608
     62  OE1       51.9260   73.6840   54.4300 O.2   690  GLN690     -0.2717
     63  NE2       53.4380   72.2090   55.1750 N.am  690  GLN690     -0.0878
     64  N         53.2940   77.8500   56.3270 N.am  691  PRO691     -0.2716
     65  CA        53.3300   79.2810   56.6570 C.3   691  PRO691      0.1536
     66  C         52.3200   79.5940   57.7500 C.2   691  PRO691      0.2598
     67  O         51.1150   79.3570   57.5950 O.2   691  PRO691     -0.2715
     68  CB        52.9710   79.9550   55.3290 C.3   691  PRO691      0.0310
     69  CG        52.1430   78.9450   54.6260 C.3   691  PRO691      0.0237
     70  CD        52.7450   77.6080   54.9790 C.3   691  PRO691      0.0939
     71  N         52.8360   80.0580   58.8940 N.am  692  ASN692     -0.1973
     72  CA        52.0200   80.4040   60.0590 C.3   692  ASN692      0.1688
     73  C         51.1330   79.2320   60.4830 C.2   692  ASN692      0.2292
     74  O         50.0890   79.4150   61.1130 O.2   692  ASN692     -0.2864
     75  CB        51.1970   81.6740   59.7900 C.3   692  ASN692      0.1181
     76  CG        52.0750   82.8800   59.5040 C.2   692  ASN692      0.2629
     77  OD1       52.1530   83.3560   58.3620 O.2   692  ASN692     -0.2716
     78  ND2       52.7800   83.3610   60.5330 N.am  692  ASN692     -0.0877
@<TRIPOS>BOND
     1     8     6   ar
     2    62    61    2
     3     6     7   ar
     4     6     5    1
     5    69    70    1
     6    69    68    1
     7    70    64    1
     8    63    61   am
     9     5     2    1
    10    68    65    1
    11    61    60    1
    12    49    48    2
    13    64    65    1
    14    64    57   am
    15     1     2    1
    16    65    66    1
    17     2     3    1
    18    60    59    1
    19    56    59    1
    20    56    57    1
    21    56    55    1
    22    50    51    1
    23    50    47    1
    24    48    55   am
    25    48    47    1
    26    57    58    2
    27     3     4    2
    28    51    52    1
    29    53    52    2
    30    67    66    2
    31    66    71   am
    32    47    46    1
    33    52    54   am
    34    77    76    2
    35    71    72    1
    36    46    43   am
    37    22    19    1
    38    76    75    1
    39    76    78   am
    40    75    72    1
    41    72    73    1
    42    43    44    2
    43    43    42    1
    44    73    74    2
    45    18    19    1
    46    18    11   am
    47    19    20    1
    48    41    42    1
    49    13    10    1
    50    13    14    1
    51     9    10    1
    52    40    39   ar
    53    40    38   ar
    54    42    45    1
    55    39    37   ar
    56    10    11    1
    57    11    12    2
    58    14    15    1
    59    20    21    2
    60    38    36   ar
    61    30    28   ar
    62    37    36   ar
    63    36    35    1
    64    15    16    2
    65    15    17   am
    66    28    27    1
    67    28    29   ar
    68    27    24    1
    69    35    32    1
    70    23    24    1
    71    24    25    1
    72    32    33    1
    73    32    31    1
    74    34    33    2
    75    25    26    2
