@<TRIPOS>MOLECULE
tmp/6dnpA00.pdb
 185 175 0 0 0
SMALL
GASTEIGER

@<TRIPOS>ATOM
      1  N         27.1570   81.6100   61.7390 N.3   117  VAL117     -0.1231
      2  CA        28.1110   81.3850   60.6510 C.3   117  VAL117      0.1692
      3  C         27.7920   80.0620   59.9690 C.2   117  VAL117      0.2592
      4  O         27.7440   79.0240   60.6340 O.2   117  VAL117     -0.2718
      5  CB        29.5690   81.3770   61.1500 C.3   117  VAL117      0.0266
      6  CG1       30.5330   81.2920   59.9410 C.3   117  VAL117      0.0020
      7  CG2       29.8750   82.6030   61.9780 C.3   117  VAL117      0.0020
      8  N         27.6170   80.0900   58.6430 N.am  118  VAL118     -0.1966
      9  CA        27.2800   78.8800   57.8810 C.3   118  VAL118      0.1712
     10  C         28.0670   78.8520   56.5780 C.2   118  VAL118      0.2458
     11  O         28.4130   79.8950   56.0010 O.2   118  VAL118     -0.2730
     12  CB        25.7690   78.7980   57.5670 C.3   118  VAL118      0.0289
     13  CG1       24.9460   78.7080   58.8870 C.3   118  VAL118      0.0023
     14  CG2       25.3400   79.9760   56.7100 C.3   118  VAL118      0.0023
     15  N         28.3680   77.6470   56.0870 N.am  119  PRO119     -0.2727
     16  CA        29.1010   77.5070   54.8140 C.3   119  PRO119      0.1402
     17  C         28.2300   77.8920   53.6230 C.2   119  PRO119      0.2269
     18  O         27.1270   77.3690   53.4430 O.2   119  PRO119     -0.2865
     19  CB        29.4610   76.0170   54.7780 C.3   119  PRO119      0.0296
     20  CG        28.4140   75.3510   55.6790 C.3   119  PRO119      0.0237
     21  CD        28.1880   76.3500   56.7720 C.3   119  PRO119      0.0939
     22  N         29.8100   82.0400   54.5940 N.3   270  ASP270     -0.1239
     23  CA        31.2500   81.7810   54.6990 C.3   270  ASP270      0.1674
     24  C         31.8260   81.2110   53.4070 C.2   270  ASP270      0.2266
     25  O         31.4360   80.1230   52.9770 O.2   270  ASP270     -0.2867
     26  CB        31.5350   80.8020   55.8400 C.3   270  ASP270      0.1410
     27  CG        33.0140   80.7840   56.2660 C.2   270  ASP270      0.3668
     28  OD1       33.7770   81.7130   55.9150 O.co2 270  ASP270     -0.2456
     29  OD2       33.4110   79.8400   56.9960 O.co2 270  ASP270     -0.2456
     30  N         35.2260   80.9200   53.6350 N.3   272  GLU272     -0.1231
     31  CA        36.5500   80.5880   54.1590 C.3   272  GLU272      0.1699
     32  C         36.5600   79.2580   54.9100 C.2   272  GLU272      0.2592
     33  O         36.3690   78.2010   54.3040 O.2   272  GLU272     -0.2718
     34  CB        37.0680   81.7160   55.0700 C.3   272  GLU272      0.0402
     35  CG        38.5860   81.6620   55.3220 C.3   272  GLU272      0.1161
     36  CD        38.9900   82.0080   56.7470 C.2   272  GLU272      0.3649
     37  OE1       38.1330   81.9440   57.6610 O.co2 272  GLU272     -0.2457
     38  OE2       40.1830   82.3290   56.9580 O.co2 272  GLU272     -0.2457
     39  N         36.7600   79.2850   56.2340 N.am  273  ASP273     -0.1960
     40  CA        37.2300   78.0720   56.9090 C.3   273  ASP273      0.1840
     41  C         36.1940   76.9560   56.9820 C.2   273  ASP273      0.2622
     42  O         36.5670   75.8220   57.3140 O.2   273  ASP273     -0.2715
     43  CB        37.7390   78.3930   58.3250 C.3   273  ASP273      0.1450
     44  CG        39.2290   78.6500   58.3410 C.2   273  ASP273      0.3671
     45  OD1       39.7950   78.8040   57.2270 O.co2 273  ASP273     -0.2456
     46  OD2       39.8480   78.7010   59.4250 O.co2 273  ASP273     -0.2456
     47  N         34.9270   77.2150   56.6570 N.am  274  SER274     -0.1950
     48  CA        33.9260   76.1640   56.7230 C.3   274  SER274      0.1924
     49  C         33.5650   75.5780   55.3570 C.2   274  SER274      0.2314
     50  O         32.6840   74.7230   55.2970 O.2   274  SER274     -0.2863
     51  CB        32.6540   76.6610   57.4530 C.3   274  SER274      0.2116
     52  OG        31.9500   77.6900   56.7380 O.3   274  SER274     -0.2180
     53  N         31.9770   86.1770   54.5060 N.3   328  ARG328     -0.1245
     54  CA        33.3850   86.0390   54.8920 C.3   328  ARG328      0.1563
     55  C         34.2050   85.6430   53.6610 C.2   328  ARG328      0.2260
     56  O         34.0710   84.5240   53.1420 O.2   328  ARG328     -0.2867
     57  CB        33.5890   85.0450   56.0380 C.3   328  ARG328      0.0307
     58  CG        35.0670   84.9350   56.4360 C.3   328  ARG328      0.0489
     59  CD        35.3150   84.4140   57.8700 C.3   328  ARG328      0.2205
     60  NE        34.9530   83.0010   58.0310 N.pl3 328  ARG328     -0.0865
     61  CZ        35.2200   82.2800   59.1210 C.cat 328  ARG328      0.5346
     62  NH1       35.8620   82.8270   60.1430 N.pl3 328  ARG328      0.1354
     63  NH2       34.8510   81.0070   59.1920 N.pl3 328  ARG328      0.1354
     64  N         38.5770   90.1840   61.8080 N.3   417  MET417     -0.1245
     65  CA        38.8870   89.0920   62.7280 C.3   417  MET417      0.1570
     66  C         40.1880   89.4010   63.4670 C.2   417  MET417      0.2261
     67  O         41.1950   89.7540   62.8470 O.2   417  MET417     -0.2867
     68  CB        39.0020   87.7530   61.9890 C.3   417  MET417      0.0387
     69  CG        37.7520   87.3010   61.2210 C.3   417  MET417      0.0595
     70  SD        36.3110   87.0080   62.2910 S.3   417  MET417     -0.1393
     71  CE        37.0050   85.9400   63.5650 C.3   417  MET417      0.0692
     72  N         42.4820   87.3280   65.0890 N.3   419  GLU419     -0.1245
     73  CA        42.6940   85.8910   65.1940 C.3   419  GLU419      0.1567
     74  C         44.1300   85.5020   64.8520 C.2   419  GLU419      0.2260
     75  O         44.4080   84.3190   64.6100 O.2   419  GLU419     -0.2867
     76  CB        41.6970   85.1270   64.3220 C.3   419  GLU419      0.0388
     77  CG        41.7520   85.3790   62.7670 C.3   419  GLU419      0.1160
     78  CD        40.6460   84.6450   62.0610 C.2   419  GLU419      0.3649
     79  OE1       40.4490   84.8360   60.8310 O.co2 419  GLU419     -0.2457
     80  OE2       39.9640   83.8430   62.7330 O.co2 419  GLU419     -0.2457
     81  N         38.5000   85.6060   67.0300 N.3   444  GLY444     -0.1210
     82  CA        38.4580   84.2560   66.5040 C.3   444  GLY444      0.1956
     83  C         39.4530   83.3910   67.2590 C.2   444  GLY444      0.2612
     84  O         40.5890   83.2120   66.8030 O.2   444  GLY444     -0.2717
     85  N         39.0420   82.8610   68.4270 N.am  445  PHE445     -0.1962
     86  CA        40.0090   82.3220   69.3760 C.3   445  PHE445      0.1771
     87  C         40.6370   81.0230   68.8980 C.2   445  PHE445      0.2619
     88  O         41.7300   80.6800   69.3650 O.2   445  PHE445     -0.2715
     89  CB        39.3780   82.1220   70.7760 C.3   445  PHE445      0.0574
     90  CG        38.4220   80.9570   70.8620 C.ar  445  PHE445     -0.0200
     91  CD1       37.2040   80.9900   70.1800 C.ar  445  PHE445     -0.0042
     92  CD2       38.7250   79.8400   71.6400 C.ar  445  PHE445     -0.0042
     93  CE1       36.3140   79.9290   70.2420 C.ar  445  PHE445     -0.0003
     94  CE2       37.8390   78.7700   71.7280 C.ar  445  PHE445     -0.0003
     95  CZ        36.6230   78.8130   71.0230 C.ar  445  PHE445     -0.0000
     96  N         39.9930   80.2990   67.9750 N.am  446  LEU446     -0.1963
     97  CA        40.5790   79.0340   67.5490 C.3   446  LEU446      0.1728
     98  C         41.7590   79.2750   66.6090 C.2   446  LEU446      0.2616
     99  O         42.8700   78.8030   66.8730 O.2   446  LEU446     -0.2715
    100  CB        39.5010   78.1410   66.9310 C.3   446  LEU446      0.0311
    101  CG        38.4440   77.7930   67.9940 C.3   446  LEU446      0.0022
    102  CD1       37.1530   77.3540   67.3460 C.3   446  LEU446      0.0001
    103  CD2       38.9500   76.7160   68.9790 C.3   446  LEU446      0.0001
    104  N         41.5640   80.0540   65.5340 N.am  447  ASP447     -0.1971
    105  CA        42.7180   80.4850   64.7450 C.3   447  ASP447      0.1709
    106  C         43.7860   81.1150   65.6320 C.2   447  ASP447      0.2293
    107  O         44.9860   80.8700   65.4470 O.2   447  ASP447     -0.2864
    108  CB        42.3030   81.5010   63.6850 C.3   447  ASP447      0.1436
    109  CG        42.1020   80.8830   62.3080 C.2   447  ASP447      0.3671
    110  OD1       42.9280   80.0340   61.8910 O.co2 447  ASP447     -0.2456
    111  OD2       41.1000   81.2580   61.6610 O.co2 447  ASP447     -0.2456
    112  N         33.7410   84.3420   70.1760 N.3   499  GLY499     -0.1210
    113  CA        33.9040   83.2100   69.2760 C.3   499  GLY499      0.1956
    114  C         32.8700   82.0960   69.3900 C.2   499  GLY499      0.2611
    115  O         31.8770   82.1700   70.1210 O.2   499  GLY499     -0.2717
    116  N         33.1730   81.0100   68.6870 N.am  500  MET500     -0.1979
    117  CA        32.2000   79.9870   68.3130 C.3   500  MET500      0.1605
    118  C         32.0460   78.9180   69.3930 C.2   500  MET500      0.2287
    119  O         33.0290   78.4610   69.9920 O.2   500  MET500     -0.2864
    120  CB        32.6270   79.3450   66.9850 C.3   500  MET500      0.0413
    121  CG        31.7610   78.1630   66.5300 C.3   500  MET500      0.0598
    122  SD        30.0910   78.6510   66.0580 S.3   500  MET500     -0.1393
    123  CE        30.3940   79.3760   64.4090 C.3   500  MET500      0.0692
    124  N         31.2670   75.1520   69.7800 N.3   502  THR502     -0.1218
    125  CA        31.4650   74.0410   68.8520 C.3   502  THR502      0.1862
    126  C         30.8090   72.7310   69.2830 C.2   502  THR502      0.2287
    127  O         30.7320   71.8130   68.4650 O.2   502  THR502     -0.2866
    128  CB        32.9640   73.7830   68.6400 C.3   502  THR502      0.1770
    129  OG1       33.5710   73.4360   69.8930 O.3   502  THR502     -0.2211
    130  CG2       33.6470   75.0190   68.0790 C.3   502  THR502      0.0375
    131  N         29.4070   84.0020   68.3170 N.3   526  TRP526     -0.1241
    132  CA        29.1470   83.0940   67.2090 C.3   526  TRP526      0.1605
    133  C         28.4540   81.8110   67.6520 C.2   526  TRP526      0.2264
    134  O         28.7810   81.2370   68.7010 O.2   526  TRP526     -0.2867
    135  CB        30.4550   82.7740   66.4730 C.3   526  TRP526      0.0550
    136  CG        30.8950   83.8880   65.5780 C.ar  526  TRP526      0.0003
    137  CD1       30.3740   85.1510   65.5130 C.ar  526  TRP526      0.0946
    138  CD2       31.9450   83.8360   64.6040 C.ar  526  TRP526      0.0152
    139  NE1       31.0340   85.8900   64.5540 N.ar  526  TRP526     -0.2442
    140  CE2       32.0080   85.1060   63.9850 C.ar  526  TRP526      0.0810
    141  CE3       32.8340   82.8390   64.1940 C.ar  526  TRP526      0.0012
    142  CZ2       32.9330   85.4010   62.9740 C.ar  526  TRP526      0.0191
    143  CZ3       33.7550   83.1350   63.1890 C.ar  526  TRP526      0.0001
    144  CH2       33.7990   84.4070   62.6020 C.ar  526  TRP526      0.0015
    145  N         26.6390   77.9800   65.9120 N.3   528  PRO528     -0.2116
    146  CA        26.7900   77.1240   64.7290 C.3   528  PRO528      0.1372
    147  C         25.5020   76.6870   64.0390 C.2   528  PRO528      0.2244
    148  O         25.5790   76.1060   62.9480 O.2   528  PRO528     -0.2868
    149  CB        27.5310   75.9100   65.2950 C.3   528  PRO528      0.0268
    150  CG        27.0360   75.7870   66.6790 C.3   528  PRO528      0.0207
    151  CD        26.7290   77.2000   67.1610 C.3   528  PRO528      0.0892
    152  N         33.0390   71.6950   56.6820 N.3   604  CYS604     -0.1235
    153  CA        32.7150   71.6440   58.1070 C.3   604  CYS604      0.1677
    154  C         31.9200   70.3780   58.3770 C.2   604  CYS604      0.2270
    155  O         30.9920   70.0620   57.6250 O.2   604  CYS604     -0.2867
    156  CB        31.9290   72.8790   58.5550 C.3   604  CYS604      0.0956
    157  SG        30.3120   73.0800   57.7700 S.3   604  CYS604     -0.0801
    158  N         31.8020   70.5270   66.1360 N.3   616  MET616     -0.1245
    159  CA        31.7840   71.0660   64.7710 C.3   616  MET616      0.1570
    160  C         33.1910   71.5330   64.4020 C.2   616  MET616      0.2261
    161  O         33.6770   72.5390   64.9240 O.2   616  MET616     -0.2867
    162  CB        30.7780   72.2070   64.6310 C.3   616  MET616      0.0387
    163  CG        30.7560   72.8180   63.2050 C.3   616  MET616      0.0595
    164  SD        30.0170   71.7050   61.9900 S.3   616  MET616     -0.1393
    165  CE        28.3210   71.6460   62.5740 C.3   616  MET616      0.0692
    166  N         36.1430   72.9270   61.7370 N.3   618  ASP618     -0.1239
    167  CA        36.5200   73.5360   60.4560 C.3   618  ASP618      0.1674
    168  C         38.0320   73.7560   60.4860 C.2   618  ASP618      0.2266
    169  O         38.7250   73.1790   61.3260 O.2   618  ASP618     -0.2867
    170  CB        35.6280   74.7560   60.1470 C.3   618  ASP618      0.1410
    171  CG        36.0650   76.0700   60.7940 C.2   618  ASP618      0.3668
    172  OD1       37.0060   76.1580   61.6220 O.co2 618  ASP618     -0.2456
    173  OD2       35.4010   77.0710   60.4250 O.co2 618  ASP618     -0.2456
    174  N         40.0410   76.0070   61.4270 N.3   620  ALA620     -0.1231
    175  CA        40.6990   76.5910   62.5890 C.3   620  ALA620      0.1694
    176  C         40.9640   75.5390   63.6630 C.2   620  ALA620      0.2592
    177  O         42.0510   75.5100   64.2480 O.2   620  ALA620     -0.2718
    178  CB        39.8610   77.7360   63.1720 C.3   620  ALA620      0.0304
    179  N         39.9900   74.6660   63.9360 N.am  621  THR621     -0.1953
    180  CA        40.2320   73.6240   64.9270 C.3   621  THR621      0.1897
    181  C         41.2800   72.6360   64.4280 C.2   621  THR621      0.2313
    182  O         42.0800   72.1230   65.2210 O.2   621  THR621     -0.2863
    183  CB        38.9190   72.9190   65.2830 C.3   621  THR621      0.1794
    184  OG1       38.3430   72.3330   64.1070 O.3   621  THR621     -0.2208
    185  CG2       37.9340   73.9260   65.8790 C.3   621  THR621      0.0378
@<TRIPOS>BOND
     1    25    24    2
     2    56    55    2
     3    24    23    1
     4    18    17    2
     5    17    16    1
     6    30    31    1
     7    55    54    1
     8    31    32    1
     9    31    34    1
    10    33    32    2
    11    53    54    1
    12    22    23    1
    13    23    26    1
    14    19    16    1
    15    19    20    1
    16    16    15    1
    17    54    57    1
    18    32    39   am
    19    34    35    1
    20    50    49    2
    21    35    36    1
    22    49    48    1
    23    20    21    1
    24    26    27    1
    25    28    27   ar
    26    11    10    2
    27    57    58    1
    28    15    10   am
    29    15    21    1
    30    39    40    1
    31    27    29   ar
    32    58    59    1
    33    10     9    1
    34    47    48    1
    35    47    41   am
    36   152   153    1
    37    14    12    1
    38    48    51    1
    39    52    51    1
    40    36    38   ar
    41    36    37   ar
    42    40    41    1
    43    40    43    1
    44    41    42    2
    45    45    44   ar
    46    12     9    1
    47    12    13    1
    48   155   154    2
    49   157   156    1
    50    59    60    1
    51     9     8    1
    52    60    61    2
    53   153   154    1
    54   153   156    1
    55    43    44    1
    56    44    46   ar
    57     8     3   am
    58    61    63    1
    59    61    62    1
    60     6     5    1
    61     3     4    2
    62     3     2    1
    63   170   167    1
    64   170   171    1
    65   173   171   ar
    66   167   168    1
    67   167   166    1
    68   168   169    2
    69     2     5    1
    70     2     1    1
    71   171   172   ar
    72    79    78   ar
    73     5     7    1
    74    69    68    1
    75    69    70    1
    76   174   175    1
    77   111   109   ar
    78    64    65    1
    79   110   109   ar
    80    68    65    1
    81   164   165    1
    82   164   163    1
    83    78    80   ar
    84    78    77    1
    85    70    71    1
    86   109   108    1
    87   175   178    1
    88   175   176    1
    89   144   142   ar
    90   144   143   ar
    91    65    66    1
    92    77    76    1
    93    67    66    2
    94   148   147    2
    95   142   140   ar
    96   143   141   ar
    97   163   162    1
    98   176   179   am
    99   176   177    2
   100   108   105    1
   101   179   180    1
   102   140   139   ar
   103   140   138   ar
   104   147   146    1
   105   184   183    1
   106   141   138   ar
   107    76    73    1
   108   160   159    1
   109   160   161    2
   110   123   122    1
   111   181   180    1
   112   181   182    2
   113   139   137   ar
   114   138   136   ar
   115    75    74    2
   116   162   159    1
   117   146   149    1
   118   146   145    1
   119   105   104    1
   120   105   106    1
   121   159   158    1
   122    74    73    1
   123   180   183    1
   124    72    73    1
   125   183   185    1
   126   149   150    1
   127   107   106    2
   128   137   136   ar
   129   104    98   am
   130   136   135    1
   131   145   151    1
   132   122   121    1
   133   135   132    1
   134    82    81    1
   135    82    83    1
   136   121   120    1
   137    98    99    2
   138    98    97    1
   139   150   151    1
   140    84    83    2
   141   100    97    1
   142   100   101    1
   143   120   117    1
   144   132   133    1
   145   132   131    1
   146    83    85   am
   147   102   101    1
   148    97    96    1
   149   133   134    2
   150    96    87   am
   151   101   103    1
   152   130   128    1
   153   117   116    1
   154   117   118    1
   155    85    86    1
   156   127   126    2
   157   128   125    1
   158   128   129    1
   159   116   114   am
   160   125   126    1
   161   125   124    1
   162    87    88    2
   163    87    86    1
   164   113   114    1
   165   113   112    1
   166    86    89    1
   167   114   115    2
   168   118   119    2
   169    91    93   ar
   170    91    90   ar
   171    93    95   ar
   172    89    90    1
   173    90    92   ar
   174    95    94   ar
   175    92    94   ar
