@<TRIPOS>MOLECULE
tmp/6dntA01.pdb
 242 234 0 0 0
SMALL
GASTEIGER

@<TRIPOS>ATOM
      1  N         24.4500  -27.7670  -14.2910 N.3    80  ALA80      -0.1231
      2  CA        23.9290  -26.4400  -14.0320 C.3    80  ALA80       0.1694
      3  C         25.0870  -25.4590  -14.0590 C.2    80  ALA80       0.2593
      4  O         25.5670  -25.0120  -13.0070 O.2    80  ALA80      -0.2718
      5  CB        23.2240  -26.4250  -12.6800 C.3    80  ALA80       0.0304
      6  N         25.5340  -25.1260  -15.2650 N.am   81  SER81      -0.1938
      7  CA        26.5920  -24.1340  -15.4330 C.3    81  SER81       0.2055
      8  C         26.5770  -23.4570  -16.7940 C.2    81  SER81       0.2642
      9  O         26.6990  -24.1080  -17.8340 O.2    81  SER81      -0.2714
     10  CB        27.9560  -24.7450  -15.1860 C.3    81  SER81       0.2130
     11  OG        28.9900  -23.7850  -15.3730 O.3    81  SER81      -0.2179
     12  N         26.4610  -22.1400  -16.7690 N.am   82  VAL82      -0.1977
     13  CA        26.5840  -21.3330  -17.9760 C.3    82  VAL82       0.1596
     14  C         27.9800  -21.4720  -18.5980 C.2    82  VAL82       0.2287
     15  O         28.1050  -21.9030  -19.7340 O.2    82  VAL82      -0.2864
     16  CB        26.1720  -19.8650  -17.7080 C.3    82  VAL82       0.0276
     17  CG1       26.5830  -18.9470  -18.8430 C.3    82  VAL82       0.0022
     18  CG2       24.6640  -19.7900  -17.4610 C.3    82  VAL82       0.0022
     19  N         15.4690  -21.5250  -15.6790 N.3   120  SER120     -0.1202
     20  CA        16.3600  -20.4660  -15.2290 C.3   120  SER120      0.2020
     21  C         16.0410  -19.1680  -15.9230 C.2   120  SER120      0.2619
     22  O         15.7080  -19.1630  -17.1060 O.2   120  SER120     -0.2717
     23  CB        17.8120  -20.8440  -15.5700 C.3   120  SER120      0.2103
     24  OG        18.6830  -19.7800  -15.2550 O.3   120  SER120     -0.2182
     25  N         16.2120  -18.0620  -15.2120 N.am  121  SER121     -0.1937
     26  CA        16.1660  -16.7460  -15.8380 C.3   121  SER121      0.2055
     27  C         17.2510  -16.5370  -16.9270 C.2   121  SER121      0.2642
     28  O         17.1760  -15.5780  -17.6960 O.2   121  SER121     -0.2714
     29  CB        16.3050  -15.6600  -14.7710 C.3   121  SER121      0.2130
     30  OG        17.6250  -15.6440  -14.2660 O.3   121  SER121     -0.2179
     31  N         18.2550  -17.4210  -17.0150 N.am  122  ALA122     -0.1977
     32  CA        19.2220  -17.3910  -18.1190 C.3   122  ALA122      0.1597
     33  C         18.5500  -17.4170  -19.4880 C.2   122  ALA122      0.2287
     34  O         19.0900  -16.8790  -20.4530 O.2   122  ALA122     -0.2864
     35  CB        20.2220  -18.5370  -18.0070 C.3   122  ALA122      0.0319
     36  N         23.8090  -23.6420  -22.2270 N.3   144  TYR144     -0.1241
     37  CA        22.9770  -23.8920  -21.0500 C.3   144  TYR144      0.1605
     38  C         21.6130  -23.2240  -21.1560 C.2   144  TYR144      0.2264
     39  O         20.5730  -23.8570  -20.9050 O.2   144  TYR144     -0.2867
     40  CB        23.6810  -23.4230  -19.7690 C.3   144  TYR144      0.0534
     41  CG        22.7640  -23.4730  -18.5680 C.ar  144  TYR144     -0.0201
     42  CD1       22.5480  -24.6640  -17.8910 C.ar  144  TYR144     -0.0009
     43  CD2       22.0920  -22.3280  -18.1230 C.ar  144  TYR144     -0.0009
     44  CE1       21.6990  -24.7210  -16.8070 C.ar  144  TYR144      0.0417
     45  CE2       21.2200  -22.3790  -17.0530 C.ar  144  TYR144      0.0417
     46  CZ        21.0280  -23.5900  -16.3980 C.ar  144  TYR144      0.1957
     47  OH        20.1740  -23.6280  -15.3300 O.3   144  TYR144     -0.2866
     48  N         13.9910  -20.0040  -12.1650 N.3   171  TYR171     -0.1227
     49  CA        14.6320  -19.4840  -10.9500 C.3   171  TYR171      0.1736
     50  C         15.5310  -18.3180  -11.3030 C.2   171  TYR171      0.2595
     51  O         16.2020  -18.3150  -12.3350 O.2   171  TYR171     -0.2718
     52  CB        15.5060  -20.5180  -10.2330 C.3   171  TYR171      0.0548
     53  CG        14.8720  -21.8570   -9.9440 C.ar  171  TYR171     -0.0200
     54  CD1       13.5050  -21.9870   -9.7330 C.ar  171  TYR171     -0.0009
     55  CD2       15.6600  -22.9900   -9.8770 C.ar  171  TYR171     -0.0009
     56  CE1       12.9370  -23.2280   -9.4640 C.ar  171  TYR171      0.0417
     57  CE2       15.1110  -24.2330   -9.6030 C.ar  171  TYR171      0.0417
     58  CZ        13.7490  -24.3430   -9.4080 C.ar  171  TYR171      0.1957
     59  OH        13.2050  -25.5800   -9.1410 O.3   171  TYR171     -0.2866
     60  N         15.5630  -17.3390  -10.4110 N.am  172  PHE172     -0.1962
     61  CA        16.5200  -16.2550  -10.5200 C.3   172  PHE172      0.1771
     62  C         17.7040  -16.6600   -9.6360 C.2   172  PHE172      0.2620
     63  O         18.1180  -17.8320   -9.6840 O.2   172  PHE172     -0.2715
     64  CB        15.8220  -14.9020  -10.2720 C.3   172  PHE172      0.0574
     65  CG        15.0570  -14.4110  -11.4760 C.ar  172  PHE172     -0.0200
     66  CD1       13.9470  -15.1200  -11.9540 C.ar  172  PHE172     -0.0042
     67  CD2       15.4580  -13.2690  -12.1580 C.ar  172  PHE172     -0.0042
     68  CE1       13.2670  -14.6940  -13.0860 C.ar  172  PHE172     -0.0003
     69  CE2       14.7740  -12.8300  -13.2760 C.ar  172  PHE172     -0.0003
     70  CZ        13.6760  -13.5390  -13.7470 C.ar  172  PHE172     -0.0000
     71  N         18.3110  -15.7630   -8.8850 N.am  173  ASN173     -0.1958
     72  CA        19.5810  -16.1020   -8.2350 C.3   173  ASN173      0.1819
     73  C         19.3670  -16.7960   -6.9090 C.2   173  ASN173      0.2621
     74  O         19.1390  -16.1580   -5.8910 O.2   173  ASN173     -0.2715
     75  CB        20.4400  -14.8500   -8.0700 C.3   173  ASN173      0.1195
     76  CG        21.0460  -14.4080   -9.3760 C.2   173  ASN173      0.2630
     77  OD1       20.3210  -14.1030  -10.3440 O.2   173  ASN173     -0.2716
     78  ND2       22.3720  -14.3880   -9.4360 N.am  173  ASN173     -0.0877
     79  N         19.4440  -18.1200   -6.9290 N.am  174  VAL174     -0.1977
     80  CA        19.1770  -18.8930   -5.7250 C.3   174  VAL174      0.1596
     81  C         20.3820  -18.8260   -4.7860 C.2   174  VAL174      0.2287
     82  O         21.5220  -18.7870   -5.2350 O.2   174  VAL174     -0.2864
     83  CB        18.8160  -20.3530   -6.0610 C.3   174  VAL174      0.0276
     84  CG1       18.3500  -21.1020   -4.8150 C.3   174  VAL174      0.0022
     85  CG2       17.7380  -20.3900   -7.1500 C.3   174  VAL174      0.0022
     86  N         24.8340  -24.6510   -0.9550 N.3   179  GLN179     -0.1245
     87  CA        25.2820  -24.1550   -2.2510 C.3   179  GLN179      0.1566
     88  C         26.7900  -24.2770   -2.3670 C.2   179  GLN179      0.2260
     89  O         27.5100  -24.0330   -1.3960 O.2   179  GLN179     -0.2867
     90  CB        24.8530  -22.7130   -2.4250 C.3   179  GLN179      0.0367
     91  CG        25.0440  -22.1750   -3.8270 C.3   179  GLN179      0.0905
     92  CD        24.3510  -20.8480   -4.0230 C.2   179  GLN179      0.2608
     93  OE1       24.1580  -20.0820   -3.0730 O.2   179  GLN179     -0.2717
     94  NE2       23.9220  -20.5860   -5.2440 N.am  179  GLN179     -0.0878
     95  N         33.4560  -21.1380  -10.8530 N.3   185  TYR185     -0.1227
     96  CA        32.1730  -20.5730  -11.2470 C.3   185  TYR185      0.1736
     97  C         31.1760  -20.2760  -10.1000 C.2   185  TYR185      0.2595
     98  O         30.0800  -19.7690  -10.3630 O.2   185  TYR185     -0.2718
     99  CB        31.4600  -21.5660  -12.1820 C.3   185  TYR185      0.0548
    100  CG        32.2230  -22.1200  -13.3890 C.ar  185  TYR185     -0.0200
    101  CD1       33.1120  -21.3420  -14.1150 C.ar  185  TYR185     -0.0009
    102  CD2       31.9730  -23.4140  -13.8430 C.ar  185  TYR185     -0.0009
    103  CE1       33.7700  -21.8550  -15.2320 C.ar  185  TYR185      0.0417
    104  CE2       32.6160  -23.9310  -14.9560 C.ar  185  TYR185      0.0417
    105  CZ        33.5100  -23.1520  -15.6510 C.ar  185  TYR185      0.1957
    106  OH        34.1420  -23.6790  -16.7660 O.3   185  TYR185     -0.2866
    107  N         31.5290  -20.5730   -8.8450 N.am  186  ALA186     -0.1966
    108  CA        30.5540  -20.5670   -7.7440 C.3   186  ALA186      0.1728
    109  C         29.8740  -19.2220   -7.5660 C.2   186  ALA186      0.2616
    110  O         30.4430  -18.1730   -7.9140 O.2   186  ALA186     -0.2715
    111  CB        31.2050  -20.9880   -6.4410 C.3   186  ALA186      0.0334
    112  N         28.6590  -19.2760   -7.0420 N.am  187  ALA187     -0.1963
    113  CA        27.7900  -18.1150   -6.9000 C.3   187  ALA187      0.1728
    114  C         28.3270  -17.1050   -5.8890 C.2   187  ALA187      0.2616
    115  O         29.0910  -17.4550   -4.9780 O.2   187  ALA187     -0.2715
    116  CB        26.4200  -18.5530   -6.4780 C.3   187  ALA187      0.0334
    117  N         27.9050  -15.8560   -6.0570 N.am  188  VAL188     -0.1977
    118  CA        28.4850  -14.7340   -5.3090 C.3   188  VAL188      0.1596
    119  C         28.2750  -14.8060   -3.7940 C.2   188  VAL188      0.2287
    120  O         29.1950  -14.5140   -3.0380 O.2   188  VAL188     -0.2864
    121  CB        27.9660  -13.3790   -5.8680 C.3   188  VAL188      0.0276
    122  CG1       26.4580  -13.2320   -5.6660 C.3   188  VAL188      0.0022
    123  CG2       28.7400  -12.2050   -5.2620 C.3   188  VAL188      0.0022
    124  N         30.6700  -17.3360   -2.3650 N.3   191  LYS191     -0.1231
    125  CA        32.0350  -16.8250   -2.4850 C.3   191  LYS191      0.1693
    126  C         32.3220  -15.7490   -1.4460 C.2   191  LYS191      0.2592
    127  O         33.3850  -15.7720   -0.8180 O.2   191  LYS191     -0.2718
    128  CB        32.3170  -16.2920   -3.8840 C.3   191  LYS191      0.0285
    129  CG        32.5630  -17.4000   -4.8850 C.3   191  LYS191      0.0035
    130  CD        32.8830  -16.8550   -6.2570 C.3   191  LYS191      0.0206
    131  CE        34.3090  -16.3320   -6.3620 C.3   191  LYS191      0.1093
    132  NZ        34.6110  -15.6560   -7.6570 N.3   191  LYS191     -0.1314
    133  N         31.3870  -14.8240   -1.2640 N.am  192  PHE192     -0.1976
    134  CA        31.5370  -13.7420   -0.2450 C.3   192  PHE192      0.1639
    135  C         31.6330  -14.3300    1.1600 C.2   192  PHE192      0.2290
    136  O         32.5680  -14.0140    1.9080 O.2   192  PHE192     -0.2864
    137  CB        30.3880  -12.7500   -0.3140 C.3   192  PHE192      0.0560
    138  CG        30.5090  -11.7210   -1.4230 C.ar  192  PHE192     -0.0200
    139  CD1       31.5160  -11.7810   -2.3930 C.ar  192  PHE192     -0.0042
    140  CD2       29.5810  -10.7030   -1.5010 C.ar  192  PHE192     -0.0042
    141  CE1       31.6120  -10.8120   -3.3850 C.ar  192  PHE192     -0.0003
    142  CE2       29.6550   -9.7520   -2.5040 C.ar  192  PHE192     -0.0003
    143  CZ        30.6700   -9.8100   -3.4420 C.ar  192  PHE192     -0.0000
    144  N         36.0690  -10.6750   -4.0440 N.3   203  VAL203     -0.1231
    145  CA        36.2800   -9.8980   -5.2580 C.3   203  VAL203      0.1692
    146  C         34.9480   -9.5670   -5.8870 C.2   203  VAL203      0.2592
    147  O         34.0090  -10.3610   -5.8180 O.2   203  VAL203     -0.2718
    148  CB        37.1630  -10.6230   -6.3060 C.3   203  VAL203      0.0266
    149  CG1       38.5690  -10.8450   -5.7760 C.3   203  VAL203      0.0020
    150  CG2       36.5700  -11.9640   -6.7360 C.3   203  VAL203      0.0020
    151  N         34.8760   -8.3760   -6.4770 N.am  204  ILE204     -0.1966
    152  CA        33.7490   -7.9670   -7.3000 C.3   204  ILE204      0.1727
    153  C         34.2320   -7.8130   -8.7490 C.2   204  ILE204      0.2616
    154  O         35.2580   -7.1950   -9.0000 O.2   204  ILE204     -0.2715
    155  CB        33.0850   -6.6810   -6.7540 C.3   204  ILE204      0.0290
    156  CG1       32.3080   -7.0330   -5.4810 C.3   204  ILE204      0.0022
    157  CG2       32.1480   -6.0620   -7.7900 C.3   204  ILE204      0.0023
    158  CD1       31.7800   -5.8670   -4.6750 C.3   204  ILE204      0.0001
    159  N         33.4810   -8.3870   -9.6910 N.am  205  TYR205     -0.1974
    160  CA        33.8060   -8.3010  -11.1110 C.3   205  TYR205      0.1639
    161  C         33.0440   -7.1250  -11.7040 C.2   205  TYR205      0.2290
    162  O         31.8560   -7.2260  -11.9990 O.2   205  TYR205     -0.2864
    163  CB        33.4150   -9.5870  -11.8190 C.3   205  TYR205      0.0560
    164  CG        34.0750  -10.8070  -11.2350 C.ar  205  TYR205     -0.0198
    165  CD1       35.4440  -10.9430  -11.2550 C.ar  205  TYR205     -0.0009
    166  CD2       33.3130  -11.8400  -10.7000 C.ar  205  TYR205     -0.0009
    167  CE1       36.0640  -12.0660  -10.7140 C.ar  205  TYR205      0.0417
    168  CE2       33.9150  -12.9640  -10.1730 C.ar  205  TYR205      0.0417
    169  CZ        35.2840  -13.0660  -10.1740 C.ar  205  TYR205      0.1957
    170  OH        35.8720  -14.2010   -9.6590 O.3   205  TYR205     -0.2866
    171  N         26.0800   -3.6620  -10.5710 N.3   210  GLN210     -0.1245
    172  CA        25.2660   -4.7600  -11.1090 C.3   210  GLN210      0.1566
    173  C         24.3240   -5.2820  -10.0380 C.2   210  GLN210      0.2260
    174  O         24.6610   -5.2580   -8.8450 O.2   210  GLN210     -0.2867
    175  CB        26.1360   -5.9050  -11.6260 C.3   210  GLN210      0.0367
    176  CG        27.0060   -6.5700  -10.5810 C.3   210  GLN210      0.0905
    177  CD        28.4610   -6.2600  -10.7540 C.2   210  GLN210      0.2608
    178  OE1       28.8640   -5.0940  -10.7170 O.2   210  GLN210     -0.2717
    179  NE2       29.2720   -7.2940  -10.9210 N.am  210  GLN210     -0.0878
    180  N         21.0140   -8.1830   -8.8760 N.3   212  ARG212     -0.1245
    181  CA        20.3200   -9.4650   -9.0470 C.3   212  ARG212      0.1563
    182  C         19.1020   -9.5640   -8.1470 C.2   212  ARG212      0.2260
    183  O         19.0020   -8.8710   -7.1330 O.2   212  ARG212     -0.2867
    184  CB        21.2710  -10.6200   -8.7510 C.3   212  ARG212      0.0307
    185  CG        22.4990  -10.7250   -9.6510 C.3   212  ARG212      0.0489
    186  CD        22.1200  -11.1450  -11.0630 C.3   212  ARG212      0.2205
    187  NE        23.2430  -11.3600  -11.9530 N.pl3 212  ARG212     -0.0865
    188  CZ        23.7850  -10.4560  -12.7620 C.cat 212  ARG212      0.5346
    189  NH1       23.3360   -9.1970  -12.7740 N.pl3 212  ARG212      0.1354
    190  NH2       24.7800  -10.8170  -13.5700 N.pl3 212  ARG212      0.1354
    191  N         17.7110  -11.9890   -5.8440 N.3   214  PHE214     -0.1241
    192  CA        18.0950  -13.1630   -5.0510 C.3   214  PHE214      0.1605
    193  C         16.8750  -13.7990   -4.4210 C.2   214  PHE214      0.2264
    194  O         15.9380  -13.1130   -4.0040 O.2   214  PHE214     -0.2867
    195  CB        19.1070  -12.7920   -3.9570 C.3   214  PHE214      0.0534
    196  CG        20.4390  -12.3650   -4.4880 C.ar  214  PHE214     -0.0203
    197  CD1       21.3490  -13.3000   -4.9620 C.ar  214  PHE214     -0.0042
    198  CD2       20.7940  -11.0150   -4.5430 C.ar  214  PHE214     -0.0042
    199  CE1       22.5810  -12.9200   -5.4520 C.ar  214  PHE214     -0.0003
    200  CE2       22.0280  -10.6330   -5.0470 C.ar  214  PHE214     -0.0003
    201  CZ        22.9300  -11.5810   -5.4890 C.ar  214  PHE214     -0.0000
    202  N         25.4780   -5.7760   -6.0290 N.3   246  ILE246     -0.1245
    203  CA        26.5240   -6.5820   -5.4390 C.3   246  ILE246      0.1561
    204  C         27.2880   -5.7830   -4.3790 C.2   246  ILE246      0.2260
    205  O         27.6750   -6.3500   -3.3590 O.2   246  ILE246     -0.2867
    206  CB        27.4370   -7.2190   -6.5030 C.3   246  ILE246      0.0252
    207  CG1       26.6150   -8.1390   -7.4330 C.3   246  ILE246      0.0019
    208  CG2       28.5560   -8.0190   -5.8500 C.3   246  ILE246      0.0019
    209  CD1       25.7140   -9.1350   -6.7240 C.3   246  ILE246      0.0001
    210  N         33.4000   -9.6380  -15.7790 N.3   269  ARG269     -0.1245
    211  CA        33.4800  -10.9470  -16.4200 C.3   269  ARG269      0.1563
    212  C         32.7360  -10.8870  -17.7310 C.2   269  ARG269      0.2260
    213  O         31.6250  -10.3730  -17.7650 O.2   269  ARG269     -0.2867
    214  CB        32.8120  -12.0360  -15.5970 C.3   269  ARG269      0.0307
    215  CG        33.5860  -12.4730  -14.3900 C.3   269  ARG269      0.0489
    216  CD        33.0620  -13.7900  -13.8470 C.3   269  ARG269      0.2205
    217  NE        31.6180  -13.7490  -13.6090 N.pl3 269  ARG269     -0.0865
    218  CZ        30.9650  -14.5100  -12.7250 C.cat 269  ARG269      0.5346
    219  NH1       31.6040  -15.4200  -11.9790 N.pl3 269  ARG269      0.1354
    220  NH2       29.6470  -14.3570  -12.5960 N.pl3 269  ARG269      0.1354
    221  N         28.5910  -11.5420  -18.1410 N.3   272  ASP272     -0.1225
    222  CA        27.7550  -11.0530  -17.0400 C.3   272  ASP272      0.1805
    223  C         26.8250   -9.9460  -17.5060 C.2   272  ASP272      0.2597
    224  O         27.2850   -8.9250  -17.9970 O.2   272  ASP272     -0.2718
    225  CB        28.6020  -10.4800  -15.8900 C.3   272  ASP272      0.1424
    226  CG        29.1660  -11.5410  -14.9560 C.2   272  ASP272      0.3668
    227  OD1       28.7890  -12.7360  -15.0150 O.co2 272  ASP272     -0.2456
    228  OD2       30.0010  -11.1540  -14.1100 O.co2 272  ASP272     -0.2456
    229  N         25.5240  -10.1500  -17.3660 N.am  273  ILE273     -0.1980
    230  CA        24.5780   -9.0570  -17.6100 C.3   273  ILE273      0.1595
    231  C         24.5870   -8.1190  -16.4030 C.2   273  ILE273      0.2287
    232  O         24.8830   -8.5340  -15.2810 O.2   273  ILE273     -0.2864
    233  CB        23.1630   -9.5510  -17.9700 C.3   273  ILE273      0.0276
    234  CG1       22.4560  -10.2120  -16.7870 C.3   273  ILE273      0.0022
    235  CG2       23.2420  -10.4700  -19.1880 C.3   273  ILE273      0.0022
    236  CD1       21.0160  -10.5800  -17.0930 C.3   273  ILE273      0.0001
    237  N         19.3170   -7.7530  -13.5120 N.3   276  SER276     -0.1217
    238  CA        18.3490   -8.8300  -13.6500 C.3   276  SER276      0.1889
    239  C         17.2820   -8.6560  -12.5790 C.2   276  SER276      0.2288
    240  O         17.6040   -8.5180  -11.3960 O.2   276  SER276     -0.2866
    241  CB        19.0460  -10.1740  -13.4780 C.3   276  SER276      0.2089
    242  OG        18.1020  -11.2020  -13.3990 O.3   276  SER276     -0.2183
@<TRIPOS>BOND
     1    36    37    1
     2    38    37    1
     3    38    39    2
     4    37    40    1
     5    34    33    2
     6    40    41    1
     7    15    14    2
     8    33    32    1
     9   235   233    1
    10    17    16    1
    11    14    13    1
    12    41    43   ar
    13    41    42   ar
    14   221   222    1
    15    43    45   ar
    16    32    35    1
    17    32    31    1
    18   224   223    2
    19    13    16    1
    20    13    12    1
    21   233   230    1
    22   233   234    1
    23    42    44   ar
    24     9     8    2
    25   213   212    2
    26   212   211    1
    27    16    18    1
    28    28    27    2
    29   230   229    1
    30   230   231    1
    31   223   229   am
    32   223   222    1
    33    22    21    2
    34   236   234    1
    35    45    46   ar
    36   222   225    1
    37    31    27   am
    38    27    26    1
    39    44    46   ar
    40     8    12   am
    41     8     7    1
    42   106   105    1
    43   211   210    1
    44   211   214    1
    45   231   232    2
    46    46    47    1
    47    21    20    1
    48    21    25   am
    49   225   226    1
    50    26    25    1
    51    26    29    1
    52    19    20    1
    53   105   103   ar
    54   105   104   ar
    55   214   215    1
    56    23    24    1
    57    23    20    1
    58     7     6    1
    59     7    10    1
    60    11    10    1
    61     6     3   am
    62   103   101   ar
    63   227   226   ar
    64   226   228   ar
    65   104   102   ar
    66    29    30    1
    67   215   216    1
    68     1     2    1
    69   101   100   ar
    70     3     2    1
    71     3     4    2
    72     2     5    1
    73   216   217    1
    74   102   100   ar
    75    70    69   ar
    76    70    68   ar
    77   238   237    1
    78   238   241    1
    79   238   239    1
    80   217   218    2
    81   190   188    1
    82   241   242    1
    83   100    99    1
    84    69    67   ar
    85    68    66   ar
    86   189   188    1
    87   188   187    2
    88   218   220    1
    89   218   219    1
    90   239   240    2
    91    51    50    2
    92    99    96    1
    93    48    49    1
    94    67    65   ar
    95   162   161    2
    96    66    65   ar
    97   187   186    1
    98   163   164    1
    99   163   160    1
   100   161   160    1
   101   175   172    1
   102   175   176    1
   103    65    64    1
   104    50    49    1
   105    50    60   am
   106   165   164   ar
   107   165   167   ar
   108    96    95    1
   109    96    97    1
   110   164   166   ar
   111   160   159    1
   112   172   171    1
   113   172   173    1
   114   186   185    1
   115    49    52    1
   116   179   177   am
   117   177   178    2
   118   177   176    1
   119   167   169   ar
   120   166   168   ar
   121    61    60    1
   122    61    64    1
   123    61    62    1
   124    98    97    2
   125    77    76    2
   126    52    53    1
   127   169   168   ar
   128   169   170    1
   129    97   107   am
   130   173   174    2
   131    53    55   ar
   132    53    54   ar
   133    55    57   ar
   134    54    56   ar
   135   159   153   am
   136    63    62    2
   137   185   184    1
   138    62    71   am
   139    57    58   ar
   140    56    58   ar
   141    78    76   am
   142    58    59    1
   143    76    75    1
   144   181   180    1
   145   181   184    1
   146   181   182    1
   147   154   153    2
   148    71    72    1
   149   107   108    1
   150   153   152    1
   151    72    75    1
   152    72    73    1
   153   182   183    2
   154   110   109    2
   155   157   155    1
   156   108   109    1
   157   108   111    1
   158   132   131    1
   159   109   112   am
   160   207   209    1
   161   207   206    1
   162   152   155    1
   163   152   151    1
   164    85    83    1
   165   112   113    1
   166    79    73   am
   167    79    80    1
   168    73    74    2
   169   113   116    1
   170   113   114    1
   171   155   156    1
   172   150   148    1
   173   206   208    1
   174   206   203    1
   175   151   146   am
   176   131   130    1
   177   148   149    1
   178   148   145    1
   179   130   129    1
   180    83    80    1
   181    83    84    1
   182   117   114   am
   183   117   118    1
   184   202   203    1
   185   114   115    2
   186   146   147    2
   187   146   145    1
   188   121   122    1
   189   121   118    1
   190   121   123    1
   191   191   192    1
   192    80    81    1
   193   201   199   ar
   194   201   200   ar
   195   156   158    1
   196   199   197   ar
   197   203   204    1
   198   118   119    1
   199   145   144    1
   200    94    92   am
   201    82    81    2
   202   192   193    1
   203   192   195    1
   204   200   198   ar
   205   197   196   ar
   206   129   128    1
   207   198   196   ar
   208   196   195    1
   209   193   194    2
   210   204   205    2
   211    92    91    1
   212    92    93    2
   213   128   125    1
   214    91    90    1
   215   119   120    2
   216   143   141   ar
   217   143   142   ar
   218   141   139   ar
   219   142   140   ar
   220   125   124    1
   221   125   126    1
   222    90    87    1
   223   139   138   ar
   224    88    87    1
   225    88    89    2
   226    87    86    1
   227   140   138   ar
   228   126   133   am
   229   126   127    2
   230   138   137    1
   231   133   134    1
   232   137   134    1
   233   134   135    1
   234   135   136    2
