@<TRIPOS>MOLECULE
tmp/6do1B02.pdb
 93 91 0 0 0
SMALL
GASTEIGER

@<TRIPOS>ATOM
      1  N        -25.1510   64.3550   12.7890 N.3   197  PHE197     -0.1241
      2  CA       -25.9760   64.8780   11.7060 C.3   197  PHE197      0.1605
      3  C        -27.1620   65.6610   12.2530 C.2   197  PHE197      0.2264
      4  O        -27.4840   66.7430   11.7510 O.2   197  PHE197     -0.2867
      5  CB       -26.4600   63.7500   10.7980 C.3   197  PHE197      0.0534
      6  CG       -27.2570   64.2300    9.6230 C.ar  197  PHE197     -0.0203
      7  CD1      -26.6250   64.7980    8.5310 C.ar  197  PHE197     -0.0042
      8  CD2      -28.6380   64.1360    9.6180 C.ar  197  PHE197     -0.0042
      9  CE1      -27.3530   65.2510    7.4500 C.ar  197  PHE197     -0.0003
     10  CE2      -29.3730   64.5900    8.5410 C.ar  197  PHE197     -0.0003
     11  CZ       -28.7290   65.1480    7.4550 C.ar  197  PHE197     -0.0000
     12  N        -27.3910   69.4720   11.3080 N.3   201  LEU201     -0.1245
     13  CA       -28.5990   69.8990   10.6070 C.3   201  LEU201      0.1561
     14  C        -29.3450   70.9720   11.3870 C.2   201  LEU201      0.2260
     15  O        -29.8030   71.9650   10.8110 O.2   201  LEU201     -0.2867
     16  CB       -29.5120   68.7000   10.3580 C.3   201  LEU201      0.0270
     17  CG       -30.8020   68.9770    9.5930 C.3   201  LEU201      0.0019
     18  CD1      -30.4710   69.4570    8.2010 C.3   201  LEU201      0.0001
     19  CD2      -31.6650   67.7290    9.5410 C.3   201  LEU201      0.0001
     20  N        -29.7540   74.7470    9.9720 N.3   205  THR205     -0.1218
     21  CA       -31.1340   75.1010    9.6490 C.3   205  THR205      0.1862
     22  C        -31.5830   76.3250   10.4400 C.2   205  THR205      0.2287
     23  O        -32.3320   77.1650    9.9250 O.2   205  THR205     -0.2866
     24  CB       -32.0680   73.9130    9.9080 C.3   205  THR205      0.1770
     25  OG1      -31.7110   72.8260    9.0440 O.3   205  THR205     -0.2211
     26  CG2      -33.5190   74.2960    9.6430 C.3   205  THR205      0.0375
     27  N        -30.1830   79.1080    8.6050 N.3   208  TRP208     -0.1241
     28  CA       -31.0250   79.2760    7.4230 C.3   208  TRP208      0.1605
     29  C        -32.2460   80.1340    7.7370 C.2   208  TRP208      0.2264
     30  O        -32.5320   81.1140    7.0400 O.2   208  TRP208     -0.2867
     31  CB       -31.4520   77.9020    6.8990 C.3   208  TRP208      0.0550
     32  CG       -32.1600   77.9070    5.5710 C.ar  208  TRP208      0.0003
     33  CD1      -33.3890   78.4330    5.2940 C.ar  208  TRP208      0.0946
     34  CD2      -31.6950   77.3130    4.3520 C.ar  208  TRP208      0.0152
     35  NE1      -33.7050   78.2260    3.9720 N.ar  208  TRP208     -0.2442
     36  CE2      -32.6830   77.5380    3.3730 C.ar  208  TRP208      0.0810
     37  CE3      -30.5330   76.6240    3.9910 C.ar  208  TRP208      0.0012
     38  CZ2      -32.5450   77.0970    2.0570 C.ar  208  TRP208      0.0191
     39  CZ3      -30.3990   76.1860    2.6850 C.ar  208  TRP208      0.0001
     40  CH2      -31.3990   76.4240    1.7350 C.ar  208  TRP208      0.0015
     41  N        -24.9910   76.4800    2.1480 N.3   229  ILE229     -0.1231
     42  CA       -25.3900   75.7410    3.3470 C.3   229  ILE229      0.1692
     43  C        -25.9410   74.3700    2.9820 C.2   229  ILE229      0.2591
     44  O        -25.6180   73.3640    3.6260 O.2   229  ILE229     -0.2718
     45  CB       -26.4060   76.5550    4.1690 C.3   229  ILE229      0.0266
     46  CG1      -25.7370   77.7840    4.7870 C.3   229  ILE229      0.0019
     47  CG2      -27.0410   75.6890    5.2510 C.3   229  ILE229      0.0020
     48  CD1      -26.6390   78.5700    5.7160 C.3   229  ILE229      0.0001
     49  N        -26.7850   74.3060    1.9490 N.am  230  MET230     -0.1979
     50  CA       -27.3650   73.0290    1.5470 C.3   230  MET230      0.1605
     51  C        -26.2860   72.0290    1.1570 C.2   230  MET230      0.2287
     52  O        -26.4080   70.8320    1.4410 O.2   230  MET230     -0.2864
     53  CB       -28.3300   73.2360    0.3820 C.3   230  MET230      0.0413
     54  CG       -29.4190   72.1850    0.2610 C.3   230  MET230      0.0598
     55  SD       -30.7820   72.7790   -0.7550 S.3   230  MET230     -0.1393
     56  CE       -29.8820   73.3180   -2.2060 C.3   230  MET230      0.0692
     57  N        -24.4430   70.4790    4.5570 N.3   233  VAL233     -0.1231
     58  CA       -25.1660   69.3630    5.1680 C.3   233  VAL233      0.1692
     59  C        -25.1160   68.1350    4.2660 C.2   233  VAL233      0.2591
     60  O        -24.6850   67.0530    4.6820 O.2   233  VAL233     -0.2718
     61  CB       -26.6150   69.7660    5.4880 C.3   233  VAL233      0.0266
     62  CG1      -27.3270   68.6320    6.2080 C.3   233  VAL233      0.0020
     63  CG2      -26.6420   71.0320    6.3290 C.3   233  VAL233      0.0020
     64  N        -25.5670   68.2880    3.0160 N.am  234  LEU234     -0.1980
     65  CA       -25.6380   67.1590    2.0900 C.3   234  LEU234      0.1596
     66  C        -24.2670   66.5530    1.8340 C.2   234  LEU234      0.2287
     67  O        -24.1310   65.3260    1.7450 O.2   234  LEU234     -0.2864
     68  CB       -26.2760   67.6020    0.7740 C.3   234  LEU234      0.0297
     69  CG       -27.7560   67.9630    0.8690 C.3   234  LEU234      0.0022
     70  CD1      -28.2730   68.6060   -0.4150 C.3   234  LEU234      0.0001
     71  CD2      -28.5170   66.6950    1.1720 C.3   234  LEU234      0.0001
     72  N        -23.8230   64.4270    4.5610 N.3   237  PHE237     -0.1227
     73  CA       -24.7720   63.3180    4.5660 C.3   237  PHE237      0.1736
     74  C        -24.3930   62.2640    3.5300 C.2   237  PHE237      0.2595
     75  O        -24.1750   61.0940    3.8650 O.2   237  PHE237     -0.2718
     76  CB       -26.1870   63.8530    4.3250 C.3   237  PHE237      0.0547
     77  CG       -27.2520   62.7930    4.3250 C.ar  237  PHE237     -0.0202
     78  CD1      -27.8200   62.3690    5.5140 C.ar  237  PHE237     -0.0042
     79  CD2      -27.6990   62.2360    3.1390 C.ar  237  PHE237     -0.0042
     80  CE1      -28.8040   61.4010    5.5240 C.ar  237  PHE237     -0.0003
     81  CE2      -28.6840   61.2650    3.1420 C.ar  237  PHE237     -0.0003
     82  CZ       -29.2380   60.8490    4.3370 C.ar  237  PHE237     -0.0000
     83  N        -24.3120   62.6640    2.2590 N.am  238  PHE238     -0.1976
     84  CA       -24.1350   61.7170    1.1620 C.3   238  PHE238      0.1639
     85  C        -22.7410   61.1030    1.1060 C.2   238  PHE238      0.2290
     86  O        -22.5500   60.1250    0.3740 O.2   238  PHE238     -0.2864
     87  CB       -24.4520   62.3950   -0.1720 C.3   238  PHE238      0.0560
     88  CG       -25.9190   62.4600   -0.4790 C.ar  238  PHE238     -0.0200
     89  CD1      -26.6020   61.3250   -0.8840 C.ar  238  PHE238     -0.0042
     90  CD2      -26.6200   63.6470   -0.3490 C.ar  238  PHE238     -0.0042
     91  CE1      -27.9520   61.3740   -1.1640 C.ar  238  PHE238     -0.0003
     92  CE2      -27.9710   63.7030   -0.6270 C.ar  238  PHE238     -0.0003
     93  CZ       -28.6390   62.5650   -1.0340 C.ar  238  PHE238     -0.0000
@<TRIPOS>BOND
     1    56    55    1
     2    91    93   ar
     3    91    89   ar
     4    93    92   ar
     5    89    88   ar
     6    55    54    1
     7    92    90   ar
     8    88    90   ar
     9    88    87    1
    10    70    69    1
    11    87    84    1
    12    54    53    1
    13    86    85    2
    14    53    50    1
    15    68    69    1
    16    68    65    1
    17    69    71    1
    18    85    84    1
    19    51    52    2
    20    51    50    1
    21    84    83    1
    22    50    49    1
    23    40    38   ar
    24    40    39   ar
    25    67    66    2
    26    66    65    1
    27    49    43   am
    28    38    36   ar
    29    65    64    1
    30    41    42    1
    31    83    74   am
    32    39    37   ar
    33    43    42    1
    34    43    44    2
    35    64    59   am
    36    79    81   ar
    37    79    77   ar
    38    81    82   ar
    39    42    45    1
    40    36    35   ar
    41    36    34   ar
    42    74    75    2
    43    74    73    1
    44    35    33   ar
    45    37    34   ar
    46    45    46    1
    47    45    47    1
    48    59    60    2
    49    59    58    1
    50    76    77    1
    51    76    73    1
    52    77    78   ar
    53    82    80   ar
    54    34    32   ar
    55    57    58    1
    56    72    73    1
    57    46    48    1
    58    58    61    1
    59    33    32   ar
    60    61    62    1
    61    61    63    1
    62    78    80   ar
    63    32    31    1
    64    31    28    1
    65    30    29    2
    66    28    29    1
    67    28    27    1
    68     9    11   ar
    69     9     7   ar
    70    11    10   ar
    71    18    17    1
    72     7     6   ar
    73    10     8   ar
    74    25    24    1
    75    19    17    1
    76    17    16    1
    77     8     6   ar
    78     6     5    1
    79    26    24    1
    80    21    24    1
    81    21    20    1
    82    21    22    1
    83    23    22    2
    84    16    13    1
    85    13    12    1
    86    13    14    1
    87     5     2    1
    88    15    14    2
    89     2     3    1
    90     2     1    1
    91     4     3    2
