@<TRIPOS>MOLECULE
tmp/6do1A01.pdb
 83 79 0 0 0
SMALL
GASTEIGER

@<TRIPOS>ATOM
      1  N         19.8930   40.3890   28.9120 N.3    17  ASN17      -0.1240
      2  CA        18.6680   40.9330   29.4930 C.3    17  ASN17       0.1653
      3  C         18.7540   42.4430   29.6880 C.2    17  ASN17       0.2266
      4  O         17.7790   43.1610   29.4390 O.2    17  ASN17      -0.2867
      5  CB        18.3630   40.2470   30.8280 C.3    17  ASN17       0.1155
      6  CG        18.3180   38.7330   30.7170 C.2    17  ASN17       0.2627
      7  OD1       19.2040   38.0360   31.2100 O.2    17  ASN17      -0.2716
      8  ND2       17.2710   38.2170   30.0790 N.am   17  ASN17      -0.0877
      9  N         18.2060   44.5400   26.4220 N.3    20  PHE20      -0.1227
     10  CA        16.8150   44.5360   25.9820 C.3    20  PHE20       0.1736
     11  C         15.9680   45.5620   26.7220 C.2    20  PHE20       0.2595
     12  O         14.9040   45.9460   26.2260 O.2    20  PHE20      -0.2718
     13  CB        16.2160   43.1430   26.1670 C.3    20  PHE20       0.0547
     14  CG        16.9370   42.0630   25.4120 C.ar   20  PHE20      -0.0202
     15  CD1       17.6080   42.3460   24.2320 C.ar   20  PHE20      -0.0042
     16  CD2       16.9460   40.7630   25.8870 C.ar   20  PHE20      -0.0042
     17  CE1       18.2690   41.3480   23.5390 C.ar   20  PHE20      -0.0003
     18  CE2       17.6060   39.7640   25.2010 C.ar   20  PHE20      -0.0003
     19  CZ        18.2670   40.0560   24.0260 C.ar   20  PHE20      -0.0000
     20  N         16.4070   45.9990   27.8980 N.am   21  VAL21      -0.1980
     21  CA        15.7260   47.0390   28.6550 C.3    21  VAL21       0.1595
     22  C         16.3800   48.3990   28.4450 C.2    21  VAL21       0.2287
     23  O         15.6900   49.4110   28.3210 O.2    21  VAL21      -0.2864
     24  CB        15.6840   46.6680   30.1530 C.3    21  VAL21       0.0276
     25  CG1       14.8870   47.7010   30.9340 C.3    21  VAL21       0.0022
     26  CG2       15.1000   45.2760   30.3410 C.3    21  VAL21       0.0022
     27  N         15.9670   50.1020   24.3720 N.3    24  PRO24      -0.2102
     28  CA        14.6680   50.7130   24.0400 C.3    24  PRO24       0.1504
     29  C         14.3430   51.9320   24.8820 C.2    24  PRO24       0.2576
     30  O         13.6640   52.8450   24.3960 O.2    24  PRO24      -0.2718
     31  CB        13.6670   49.5760   24.2870 C.3    24  PRO24       0.0282
     32  CG        14.4610   48.3410   24.1410 C.3    24  PRO24       0.0208
     33  CD        15.8160   48.6700   24.6880 C.3    24  PRO24       0.0893
     34  N         14.8070   51.9780   26.1310 N.am   25  THR25      -0.1953
     35  CA        14.5710   53.1530   26.9640 C.3    25  THR25       0.1897
     36  C         15.3110   54.3650   26.4140 C.2    25  THR25       0.2313
     37  O         14.7340   55.4510   26.2740 O.2    25  THR25      -0.2863
     38  CB        14.9980   52.8730   28.4050 C.3    25  THR25       0.1794
     39  OG1       14.4680   51.6100   28.8290 O.3    25  THR25      -0.2208
     40  CG2       14.4930   53.9700   29.3290 C.3    25  THR25       0.0378
     41  N         13.6070   55.5360   23.3560 N.3    28  SER28      -0.1202
     42  CA        12.4250   56.3260   23.6860 C.3    28  SER28       0.2020
     43  C         12.8060   57.7530   24.0560 C.2    28  SER28       0.2618
     44  O         12.1330   58.7110   23.6520 O.2    28  SER28      -0.2717
     45  CB        11.6490   55.6600   24.8240 C.3    28  SER28       0.2103
     46  OG        11.2380   54.3510   24.4630 O.3    28  SER28      -0.2182
     47  N         13.8860   57.9140   24.8240 N.am   29  ILE29      -0.1979
     48  CA        14.3080   59.2440   25.2500 C.3    29  ILE29       0.1595
     49  C         14.7580   60.0710   24.0520 C.2    29  ILE29       0.2287
     50  O         14.3850   61.2420   23.9150 O.2    29  ILE29      -0.2864
     51  CB        15.4140   59.1300   26.3150 C.3    29  ILE29       0.0276
     52  CG1       14.8350   58.6180   27.6380 C.3    29  ILE29       0.0022
     53  CG2       16.1030   60.4700   26.5240 C.3    29  ILE29       0.0022
     54  CD1       15.8690   58.4430   28.7240 C.3    29  ILE29       0.0001
     55  N         11.5930   61.1070   21.9230 N.3    32  VAL32      -0.1245
     56  CA        10.7960   62.1870   22.5070 C.3    32  VAL32       0.1561
     57  C         11.5350   63.5170   22.4060 C.2    32  VAL32       0.2260
     58  O         10.9600   64.5360   22.0050 O.2    32  VAL32      -0.2867
     59  CB        10.4280   61.8520   23.9630 C.3    32  VAL32       0.0252
     60  CG1        9.7920   63.0540   24.6400 C.3    32  VAL32       0.0019
     61  CG2        9.4860   60.6600   24.0020 C.3    32  VAL32       0.0019
     62  N         13.3810   45.4480   22.0750 N.3    81  ALA81      -0.1231
     63  CA        12.6760   45.0160   23.2780 C.3    81  ALA81       0.1694
     64  C         12.1830   43.5790   23.1690 C.2    81  ALA81       0.2595
     65  O         12.1250   42.8730   24.1830 O.2    81  ALA81      -0.2718
     66  CB        11.5200   45.9640   23.5750 C.3    81  ALA81       0.0304
     67  N         11.8350   43.1270   21.9610 N.am   82  MET82      -0.1920
     68  CA        11.3390   41.7670   21.7840 C.3    82  MET82       0.1952
     69  C         12.4710   40.7620   21.6650 C.2    82  MET82       0.2658
     70  O         12.2800   39.6880   21.0870 O.2    82  MET82      -0.2711
     71  CB        10.4540   41.6200   20.5350 C.2    82  MET82       0.0110
     72  CG         9.2150   42.4850   20.4870 C.2    82  MET82       0.0285
     73  SD         8.1710   42.3210   19.0330 S.3    82  MET82      -0.1125
     74  CE         6.7400   43.2050   19.6340 C.3    82  MET82       0.0742
     75  N         13.6330   41.0820   22.2320 N.am   83  GLU83      -0.1974
     76  CA        14.8060   40.2210   22.1300 C.3    83  GLU83       0.1602
     77  C         15.1500   39.9700   20.6600 C.2    83  GLU83       0.2287
     78  O         15.3630   38.8350   20.2310 O.2    83  GLU83      -0.2864
     79  CB        14.5990   38.9100   22.8960 C.3    83  GLU83       0.0415
     80  CG        14.1980   39.1110   24.3520 C.3    83  GLU83       0.1163
     81  CD        14.3550   37.8480   25.1760 C.2    83  GLU83       0.3649
     82  OE1       14.6450   36.7870   24.5840 O.co2  83  GLU83      -0.2457
     83  OE2       14.1880   37.9110   26.4120 O.co2  83  GLU83      -0.2457
@<TRIPOS>BOND
     1    73    74    1
     2    73    72    1
     3    78    77    2
     4    72    71    2
     5    71    68    1
     6    77    76    1
     7    70    69    2
     8    69    68    1
     9    69    75   am
    10    68    67    1
    11    55    56    1
    12    67    64   am
    13    58    57    2
    14    62    63    1
    15    76    75    1
    16    76    79    1
    17    57    56    1
    18    56    59    1
    19    79    80    1
    20    64    63    1
    21    64    65    2
    22    63    66    1
    23    41    42    1
    24    17    19   ar
    25    17    15   ar
    26    44    43    2
    27    42    43    1
    28    42    45    1
    29    50    49    2
    30    59    61    1
    31    59    60    1
    32    19    18   ar
    33    28    31    1
    34    28    27    1
    35    28    29    1
    36    49    48    1
    37    43    47   am
    38    32    31    1
    39    32    33    1
    40    15    14   ar
    41    80    81    1
    42    27    33    1
    43    30    29    2
    44    46    45    1
    45    82    81   ar
    46    47    48    1
    47    29    34   am
    48    81    83   ar
    49    18    16   ar
    50    48    51    1
    51    14    16   ar
    52    14    13    1
    53    10    13    1
    54    10     9    1
    55    10    11    1
    56    34    35    1
    57    12    11    2
    58    37    36    2
    59    51    53    1
    60    51    52    1
    61    36    35    1
    62    11    20   am
    63    35    38    1
    64    52    54    1
    65    20    21    1
    66    23    22    2
    67    38    39    1
    68    38    40    1
    69    22    21    1
    70    21    24    1
    71     1     2    1
    72     4     3    2
    73     2     3    1
    74     2     5    1
    75     8     6   am
    76    24    26    1
    77    24    25    1
    78     6     5    1
    79     6     7    2
