@<TRIPOS>MOLECULE
tmp/6do1B01.pdb
 83 81 0 0 0
SMALL
GASTEIGER

@<TRIPOS>ATOM
      1  N         -5.8580   50.0920   -3.6850 N.3    24  PRO24      -0.2116
      2  CA        -4.5540   50.7130   -3.3890 C.3    24  PRO24       0.1372
      3  C         -4.2690   51.9510   -4.2210 C.2    24  PRO24       0.2244
      4  O         -3.5840   52.8620   -3.7390 O.2    24  PRO24      -0.2868
      5  CB        -3.5510   49.5900   -3.6880 C.3    24  PRO24       0.0268
      6  CG        -4.3250   48.3480   -3.5370 C.3    24  PRO24       0.0207
      7  CD        -5.6990   48.6670   -4.0310 C.3    24  PRO24       0.0892
      8  N         -6.1840   54.7250   -2.6090 N.3    27  TYR27      -0.1227
      9  CA        -5.4810   55.0440   -1.3690 C.3    27  TYR27       0.1736
     10  C         -4.2350   55.8810   -1.6330 C.2    27  TYR27       0.2596
     11  O         -3.9390   56.8170   -0.8800 O.2    27  TYR27      -0.2718
     12  CB        -5.1120   53.7640   -0.6200 C.3    27  TYR27       0.0548
     13  CG        -6.2660   53.1220    0.1130 C.ar   27  TYR27      -0.0200
     14  CD1       -7.4650   53.7980    0.2900 C.ar   27  TYR27      -0.0009
     15  CD2       -6.1490   51.8470    0.6500 C.ar   27  TYR27      -0.0009
     16  CE1       -8.5210   53.2170    0.9670 C.ar   27  TYR27       0.0417
     17  CE2       -7.1980   51.2580    1.3310 C.ar   27  TYR27       0.0417
     18  CZ        -8.3820   51.9460    1.4850 C.ar   27  TYR27       0.1957
     19  OH        -9.4270   51.3610    2.1610 O.3    27  TYR27      -0.2866
     20  N         -3.4840   55.5530   -2.6880 N.am   28  SER28      -0.1952
     21  CA        -2.3200   56.3600   -3.0420 C.3    28  SER28       0.1924
     22  C         -2.7200   57.7970   -3.3500 C.2    28  SER28       0.2314
     23  O         -2.0400   58.7450   -2.9330 O.2    28  SER28      -0.2863
     24  CB        -1.5930   55.7370   -4.2350 C.3    28  SER28       0.2116
     25  OG        -1.1600   54.4200   -3.9370 O.3    28  SER28      -0.2180
     26  N         -3.7020   59.5820   -0.0860 N.3    31  PHE31      -0.1227
     27  CA        -2.5150   59.8710    0.7160 C.3    31  PHE31       0.1736
     28  C         -1.8050   61.1280    0.2220 C.2    31  PHE31       0.2595
     29  O         -1.5820   62.0730    0.9870 O.2    31  PHE31      -0.2718
     30  CB        -1.5560   58.6780    0.7000 C.3    31  PHE31       0.0547
     31  CG        -0.2870   58.9150    1.4730 C.ar   31  PHE31      -0.0202
     32  CD1       -0.2820   58.8520    2.8570 C.ar   31  PHE31      -0.0042
     33  CD2        0.8940   59.2240    0.8170 C.ar   31  PHE31      -0.0042
     34  CE1        0.8830   59.0760    3.5720 C.ar   31  PHE31      -0.0003
     35  CE2        2.0610   59.4470    1.5250 C.ar   31  PHE31      -0.0003
     36  CZ         2.0560   59.3730    2.9030 C.ar   31  PHE31      -0.0000
     37  N         -1.4290   61.1460   -1.0590 N.am   32  VAL32      -0.1980
     38  CA        -0.6630   62.2660   -1.6040 C.3    32  VAL32       0.1595
     39  C         -1.4540   63.5630   -1.4940 C.2    32  VAL32       0.2287
     40  O         -0.9410   64.5890   -1.0260 O.2    32  VAL32      -0.2864
     41  CB        -0.2610   61.9820   -3.0610 C.3    32  VAL32       0.0276
     42  CG1        0.3580   63.2220   -3.6940 C.3    32  VAL32       0.0022
     43  CG2        0.6940   60.8010   -3.1310 C.3    32  VAL32       0.0022
     44  N         -2.7190   55.4170    6.4830 N.3    73  LEU73      -0.1231
     45  CA        -3.2780   54.9540    5.2020 C.3    73  LEU73       0.1678
     46  C         -2.4020   53.9700    4.4310 C.2    73  LEU73       0.2434
     47  O         -2.9350   52.9490    3.9740 O.2    73  LEU73      -0.2733
     48  CB        -3.6090   56.1490    4.2950 C.3    73  LEU73       0.0284
     49  CG        -4.6270   55.8520    3.1870 C.3    73  LEU73       0.0019
     50  CD1       -5.8740   55.1540    3.7360 C.3    73  LEU73       0.0001
     51  CD2       -5.0220   57.1230    2.4440 C.3    73  LEU73       0.0001
     52  N         -1.0950   54.2000    4.2380 N.am   74  PRO74      -0.2729
     53  CA        -0.3080   53.2590    3.4200 C.3    74  PRO74       0.1401
     54  C         -0.3310   51.8250    3.9280 C.2    74  PRO74       0.2269
     55  O         -0.2080   50.8970    3.1190 O.2    74  PRO74      -0.2865
     56  CB         1.1060   53.8560    3.4710 C.3    74  PRO74       0.0296
     57  CG         0.8930   55.2990    3.7230 C.3    74  PRO74       0.0237
     58  CD        -0.2900   55.3740    4.6320 C.3    74  PRO74       0.0939
     59  N         -3.1860   50.3730    2.3680 N.3    77  ALA77      -0.1231
     60  CA        -2.9240   50.2770    0.9330 C.3    77  ALA77       0.1694
     61  C         -2.1820   48.9870    0.5900 C.2    77  ALA77       0.2591
     62  O         -2.6290   48.2140   -0.2660 O.2    77  ALA77      -0.2718
     63  CB        -2.1500   51.5100    0.4630 C.3    77  ALA77       0.0304
     64  N         -1.0620   48.7190    1.2720 N.am   78  VAL78      -0.1980
     65  CA        -0.2910   47.5090    0.9930 C.3    78  VAL78       0.1595
     66  C         -0.9690   46.2730    1.5390 C.2    78  VAL78       0.2287
     67  O         -0.7290   45.1710    1.0350 O.2    78  VAL78      -0.2864
     68  CB         1.1060   47.5230    1.6360 C.3    78  VAL78       0.0276
     69  CG1        2.0930   48.3450    0.8220 C.3    78  VAL78       0.0022
     70  CG2        0.9980   48.0420    3.0430 C.3    78  VAL78       0.0022
     71  N         -3.3870   45.4700   -1.2670 N.3    81  ALA81      -0.1231
     72  CA        -2.6930   45.0640   -2.4860 C.3    81  ALA81       0.1694
     73  C         -2.2010   43.6250   -2.4080 C.2    81  ALA81       0.2591
     74  O         -2.1430   42.9340   -3.4320 O.2    81  ALA81      -0.2718
     75  CB        -1.5330   46.0100   -2.7760 C.3    81  ALA81       0.0304
     76  N         -1.8350   43.1550   -1.2140 N.am   82  MET82      -0.1979
     77  CA        -1.3310   41.8000   -1.0320 C.3    82  MET82       0.1605
     78  C         -2.4550   40.7880   -0.8650 C.2    82  MET82       0.2287
     79  O         -2.2600   39.7500   -0.2160 O.2    82  MET82      -0.2864
     80  CB        -0.3960   41.7460    0.1800 C.3    82  MET82       0.0413
     81  CG         0.7940   42.7190    0.1750 C.3    82  MET82       0.0598
     82  SD         1.6740   42.6680    1.7620 S.3    82  MET82      -0.1393
     83  CE         3.1650   43.6100    1.4440 C.3    82  MET82       0.0692
@<TRIPOS>BOND
     1    24    25    1
     2    24    21    1
     3     3     4    2
     4     3     2    1
     5     7     1    1
     6     7     6    1
     7    42    41    1
     8     5     6    1
     9     5     2    1
    10     1     2    1
    11    74    73    2
    12    22    21    1
    13    22    23    2
    14    43    41    1
    15    41    38    1
    16    21    20    1
    17    75    72    1
    18    20    10   am
    19     8     9    1
    20    72    73    1
    21    72    71    1
    22    73    76   am
    23    10     9    1
    24    10    11    2
    25    38    39    1
    26    38    37    1
    27    39    40    2
    28     9    12    1
    29    76    77    1
    30    37    28   am
    31    77    78    1
    32    77    80    1
    33    78    79    2
    34    12    13    1
    35    62    61    2
    36    26    27    1
    37    13    14   ar
    38    13    15   ar
    39    81    80    1
    40    81    82    1
    41    28    27    1
    42    28    29    2
    43    14    16   ar
    44    63    60    1
    45    61    60    1
    46    61    64   am
    47    15    17   ar
    48    30    27    1
    49    30    31    1
    50    33    31   ar
    51    33    35   ar
    52    69    68    1
    53    60    59    1
    54    16    18   ar
    55    65    64    1
    56    65    66    1
    57    65    68    1
    58    67    66    2
    59    17    18   ar
    60    83    82    1
    61    31    32   ar
    62    18    19    1
    63    35    36   ar
    64    68    70    1
    65    51    49    1
    66    32    34   ar
    67    36    34   ar
    68    55    54    2
    69    49    50    1
    70    49    48    1
    71    53    56    1
    72    53    54    1
    73    53    52    1
    74    56    57    1
    75    57    58    1
    76    47    46    2
    77    52    46   am
    78    52    58    1
    79    48    45    1
    80    46    45    1
    81    45    44    1
