@<TRIPOS>MOLECULE
tmp/6dorA01.pdb
 111 106 0 0 0
SMALL
GASTEIGER

@<TRIPOS>ATOM
      1  N         23.9810   -5.0330   18.1190 N.3    11  ASP11      -0.1225
      2  CA        23.3720   -4.9500   16.7880 C.3    11  ASP11       0.1805
      3  C         21.8680   -5.2060   16.8670 C.2    11  ASP11       0.2598
      4  O         21.3730   -5.8640   17.7900 O.2    11  ASP11      -0.2718
      5  CB        24.0260   -5.9220   15.8160 C.3    11  ASP11       0.1424
      6  CG        23.7750   -5.5290   14.3530 C.2    11  ASP11       0.3668
      7  OD1       23.4170   -4.3540   14.0720 O.co2  11  ASP11      -0.2456
      8  OD2       23.9380   -6.3680   13.4840 O.co2  11  ASP11      -0.2456
      9  N         21.1570   -4.6540   15.8730 N.am   12  VAL12      -0.1966
     10  CA        19.7330   -4.8710   15.6800 C.3    12  VAL12       0.1727
     11  C         19.5220   -6.0020   14.6850 C.2    12  VAL12       0.2617
     12  O         20.3630   -6.2970   13.8270 O.2    12  VAL12      -0.2715
     13  CB        19.0760   -3.5680   15.1690 C.3    12  VAL12       0.0290
     14  CG1       19.4370   -3.3130   13.7250 C.3    12  VAL12       0.0023
     15  CG2       17.5550   -3.6080   15.2860 C.3    12  VAL12       0.0023
     16  N         18.3470   -6.6200   14.7790 N.am   13  GLY13      -0.1940
     17  CA        17.8850   -7.5400   13.7650 C.3    13  GLY13       0.2014
     18  C         16.4330   -7.2110   13.5010 C.2    13  GLY13       0.2640
     19  O         15.7100   -6.7770   14.3940 O.2    13  GLY13      -0.2714
     20  N         16.0250   -7.3530   12.2480 N.am   14  SER14      -0.1935
     21  CA        14.6410   -7.0290   11.9510 C.3    14  SER14       0.2055
     22  C         14.0770   -7.9610   10.8990 C.2    14  SER14       0.2643
     23  O         14.7960   -8.5980   10.1220 O.2    14  SER14      -0.2714
     24  CB        14.4660   -5.5920   11.4790 C.3    14  SER14       0.2130
     25  OG        14.6340   -5.5320   10.0710 O.3    14  SER14      -0.2179
     26  N         12.7610   -8.0260   10.8950 N.am   15  GLN15      -0.1963
     27  CA        12.0020   -8.6980    9.8610 C.3    15  GLN15       0.1733
     28  C         11.1460   -7.5910    9.2650 C.2    15  GLN15       0.2617
     29  O         10.0790   -7.2680    9.7920 O.2    15  GLN15      -0.2715
     30  CB        11.1730   -9.8190   10.4720 C.3    15  GLN15       0.0408
     31  CG        12.0180  -10.9180   11.0770 C.3    15  GLN15       0.0908
     32  CD        11.2470  -11.7410   12.0790 C.2    15  GLN15       0.2608
     33  OE1       11.6390  -11.8520   13.2440 O.2    15  GLN15      -0.2717
     34  NE2       10.1300  -12.3100   11.6380 N.am   15  GLN15      -0.0878
     35  N         11.6170   -7.0250    8.1560 N.am   16  GLY16      -0.1940
     36  CA        11.0260   -5.8370    7.5930 C.3    16  GLY16       0.2014
     37  C         11.6480   -4.5940    8.2110 C.2    16  GLY16       0.2638
     38  O         12.1430   -4.6090    9.3490 O.2    16  GLY16      -0.2714
     39  N         11.5990   -3.4970    7.4660 N.am   17  ASN17      -0.1972
     40  CA        12.0360   -2.2140    7.9940 C.3    17  ASN17       0.1688
     41  C         11.1720   -1.1180    7.3640 C.2    17  ASN17       0.2292
     42  O         11.4050   -0.7210    6.2080 O.2    17  ASN17      -0.2864
     43  CB        13.4980   -1.9400    7.6500 C.3    17  ASN17       0.1181
     44  CG        13.9880   -0.6380    8.2400 C.2    17  ASN17       0.2629
     45  OD1       13.5310   -0.2340    9.2960 O.2    17  ASN17      -0.2716
     46  ND2       14.9120    0.0220    7.5640 N.am   17  ASN17      -0.0877
     47  N         15.0210   -0.0310   11.8530 N.3    45  ASN45      -0.1240
     48  CA        16.3930   -0.4220   12.0750 C.3    45  ASN45       0.1653
     49  C         17.0940    0.5530   13.0200 C.2    45  ASN45       0.2266
     50  O         17.7700    0.1420   13.9730 O.2    45  ASN45      -0.2867
     51  CB        17.1260   -0.5690   10.7310 C.3    45  ASN45       0.1155
     52  CG        17.2440    0.7340    9.9490 C.2    45  ASN45       0.2627
     53  OD1       16.3700    1.6080   10.0020 O.2    45  ASN45      -0.2716
     54  ND2       18.3310    0.8590    9.1930 N.am   45  ASN45      -0.0877
     55  N         18.8160    0.0220   16.6810 N.3    49  GLU49      -0.1245
     56  CA        20.2480    0.2410   16.8800 C.3    49  GLU49       0.1567
     57  C         20.4690    1.2060   18.0360 C.2    49  GLU49       0.2260
     58  O         21.3920    1.0250   18.8350 O.2    49  GLU49      -0.2867
     59  CB        20.8810    0.7930   15.5920 C.3    49  GLU49       0.0388
     60  CG        20.8650   -0.0990   14.3460 C.3    49  GLU49       0.1160
     61  CD        22.0250   -1.0680   14.2570 C.2    49  GLU49       0.3649
     62  OE1       22.2740   -1.5630   13.1190 O.co2  49  GLU49      -0.2457
     63  OE2       22.6390   -1.3270   15.3060 O.co2  49  GLU49      -0.2457
     64  N         27.6480   -0.6410   14.5530 N.3    72  ASP72      -0.1239
     65  CA        27.9070   -0.3360   13.1520 C.3    72  ASP72       0.1674
     66  C         27.0260    0.7830   12.5890 C.2    72  ASP72       0.2266
     67  O         27.1410    1.0910   11.3990 O.2    72  ASP72      -0.2867
     68  CB        27.8590   -1.5880   12.2480 C.3    72  ASP72       0.1410
     69  CG        26.4910   -2.2510   12.1960 C.2    72  ASP72       0.3668
     70  OD1       25.4550   -1.6210   12.5330 O.co2  72  ASP72      -0.2456
     71  OD2       26.4520   -3.4310   11.7720 O.co2  72  ASP72      -0.2456
     72  N         26.0380   -9.3890   14.9620 N.3   132  ASP132     -0.1225
     73  CA        25.1520   -9.4020   13.8080 C.3   132  ASP132      0.1805
     74  C         24.2370  -10.6270   13.8260 C.2   132  ASP132      0.2597
     75  O         24.5850  -11.6890   14.3380 O.2   132  ASP132     -0.2718
     76  CB        25.9950   -9.3950   12.5370 C.3   132  ASP132      0.1424
     77  CG        25.1450   -9.3570   11.2740 C.2   132  ASP132      0.3668
     78  OD1       24.2620   -8.4460   11.1270 O.co2 132  ASP132     -0.2456
     79  OD2       25.3280  -10.2530   10.4250 O.co2 132  ASP132     -0.2456
     80  N         23.0590  -10.4750   13.2270 N.am  133  TYR133     -0.1976
     81  CA        22.0810  -11.5620   13.1650 C.3   133  TYR133      0.1639
     82  C         22.2740  -12.5230   11.9930 C.2   133  TYR133      0.2290
     83  O         21.5750  -13.5450   11.9300 O.2   133  TYR133     -0.2864
     84  CB        20.6710  -10.9660   13.1720 C.3   133  TYR133      0.0560
     85  CG        20.2510  -10.5790   14.5760 C.ar  133  TYR133     -0.0198
     86  CD1       20.6620   -9.3940   15.1410 C.ar  133  TYR133     -0.0009
     87  CD2       19.4630  -11.4340   15.3410 C.ar  133  TYR133     -0.0009
     88  CE1       20.2990   -9.0760   16.4260 C.ar  133  TYR133      0.0417
     89  CE2       19.0860  -11.1030   16.6120 C.ar  133  TYR133      0.0417
     90  CZ        19.5110   -9.9340   17.1450 C.ar  133  TYR133      0.1957
     91  OH        19.1520   -9.5730   18.4260 O.3   133  TYR133     -0.2866
     92  N         21.4790  -12.2440    8.7810 N.3   135  ARG135     -0.1231
     93  CA        20.3040  -12.2860    7.9160 C.3   135  ARG135      0.1694
     94  C         20.5230  -11.5880    6.5830 C.2   135  ARG135      0.2591
     95  O         19.5600  -11.4000    5.8330 O.2   135  ARG135     -0.2718
     96  CB        19.1150  -11.6380    8.6240 C.3   135  ARG135      0.0321
     97  CG        18.7250  -12.3220    9.9100 C.3   135  ARG135      0.0489
     98  CD        17.7310  -11.5060   10.7020 C.3   135  ARG135      0.2205
     99  NE        17.3500  -12.2090   11.9230 N.pl3 135  ARG135     -0.0865
    100  CZ        16.4950  -11.7460   12.8250 C.cat 135  ARG135      0.5346
    101  NH1       16.2220  -12.4660   13.9010 N.pl3 135  ARG135      0.1354
    102  NH2       15.9160  -10.5670   12.6590 N.pl3 135  ARG135      0.1354
    103  N         21.7450  -11.1800    6.2710 N.am  136  LYS136     -0.1980
    104  CA        21.9770  -10.4520    5.0290 C.3   136  LYS136      0.1596
    105  C         23.1720  -11.0080    4.2540 C.2   136  LYS136      0.2287
    106  O         23.3380  -10.7480    3.0600 O.2   136  LYS136     -0.2864
    107  CB        22.1530   -8.9610    5.3200 C.3   136  LYS136      0.0298
    108  CG        21.2490   -8.4450    6.4380 C.3   136  LYS136      0.0038
    109  CD        21.3700   -6.9420    6.5850 C.3   136  LYS136      0.0206
    110  CE        22.8190   -6.5110    6.5180 C.3   136  LYS136      0.1093
    111  NZ        22.9570   -5.0470    6.3000 N.3   136  LYS136     -0.1314
@<TRIPOS>BOND
     1   106   105    2
     2   105   104    1
     3   104   107    1
     4   104   103    1
     5   107   108    1
     6    95    94    2
     7    42    41    2
     8   103    94   am
     9   111   110    1
    10   108   109    1
    11   110   109    1
    12    94    93    1
    13    41    40    1
    14    39    40    1
    15    39    37   am
    16    46    44   am
    17    36    35    1
    18    36    37    1
    19    43    40    1
    20    43    44    1
    21    93    96    1
    22    93    92    1
    23    35    28   am
    24    37    38    2
    25    44    45    2
    26    96    97    1
    27    54    52   am
    28    28    29    2
    29    28    27    1
    30    27    30    1
    31    27    26    1
    32    97    98    1
    33    52    53    2
    34    52    51    1
    35    25    24    1
    36    23    22    2
    37    79    77   ar
    38    30    31    1
    39    98    99    1
    40    51    48    1
    41    26    22   am
    42    22    21    1
    43    31    32    1
    44    78    77   ar
    45    77    76    1
    46    67    66    2
    47    24    21    1
    48    34    32   am
    49    71    69   ar
    50    47    48    1
    51    99   100    2
    52    83    82    2
    53    21    20    1
    54    82    81    1
    55    48    49    1
    56    32    33    2
    57    69    68    1
    58    69    70   ar
    59    20    18   am
    60    68    65    1
    61    76    73    1
    62    66    65    1
    63   102   100    1
    64   100   101    1
    65    49    50    2
    66    62    61   ar
    67    65    64    1
    68    81    84    1
    69    81    80    1
    70    84    85    1
    71    80    74   am
    72     8     6   ar
    73    18    17    1
    74    18    19    2
    75    14    13    1
    76    17    16    1
    77    73    74    1
    78    73    72    1
    79    74    75    2
    80    12    11    2
    81     7     6   ar
    82    61    60    1
    83    61    63   ar
    84    60    59    1
    85     6     5    1
    86    85    86   ar
    87    85    87   ar
    88    11    16   am
    89    11    10    1
    90    86    88   ar
    91    13    15    1
    92    13    10    1
    93    87    89   ar
    94    59    56    1
    95    10     9    1
    96     5     2    1
    97     9     3   am
    98    88    90   ar
    99    89    90   ar
   100    55    56    1
   101     2     3    1
   102     2     1    1
   103     3     4    2
   104    56    57    1
   105    90    91    1
   106    57    58    2
