@<TRIPOS>MOLECULE
tmp/6dp7A00.pdb
 77 75 0 0 0
SMALL
GASTEIGER

@<TRIPOS>ATOM
      1  N         23.9470   -4.9220   17.7420 N.3    11  ASP11      -0.1225
      2  CA        23.3740   -4.8080   16.4020 C.3    11  ASP11       0.1805
      3  C         21.8730   -5.0440   16.4650 C.2    11  ASP11       0.2598
      4  O         21.3580   -5.7350   17.3510 O.2    11  ASP11      -0.2718
      5  CB        23.9990   -5.8130   15.4240 C.3    11  ASP11       0.1424
      6  CG        23.8220   -5.4180   13.9580 C.2    11  ASP11       0.3668
      7  OD1       23.5050   -4.2590   13.6550 O.co2  11  ASP11      -0.2456
      8  OD2       24.0590   -6.2750   13.0870 O.co2  11  ASP11      -0.2456
      9  N         21.1750   -4.4470   15.4910 N.am   12  VAL12      -0.1966
     10  CA        19.7560   -4.6470   15.2510 C.3    12  VAL12       0.1727
     11  C         19.5830   -5.8010   14.2850 C.2    12  VAL12       0.2617
     12  O         20.4680   -6.1120   13.4830 O.2    12  VAL12      -0.2715
     13  CB        19.1370   -3.3460   14.6940 C.3    12  VAL12       0.0290
     14  CG1       19.5850   -3.0870   13.2440 C.3    12  VAL12       0.0023
     15  CG2       17.6120   -3.3620   14.7720 C.3    12  VAL12       0.0023
     16  N         18.4120   -6.4290   14.3660 N.am   13  GLY13      -0.1940
     17  CA        17.9220   -7.2950   13.3150 C.3    13  GLY13       0.2014
     18  C         16.4680   -6.9660   13.0480 C.2    13  GLY13       0.2640
     19  O         15.7500   -6.4830   13.9250 O.2    13  GLY13      -0.2714
     20  N         16.0370   -7.2020   11.8150 N.am   14  SER14      -0.1935
     21  CA        14.6640   -6.8310   11.4940 C.3    14  SER14       0.2055
     22  C         14.0690   -7.8050   10.4970 C.2    14  SER14       0.2643
     23  O         14.7770   -8.5100    9.7770 O.2    14  SER14      -0.2714
     24  CB        14.5230   -5.3930   10.9730 C.3    14  SER14       0.2130
     25  OG        14.7750   -5.3170    9.5830 O.3    14  SER14      -0.2179
     26  N         12.7440   -7.8380   10.4780 N.am   15  GLN15      -0.1963
     27  CA        11.9680   -8.4690    9.4200 C.3    15  GLN15       0.1733
     28  C         11.1630   -7.3170    8.8380 C.2    15  GLN15       0.2617
     29  O         10.1000   -6.9510    9.3510 O.2    15  GLN15      -0.2715
     30  CB        11.0840   -9.5850    9.9590 C.3    15  GLN15       0.0408
     31  CG        11.8910  -10.6880   10.6300 C.3    15  GLN15       0.0908
     32  CD        11.0340  -11.6100   11.4700 C.2    15  GLN15       0.2608
     33  OE1       11.4040  -11.9720   12.5880 O.2    15  GLN15      -0.2717
     34  NE2        9.8810  -11.9960   10.9360 N.am   15  GLN15      -0.0878
     35  N         11.6820   -6.7440    7.7620 N.am   16  GLY16      -0.1940
     36  CA        11.1430   -5.5280    7.1940 C.3    16  GLY16       0.2014
     37  C         11.7650   -4.2910    7.8200 C.2    16  GLY16       0.2638
     38  O         12.2530   -4.3030    8.9510 O.2    16  GLY16      -0.2714
     39  N         11.7300   -3.2040    7.0610 N.am   17  ASN17      -0.1972
     40  CA        12.1920   -1.9090    7.5470 C.3    17  ASN17       0.1688
     41  C         11.3720   -0.7930    6.9120 C.2    17  ASN17       0.2292
     42  O         11.6420   -0.4070    5.7770 O.2    17  ASN17      -0.2864
     43  CB        13.6750   -1.6640    7.2290 C.3    17  ASN17       0.1181
     44  CG        14.1900   -0.3730    7.8400 C.2    17  ASN17       0.2629
     45  OD1       13.7740    0.0210    8.9170 O.2    17  ASN17      -0.2716
     46  ND2       15.0960    0.2900    7.1540 N.am   17  ASN17      -0.0877
     47  N         25.9110   -9.3150   14.4390 N.3   132  ASP132     -0.1225
     48  CA        25.0510   -9.3390   13.2650 C.3   132  ASP132      0.1805
     49  C         24.1410  -10.5640   13.2710 C.2   132  ASP132      0.2597
     50  O         24.4750  -11.6200   13.8170 O.2   132  ASP132     -0.2718
     51  CB        25.9210   -9.3480   12.0140 C.3   132  ASP132      0.1424
     52  CG        25.1110   -9.3530   10.7430 C.2   132  ASP132      0.3668
     53  OD1       24.2530   -8.4430   10.5350 O.co2 132  ASP132     -0.2456
     54  OD2       25.3380  -10.2750    9.9440 O.co2 132  ASP132     -0.2456
     55  N         22.9830  -10.4280   12.6210 N.am  133  TYR133     -0.1976
     56  CA        22.0000  -11.5040   12.5970 C.3   133  TYR133      0.1639
     57  C         22.1450  -12.4790   11.4200 C.2   133  TYR133      0.2290
     58  O         21.4100  -13.4730   11.3760 O.2   133  TYR133     -0.2864
     59  CB        20.5820  -10.9240   12.6310 C.3   133  TYR133      0.0560
     60  CG        20.1610  -10.5100   14.0190 C.ar  133  TYR133     -0.0198
     61  CD1       20.6080   -9.3250   14.5680 C.ar  133  TYR133     -0.0009
     62  CD2       19.3550  -11.3290   14.7880 C.ar  133  TYR133     -0.0009
     63  CE1       20.2320   -8.9540   15.8430 C.ar  133  TYR133      0.0417
     64  CE2       18.9760  -10.9610   16.0590 C.ar  133  TYR133      0.0417
     65  CZ        19.4300   -9.7870   16.5790 C.ar  133  TYR133      0.1957
     66  OH        19.0360   -9.4180   17.8470 O.3   133  TYR133     -0.2866
     67  N         21.5010  -12.0700    8.0850 N.3   135  ARG135     -0.1245
     68  CA        20.4270  -12.0340    7.0980 C.3   135  ARG135      0.1563
     69  C         20.8360  -11.3350    5.8000 C.2   135  ARG135      0.2260
     70  O         21.3350  -10.2110    5.8110 O.2   135  ARG135     -0.2867
     71  CB        19.1860  -11.3830    7.7060 C.3   135  ARG135      0.0307
     72  CG        18.6680  -12.1340    8.9190 C.3   135  ARG135      0.0489
     73  CD        17.7330  -11.2910    9.7710 C.3   135  ARG135      0.2205
     74  NE        17.3120  -12.0090   10.9700 N.pl3 135  ARG135     -0.0865
     75  CZ        16.5430  -11.4940   11.9240 C.cat 135  ARG135      0.5346
     76  NH1       16.1030  -10.2460   11.8270 N.pl3 135  ARG135      0.1354
     77  NH2       16.2150  -12.2300   12.9780 N.pl3 135  ARG135      0.1354
@<TRIPOS>BOND
     1    42    41    2
     2    69    70    2
     3    69    68    1
     4    41    40    1
     5    39    40    1
     6    39    37   am
     7    68    71    1
     8    68    67    1
     9    46    44   am
    10    36    35    1
    11    36    37    1
    12    43    40    1
    13    43    44    1
    14    71    72    1
    15    35    28   am
    16    37    38    2
    17    44    45    2
    18    28    29    2
    19    28    27    1
    20    72    73    1
    21    27    30    1
    22    27    26    1
    23    25    24    1
    24    73    74    1
    25    23    22    2
    26    54    52   ar
    27    30    31    1
    28    26    22   am
    29    22    21    1
    30    53    52   ar
    31    31    32    1
    32    52    51    1
    33    34    32   am
    34    74    75    2
    35    24    21    1
    36    58    57    2
    37    57    56    1
    38    32    33    2
    39    21    20    1
    40    20    18   am
    41    76    75    1
    42    75    77    1
    43    51    48    1
    44    56    55    1
    45    56    59    1
    46    55    49   am
    47    59    60    1
    48    18    17    1
    49    18    19    2
    50     8     6   ar
    51    14    13    1
    52    48    49    1
    53    48    47    1
    54    49    50    2
    55    17    16    1
    56    12    11    2
    57     7     6   ar
    58     6     5    1
    59    60    61   ar
    60    60    62   ar
    61    11    16   am
    62    11    10    1
    63    61    63   ar
    64    13    15    1
    65    13    10    1
    66    62    64   ar
    67    10     9    1
    68     5     2    1
    69     9     3   am
    70    63    65   ar
    71    64    65   ar
    72     2     3    1
    73     2     1    1
    74     3     4    2
    75    65    66    1
