@<TRIPOS>MOLECULE
tmp/6dpfA00.pdb
 120 114 0 0 0
SMALL
GASTEIGER

@<TRIPOS>ATOM
      1  N         24.1260   -4.8390   17.5400 N.3    11  ASP11      -0.1225
      2  CA        23.5260   -4.7300   16.2030 C.3    11  ASP11       0.1805
      3  C         22.0300   -4.9650   16.2780 C.2    11  ASP11       0.2598
      4  O         21.5490   -5.6960   17.1430 O.2    11  ASP11      -0.2718
      5  CB        24.1750   -5.7290   15.2240 C.3    11  ASP11       0.1424
      6  CG        23.9680   -5.3400   13.7830 C.2    11  ASP11       0.3668
      7  OD1       23.6020   -4.1660   13.5550 O.co2  11  ASP11      -0.2456
      8  OD2       24.2100   -6.1860   12.8620 O.co2  11  ASP11      -0.2456
      9  N         21.3160   -4.3590   15.3180 N.am   12  VAL12      -0.1966
     10  CA        19.9000   -4.5830   15.0780 C.3    12  VAL12       0.1727
     11  C         19.7350   -5.7640   14.1350 C.2    12  VAL12       0.2617
     12  O         20.6310   -6.0940   13.3580 O.2    12  VAL12      -0.2715
     13  CB        19.2520   -3.3280   14.4650 C.3    12  VAL12       0.0290
     14  CG1       19.7230   -3.1300   13.0260 C.3    12  VAL12       0.0023
     15  CG2       17.7180   -3.4070   14.5140 C.3    12  VAL12       0.0023
     16  N         18.5630   -6.3840   14.2050 N.am   13  GLY13      -0.1940
     17  CA        18.0920   -7.2590   13.1510 C.3    13  GLY13       0.2014
     18  C         16.6410   -6.9260   12.8790 C.2    13  GLY13       0.2640
     19  O         15.9330   -6.4320   13.7460 O.2    13  GLY13      -0.2714
     20  N         16.1980   -7.1790   11.6520 N.am   14  SER14      -0.1935
     21  CA        14.7950   -6.8720   11.4130 C.3    14  SER14       0.2055
     22  C         14.1980   -7.8210   10.3920 C.2    14  SER14       0.2643
     23  O         14.8950   -8.5330    9.6650 O.2    14  SER14      -0.2714
     24  CB        14.5970   -5.4310   10.9260 C.3    14  SER14       0.2130
     25  OG        14.8230   -5.3590    9.5240 O.3    14  SER14      -0.2179
     26  N         12.8750   -7.8060   10.3540 N.am   15  GLN15      -0.1963
     27  CA        12.0880   -8.4660    9.3220 C.3    15  GLN15       0.1733
     28  C         11.2630   -7.3540    8.6910 C.2    15  GLN15       0.2617
     29  O         10.1820   -7.0160    9.1810 O.2    15  GLN15      -0.2715
     30  CB        11.2500   -9.5550    9.9090 C.3    15  GLN15       0.0408
     31  CG        12.0840  -10.6120   10.5920 C.3    15  GLN15       0.0908
     32  CD        11.2910  -11.4390   11.5830 C.2    15  GLN15       0.2608
     33  OE1       11.5350  -11.3920   12.7970 O.2    15  GLN15      -0.2717
     34  NE2       10.3350  -12.2090   11.0700 N.am   15  GLN15      -0.0878
     35  N         11.7880   -6.7830    7.6340 N.am   16  GLY16      -0.1940
     36  CA        11.2490   -5.5850    7.0490 C.3    16  GLY16       0.2014
     37  C         11.8800   -4.3500    7.6500 C.2    16  GLY16       0.2638
     38  O         12.3830   -4.3500    8.7730 O.2    16  GLY16      -0.2714
     39  N         11.8680   -3.2790    6.8750 N.am   17  ASN17      -0.1972
     40  CA        12.3010   -1.9830    7.3630 C.3    17  ASN17       0.1688
     41  C         11.4670   -0.8850    6.7260 C.2    17  ASN17       0.2292
     42  O         11.7230   -0.4910    5.5920 O.2    17  ASN17      -0.2864
     43  CB        13.7810   -1.7470    7.0670 C.3    17  ASN17       0.1181
     44  CG        14.2940   -0.4570    7.6630 C.2    17  ASN17       0.2629
     45  OD1       13.8640   -0.0340    8.7350 O.2    17  ASN17      -0.2716
     46  ND2       15.2320    0.1760    6.9770 N.am   17  ASN17      -0.0877
     47  N         15.2930    0.1140   11.2270 N.3    45  ASN45      -0.1240
     48  CA        16.6570   -0.3460   11.4460 C.3    45  ASN45       0.1653
     49  C         17.4020    0.6160   12.3580 C.2    45  ASN45       0.2266
     50  O         18.0660    0.1930   13.3040 O.2    45  ASN45      -0.2867
     51  CB        17.3900   -0.5030   10.1040 C.3    45  ASN45       0.1155
     52  CG        17.5160    0.8280    9.3310 C.2    45  ASN45       0.2627
     53  OD1       16.6550    1.6990    9.4070 O.2    45  ASN45      -0.2716
     54  ND2       18.6140    0.9770    8.5950 N.am   45  ASN45      -0.0877
     55  N         19.1500    0.0480   16.0590 N.3    49  GLU49      -0.1245
     56  CA        20.5920    0.2670   16.2420 C.3    49  GLU49       0.1567
     57  C         20.8230    1.1910   17.4210 C.2    49  GLU49       0.2260
     58  O         21.7770    1.0220   18.1910 O.2    49  GLU49      -0.2867
     59  CB        21.2040    0.8750   14.9730 C.3    49  GLU49       0.0388
     60  CG        21.1800   -0.0330   13.7260 C.3    49  GLU49       0.1160
     61  CD        22.3670   -0.9590   13.6280 C.2    49  GLU49       0.3649
     62  OE1       22.6830   -1.4400   12.5210 O.co2  49  GLU49      -0.2457
     63  OE2       22.9840   -1.2060   14.6650 O.co2  49  GLU49      -0.2457
     64  N         27.8900   -0.5940   13.9380 N.3    72  ASP72      -0.1239
     65  CA        28.1580   -0.3050   12.5360 C.3    72  ASP72       0.1674
     66  C         27.2920    0.8270   12.0020 C.2    72  ASP72       0.2266
     67  O         27.4090    1.1700   10.8200 O.2    72  ASP72      -0.2867
     68  CB        28.0180   -1.5770   11.6750 C.3    72  ASP72       0.1410
     69  CG        26.6170   -2.2270   11.7120 C.2    72  ASP72       0.3668
     70  OD1       25.5910   -1.5320   11.8080 O.co2  72  ASP72      -0.2456
     71  OD2       26.5370   -3.4730   11.5510 O.co2  72  ASP72      -0.2456
     72  N         31.4890   -8.1000    8.7010 N.3   128  GLU128     -0.1245
     73  CA        30.3070   -7.8250    9.5060 C.3   128  GLU128      0.1567
     74  C         30.6550   -7.7840   10.9870 C.2   128  GLU128      0.2260
     75  O         31.4480   -8.5880   11.4830 O.2   128  GLU128     -0.2867
     76  CB        29.2160   -8.8790    9.2850 C.3   128  GLU128      0.0388
     77  CG        28.6300   -8.9200    7.8840 C.3   128  GLU128      0.1160
     78  CD        27.9460   -7.6160    7.4720 C.2   128  GLU128      0.3649
     79  OE1       28.0310   -7.2630    6.2790 O.co2 128  GLU128     -0.2457
     80  OE2       27.3260   -6.9390    8.3210 O.co2 128  GLU128     -0.2457
     81  N         26.1010   -9.1930   14.1290 N.3   132  ASP132     -0.1225
     82  CA        25.2410   -9.1960   12.9540 C.3   132  ASP132      0.1805
     83  C         24.3310  -10.4170   12.9580 C.2   132  ASP132      0.2597
     84  O         24.6600  -11.4660   13.5230 O.2   132  ASP132     -0.2718
     85  CB        26.0950   -9.1680   11.6830 C.3   132  ASP132      0.1424
     86  CG        25.2860   -9.2340   10.4300 C.2   132  ASP132      0.3668
     87  OD1       24.4060   -8.3690   10.2320 O.co2 132  ASP132     -0.2456
     88  OD2       25.5240  -10.1630    9.6290 O.co2 132  ASP132     -0.2456
     89  N         23.1890  -10.2890   12.2870 N.am  133  TYR133     -0.1976
     90  CA        22.2090  -11.3660   12.2550 C.3   133  TYR133      0.1639
     91  C         22.3690  -12.2790   11.0480 C.2   133  TYR133      0.2290
     92  O         21.6380  -13.2710   10.9440 O.2   133  TYR133     -0.2864
     93  CB        20.7840  -10.7980   12.3040 C.3   133  TYR133      0.0560
     94  CG        20.3840  -10.3970   13.7110 C.ar  133  TYR133     -0.0198
     95  CD1       20.8670   -9.2370   14.2780 C.ar  133  TYR133     -0.0009
     96  CD2       19.5230  -11.1910   14.4690 C.ar  133  TYR133     -0.0009
     97  CE1       20.5140   -8.8730   15.5650 C.ar  133  TYR133      0.0417
     98  CE2       19.1600  -10.8280   15.7610 C.ar  133  TYR133      0.0417
     99  CZ        19.6550   -9.6730   16.2950 C.ar  133  TYR133      0.1957
    100  OH        19.3160   -9.2950   17.5630 O.3   133  TYR133     -0.2866
    101  N         21.6330  -11.9210    7.8400 N.3   135  ARG135     -0.1231
    102  CA        20.4550  -11.9720    6.9880 C.3   135  ARG135      0.1694
    103  C         20.6250  -11.2820    5.6430 C.2   135  ARG135      0.2591
    104  O         19.7390  -11.4040    4.7910 O.2   135  ARG135     -0.2718
    105  CB        19.2570  -11.3510    7.7100 C.3   135  ARG135      0.0321
    106  CG        18.8970  -12.0570    8.9840 C.3   135  ARG135      0.0489
    107  CD        17.9580  -11.2170    9.8270 C.3   135  ARG135      0.2205
    108  NE        17.4360  -11.9820   10.9510 N.pl3 135  ARG135     -0.0865
    109  CZ        16.6660  -11.4800   11.9090 C.cat 135  ARG135      0.5346
    110  NH1       16.3130  -10.1990   11.8920 N.pl3 135  ARG135      0.1354
    111  NH2       16.2440  -12.2680   12.8860 N.pl3 135  ARG135      0.1354
    112  N         21.7160  -10.5620    5.4240 N.am  136  LYS136     -0.1980
    113  CA        21.8810   -9.8100    4.1860 C.3   136  LYS136      0.1596
    114  C         22.5700  -10.6340    3.0990 C.2   136  LYS136      0.2287
    115  O         22.5430  -10.2640    1.9260 O.2   136  LYS136     -0.2864
    116  CB        22.6690   -8.5290    4.4480 C.3   136  LYS136      0.0298
    117  CG        22.0450   -7.6310    5.4970 C.3   136  LYS136      0.0038
    118  CD        22.7500   -6.2910    5.5200 C.3   136  LYS136      0.0206
    119  CE        24.2590   -6.4720    5.6770 C.3   136  LYS136      0.1093
    120  NZ        24.6280   -7.1130    6.9900 N.3   136  LYS136     -0.1314
@<TRIPOS>BOND
     1   115   114    2
     2   114   113    1
     3   113   116    1
     4   113   112    1
     5   116   117    1
     6   104   103    2
     7   112   103   am
     8   117   118    1
     9   118   119    1
    10    42    41    2
    11   103   102    1
    12   119   120    1
    13    79    78   ar
    14    41    40    1
    15    39    40    1
    16    39    37   am
    17    46    44   am
    18   102   105    1
    19   102   101    1
    20    36    35    1
    21    36    37    1
    22    43    40    1
    23    43    44    1
    24    78    77    1
    25    78    80   ar
    26    35    28   am
    27    37    38    2
    28    44    45    2
    29   105   106    1
    30    77    76    1
    31    54    52   am
    32    28    29    2
    33    28    27    1
    34    72    73    1
    35   106   107    1
    36    76    73    1
    37    27    30    1
    38    27    26    1
    39    52    53    2
    40    52    51    1
    41    73    74    1
    42    25    24    1
    43    88    86   ar
    44    23    22    2
    45   107   108    1
    46    30    31    1
    47    51    48    1
    48    87    86   ar
    49    26    22   am
    50    22    21    1
    51    86    85    1
    52    31    32    1
    53    67    66    2
    54    24    21    1
    55    92    91    2
    56   108   109    2
    57    74    75    2
    58    91    90    1
    59    34    32   am
    60    47    48    1
    61    21    20    1
    62    48    49    1
    63    71    69   ar
    64    32    33    2
    65    20    18   am
    66    68    69    1
    67    68    65    1
    68    85    82    1
    69    69    70   ar
    70   110   109    1
    71   109   111    1
    72    66    65    1
    73    90    89    1
    74    90    93    1
    75    89    83   am
    76    93    94    1
    77    49    50    2
    78    62    61   ar
    79    65    64    1
    80     8     6   ar
    81    18    17    1
    82    18    19    2
    83    82    83    1
    84    82    81    1
    85    83    84    2
    86    14    13    1
    87    17    16    1
    88    12    11    2
    89     7     6   ar
    90    61    60    1
    91    61    63   ar
    92    94    95   ar
    93    94    96   ar
    94    60    59    1
    95     6     5    1
    96    11    16   am
    97    11    10    1
    98    95    97   ar
    99    13    15    1
   100    13    10    1
   101    96    98   ar
   102    59    56    1
   103    10     9    1
   104     5     2    1
   105     9     3   am
   106    97    99   ar
   107    98    99   ar
   108    55    56    1
   109     2     3    1
   110     2     1    1
   111    56    57    1
   112     3     4    2
   113    99   100    1
   114    57    58    2
