@<TRIPOS>MOLECULE
tmp/6dprA01.pdb
 141 136 0 0 0
SMALL
GASTEIGER

@<TRIPOS>ATOM
      1  N        116.4630  -11.6440  142.3080 N.3   152  PHE152     -0.1241
      2  CA       115.6170  -10.6670  142.9670 C.3   152  PHE152      0.1605
      3  C        115.7330   -9.3210  142.2440 C.2   152  PHE152      0.2264
      4  O        114.7320   -8.7680  141.7910 O.2   152  PHE152     -0.2867
      5  CB       115.9850  -10.5420  144.4470 C.3   152  PHE152      0.0534
      6  CG       115.1580   -9.5330  145.2010 C.ar  152  PHE152     -0.0203
      7  CD1      115.4510   -8.1810  145.1240 C.ar  152  PHE152     -0.0042
      8  CD2      114.0310   -9.9250  145.9050 C.ar  152  PHE152     -0.0042
      9  CE1      114.6670   -7.2470  145.7830 C.ar  152  PHE152     -0.0003
     10  CE2      113.2450   -8.9900  146.5590 C.ar  152  PHE152     -0.0003
     11  CZ       113.5660   -7.6540  146.4990 C.ar  152  PHE152     -0.0000
     12  N        115.5480  -15.6390  150.5330 N.3   215  PHE215     -0.1241
     13  CA       115.3260  -14.2030  150.4630 C.3   215  PHE215      0.1605
     14  C        115.0870  -13.6450  151.8710 C.2   215  PHE215      0.2264
     15  O        115.6080  -12.5840  152.2130 O.2   215  PHE215     -0.2867
     16  CB       114.1510  -13.8620  149.5420 C.3   215  PHE215      0.0534
     17  CG       113.6960  -12.4270  149.6420 C.ar  215  PHE215     -0.0203
     18  CD1      114.4840  -11.4010  149.1440 C.ar  215  PHE215     -0.0042
     19  CD2      112.5660  -12.0920  150.3700 C.ar  215  PHE215     -0.0042
     20  CE1      114.1160  -10.0760  149.3130 C.ar  215  PHE215     -0.0003
     21  CE2      112.2020  -10.7660  150.5440 C.ar  215  PHE215     -0.0003
     22  CZ       112.9760   -9.7610  150.0130 C.ar  215  PHE215     -0.0000
     23  N        117.2440   -9.8240  152.7170 N.3   220  ARG220     -0.1245
     24  CA       116.3750   -8.6770  152.9470 C.3   220  ARG220      0.1563
     25  C        116.9800   -7.7850  154.0400 C.2   220  ARG220      0.2260
     26  O        116.7540   -6.5770  154.0440 O.2   220  ARG220     -0.2867
     27  CB       114.9510   -9.1270  153.2940 C.3   220  ARG220      0.0307
     28  CG       114.7800   -9.6550  154.7120 C.3   220  ARG220      0.0489
     29  CD       113.3590   -9.5040  155.2240 C.3   220  ARG220      0.2205
     30  NE       113.3240   -9.2800  156.6620 N.pl3 220  ARG220     -0.0865
     31  CZ       113.7730  -10.1400  157.5700 C.cat 220  ARG220      0.5346
     32  NH1      113.8090  -11.4340  157.3010 N.pl3 220  ARG220      0.1354
     33  NH2      114.2060   -9.6990  158.7380 N.pl3 220  ARG220      0.1354
     34  N        118.7010   -4.7750  152.8280 N.3   223  LEU223     -0.1231
     35  CA       117.8730   -3.7880  152.1320 C.3   223  LEU223      0.1693
     36  C        116.9300   -3.0990  153.1270 C.2   223  LEU223      0.2593
     37  O        116.2390   -2.1440  152.7680 O.2   223  LEU223     -0.2718
     38  CB       117.0740   -4.4680  151.0150 C.3   223  LEU223      0.0284
     39  CG       117.8000   -5.5620  150.2340 C.3   223  LEU223      0.0019
     40  CD1      116.8510   -6.2350  149.2550 C.3   223  LEU223      0.0001
     41  CD2      119.0100   -5.0030  149.5000 C.3   223  LEU223      0.0001
     42  N        116.8840   -3.6140  154.3610 N.am  224  SER224     -0.1938
     43  CA       116.0290   -3.0660  155.4110 C.3   224  SER224      0.2055
     44  C        116.4380   -1.6200  155.7100 C.2   224  SER224      0.2644
     45  O        117.4200   -1.3800  156.4110 O.2   224  SER224     -0.2714
     46  CB       116.0860   -3.9140  156.6540 C.3   224  SER224      0.2130
     47  OG       117.4270   -4.0840  157.0870 O.3   224  SER224     -0.2179
     48  N        115.6730   -0.6680  155.1660 N.am  225  GLY225     -0.1939
     49  CA       116.0330    0.7420  155.2020 C.3   225  GLY225      0.2014
     50  C        116.6650    1.1270  156.5300 C.2   225  GLY225      0.2639
     51  O        117.8890    1.1350  156.6610 O.2   225  GLY225     -0.2714
     52  N        115.8150    1.4090  157.5250 N.am  226  TRP226     -0.1959
     53  CA       116.1970    2.1720  158.7160 C.3   226  TRP226      0.1771
     54  C        116.0460    1.3150  159.9770 C.2   226  TRP226      0.2619
     55  O        115.8660    1.8570  161.0670 O.2   226  TRP226     -0.2715
     56  CB       115.3560    3.4480  158.8470 C.3   226  TRP226      0.0590
     57  CG       115.6330    4.4940  157.8130 C.ar  226  TRP226      0.0006
     58  CD1      114.7970    4.8910  156.8110 C.ar  226  TRP226      0.0946
     59  CD2      116.7810    5.3580  157.7420 C.ar  226  TRP226      0.0152
     60  NE1      115.3710    5.8990  156.0850 N.ar  226  TRP226     -0.2442
     61  CE2      116.5870    6.2080  156.6330 C.ar  226  TRP226      0.0810
     62  CE3      117.9700    5.4650  158.4720 C.ar  226  TRP226      0.0012
     63  CZ2      117.5320    7.1570  156.2470 C.ar  226  TRP226      0.0191
     64  CZ3      118.9030    6.4030  158.0900 C.ar  226  TRP226      0.0001
     65  CH2      118.6840    7.2380  156.9940 C.ar  226  TRP226      0.0015
     66  N        116.0850   -0.0130  159.8180 N.am  227  LYS227     -0.1977
     67  CA       116.4220   -0.9070  160.9220 C.3   227  LYS227      0.1596
     68  C        117.8820   -0.6630  161.3290 C.2   227  LYS227      0.2287
     69  O        118.7580   -0.5330  160.4730 O.2   227  LYS227     -0.2864
     70  CB       116.2330   -2.3730  160.5250 C.3   227  LYS227      0.0298
     71  CG       114.8000   -2.8160  160.2660 C.3   227  LYS227      0.0038
     72  CD       114.5330   -4.2310  160.7380 C.3   227  LYS227      0.0206
     73  CE       114.1610   -5.1770  159.6160 C.3   227  LYS227      0.1093
     74  NZ       114.7790   -6.5130  159.7940 N.3   227  LYS227     -0.1314
     75  N        114.9960   -2.7770  147.0600 N.3   236  SER236     -0.1202
     76  CA       114.0880   -2.1990  148.0460 C.3   236  SER236      0.2020
     77  C        112.7770   -1.7750  147.3710 C.2   236  SER236      0.2618
     78  O        112.3440   -0.6280  147.5000 O.2   236  SER236     -0.2717
     79  CB       114.7380   -1.0450  148.7630 C.3   236  SER236      0.2103
     80  OG       114.2090   -0.9050  150.0740 O.3   236  SER236     -0.2182
     81  N        112.1350   -2.7290  146.6860 N.am  237  ALA237     -0.1979
     82  CA       110.9340   -2.4760  145.8900 C.3   237  ALA237      0.1597
     83  C        109.8420   -1.8730  146.7820 C.2   237  ALA237      0.2287
     84  O        109.7000   -2.2530  147.9440 O.2   237  ALA237     -0.2864
     85  CB       110.4710   -3.7570  145.2390 C.3   237  ALA237      0.0319
     86  N        109.8590    1.4820  146.8570 N.3   239  GLN239     -0.1245
     87  CA       110.3940    2.7790  146.4940 C.3   239  GLN239      0.1566
     88  C        110.3680    2.9120  144.9680 C.2   239  GLN239      0.2260
     89  O        111.0420    3.7680  144.3930 O.2   239  GLN239     -0.2867
     90  CB       111.8000    2.9250  147.0770 C.3   239  GLN239      0.0367
     91  CG       111.8340    2.7400  148.5890 C.3   239  GLN239      0.0905
     92  CD       113.2000    2.3780  149.1180 C.2   239  GLN239      0.2608
     93  OE1      113.3360    1.8170  150.2030 O.2   239  GLN239     -0.2717
     94  NE2      114.2300    2.7440  148.3720 N.am  239  GLN239     -0.0878
     95  N        102.4510    6.6460  154.1030 N.3   264  PHE264     -0.1241
     96  CA       103.5600    5.7470  153.8010 C.3   264  PHE264      0.1605
     97  C        103.9470    5.8800  152.3240 C.2   264  PHE264      0.2264
     98  O        105.1290    5.9400  151.9900 O.2   264  PHE264     -0.2867
     99  CB       103.1810    4.3030  154.1340 C.3   264  PHE264      0.0534
    100  CG       104.2720    3.2910  153.8900 C.ar  264  PHE264     -0.0203
    101  CD1      104.5520    2.8390  152.6100 C.ar  264  PHE264     -0.0042
    102  CD2      104.9860    2.7540  154.9500 C.ar  264  PHE264     -0.0042
    103  CE1      105.5320    1.8840  152.3950 C.ar  264  PHE264     -0.0003
    104  CE2      105.9640    1.7970  154.7330 C.ar  264  PHE264     -0.0003
    105  CZ       106.2320    1.3610  153.4570 C.ar  264  PHE264     -0.0000
    106  N        107.3680    7.4560  150.4110 N.3   268  MET268     -0.1245
    107  CA       108.2140    6.5780  149.6150 C.3   268  MET268      0.1570
    108  C        108.7920    7.3660  148.4340 C.2   268  MET268      0.2261
    109  O        109.7300    6.9120  147.7850 O.2   268  MET268     -0.2867
    110  CB       107.4350    5.3680  149.0870 C.3   268  MET268      0.0387
    111  CG       107.2400    4.2620  150.1140 C.3   268  MET268      0.0595
    112  SD       108.7960    3.5370  150.6970 S.3   268  MET268     -0.1393
    113  CE       108.7490    3.9970  152.4290 C.3   268  MET268      0.0692
    114  N        112.5430    8.4120  148.5490 N.3   271  TYR271     -0.1241
    115  CA       113.5530    7.3890  148.2950 C.3   271  TYR271      0.1605
    116  C        113.7420    7.2000  146.7830 C.2   271  TYR271      0.2264
    117  O        114.5600    6.3860  146.3560 O.2   271  TYR271     -0.2867
    118  CB       113.1640    6.0700  148.9680 C.3   271  TYR271      0.0534
    119  CG       113.0200    6.1390  150.4670 C.ar  271  TYR271     -0.0201
    120  CD1      111.8400    6.5670  151.0510 C.ar  271  TYR271     -0.0009
    121  CD2      114.0410    5.7210  151.3060 C.ar  271  TYR271     -0.0009
    122  CE1      111.6830    6.6010  152.4260 C.ar  271  TYR271      0.0417
    123  CE2      113.9060    5.7610  152.6840 C.ar  271  TYR271      0.0417
    124  CZ       112.7200    6.1990  153.2470 C.ar  271  TYR271      0.1957
    125  OH       112.5560    6.2260  154.6020 O.3   271  TYR271     -0.2866
    126  N        107.5350  -13.8290  152.6440 N.3   327  ILE327     -0.1245
    127  CA       107.6020  -13.3050  154.0110 C.3   327  ILE327      0.1561
    128  C        106.8900  -14.2920  154.9470 C.2   327  ILE327      0.2260
    129  O        107.5420  -15.0830  155.6250 O.2   327  ILE327     -0.2867
    130  CB       107.0090  -11.8810  154.1020 C.3   327  ILE327      0.0252
    131  CG1      107.5120  -10.9700  152.9780 C.3   327  ILE327      0.0019
    132  CG2      107.2650  -11.2700  155.4740 C.3   327  ILE327      0.0019
    133  CD1      108.9940  -10.6800  153.0300 C.3   327  ILE327      0.0001
    134  N        101.0370   -5.4470  158.0590 N.3   341  LEU341     -0.1245
    135  CA       101.5500   -5.3480  156.6940 C.3   341  LEU341      0.1561
    136  C        100.4380   -5.6820  155.6890 C.2   341  LEU341      0.2260
    137  O        100.0590   -4.8380  154.8750 O.2   341  LEU341     -0.2867
    138  CB       102.7370   -6.3090  156.5580 C.3   341  LEU341      0.0270
    139  CG       103.5400   -6.2260  155.2600 C.3   341  LEU341      0.0019
    140  CD1      104.1460   -7.5800  154.9240 C.3   341  LEU341      0.0001
    141  CD2      102.6880   -5.7280  154.1030 C.3   341  LEU341      0.0001
@<TRIPOS>BOND
     1     4     3    2
     2     3     2    1
     3     1     2    1
     4     2     5    1
     5    89    88    2
     6     5     6    1
     7    88    87    1
     8     7     6   ar
     9     7     9   ar
    10     6     8   ar
    11    85    82    1
    12     9    11   ar
    13    82    81    1
    14    82    83    1
    15     8    10   ar
    16   117   116    2
    17    87    86    1
    18    87    90    1
    19    11    10   ar
    20    81    77   am
    21    83    84    2
    22   116   115    1
    23    75    76    1
    24    90    91    1
    25    77    78    2
    26    77    76    1
    27   109   108    2
    28    76    79    1
    29   115   114    1
    30   115   118    1
    31    94    92   am
    32   108   107    1
    33    91    92    1
    34    79    80    1
    35   118   119    1
    36   110   107    1
    37   110   111    1
    38    92    93    2
    39    18    20   ar
    40    18    17   ar
    41    40    39    1
    42    20    22   ar
    43    41    39    1
    44    16    17    1
    45    16    13    1
    46   107   106    1
    47    17    19   ar
    48    22    21   ar
    49   111   112    1
    50    39    38    1
    51    19    21   ar
    52    13    12    1
    53    13    14    1
    54   119   120   ar
    55   119   121   ar
    56   112   113    1
    57    38    35    1
    58   120   122   ar
    59   121   123   ar
    60    14    15    2
    61    98    97    2
    62    35    34    1
    63    35    36    1
    64    97    96    1
    65   103   101   ar
    66   103   105   ar
    67   122   124   ar
    68   101   100   ar
    69   126   127    1
    70   123   124   ar
    71    23    24    1
    72    37    36    2
    73    24    27    1
    74    24    25    1
    75   131   133    1
    76   131   130    1
    77    36    42   am
    78   124   125    1
    79    27    28    1
    80   105   104   ar
    81    96    95    1
    82    96    99    1
    83   100    99    1
    84   100   102   ar
    85   127   130    1
    86   127   128    1
    87    25    26    2
    88   130   132    1
    89   141   139    1
    90    42    43    1
    91    28    29    1
    92   104   102   ar
    93   137   136    2
    94   140   139    1
    95   128   129    2
    96    48    49    1
    97    48    44   am
    98    49    50    1
    99    29    30    1
   100   139   138    1
   101    43    44    1
   102    43    46    1
   103   136   135    1
   104    44    45    2
   105    60    61   ar
   106    60    58   ar
   107    63    61   ar
   108    63    65   ar
   109    50    51    2
   110    50    52   am
   111   138   135    1
   112    61    59   ar
   113    46    47    1
   114    30    31    2
   115   135   134    1
   116    58    57   ar
   117    65    64   ar
   118    32    31    1
   119    52    53    1
   120    31    33    1
   121    59    57   ar
   122    59    62   ar
   123    57    56    1
   124    64    62   ar
   125    53    56    1
   126    53    54    1
   127    73    74    1
   128    73    72    1
   129    66    54   am
   130    66    67    1
   131    54    55    2
   132    71    70    1
   133    71    72    1
   134    69    68    2
   135    70    67    1
   136    67    68    1
