@<TRIPOS>MOLECULE
tmp/6dptA00.pdb
 156 147 0 0 0
SMALL
GASTEIGER

@<TRIPOS>ATOM
      1  N         19.8200    2.5820  -22.0950 N.3    61  SER61      -0.1217
      2  CA        20.1960    3.0690  -20.7690 C.3    61  SER61       0.1889
      3  C         19.8540    2.1130  -19.6290 C.2    61  SER61       0.2288
      4  O         20.2630    2.3790  -18.5000 O.2    61  SER61      -0.2866
      5  CB        19.5470    4.4210  -20.4950 C.3    61  SER61       0.2089
      6  OG        20.2000    5.4160  -21.2740 O.3    61  SER61      -0.2183
      7  N         22.8390    1.1940  -17.6930 N.3    64  LYS64      -0.1245
      8  CA        23.3250    1.9510  -16.5420 C.3    64  LYS64       0.1561
      9  C         23.0620    1.2410  -15.2210 C.2    64  LYS64       0.2260
     10  O         23.7910    1.4830  -14.2560 O.2    64  LYS64      -0.2867
     11  CB        22.6820    3.3460  -16.5220 C.3    64  LYS64       0.0271
     12  CG        23.2030    4.2690  -17.6300 C.3    64  LYS64       0.0035
     13  CD        22.3460    5.5620  -17.6420 C.3    64  LYS64       0.0206
     14  CE        22.8100    6.5550  -18.6940 C.3    64  LYS64       0.1093
     15  NZ        22.6230    6.0560  -20.1030 N.3    64  LYS64      -0.1314
     16  N         24.3780   15.4140  -21.7540 N.3   116  LEU116     -0.1231
     17  CA        23.7050   14.1430  -22.0240 C.3   116  LEU116      0.1693
     18  C         24.5930   13.1980  -22.8250 C.2   116  LEU116      0.2591
     19  O         24.7300   12.0130  -22.4860 O.2   116  LEU116     -0.2718
     20  CB        22.3920   14.4050  -22.7690 C.3   116  LEU116      0.0284
     21  CG        21.6190   13.1770  -23.2680 C.3   116  LEU116      0.0019
     22  CD1       21.3240   12.2320  -22.1060 C.3   116  LEU116      0.0001
     23  CD2       20.3440   13.6200  -23.9770 C.3   116  LEU116      0.0001
     24  N         25.2170   13.7050  -23.8870 N.am  117  GLN117     -0.1979
     25  CA        26.0320   12.8770  -24.7630 C.3   117  GLN117      0.1601
     26  C         27.4800   13.3500  -24.7530 C.2   117  GLN117      0.2287
     27  O         27.7650   14.5490  -24.6410 O.2   117  GLN117     -0.2864
     28  CB        25.4960   12.8890  -26.2180 C.3   117  GLN117      0.0394
     29  CG        24.0600   12.3610  -26.4010 C.3   117  GLN117      0.0908
     30  CD        23.8880   10.8960  -25.9940 C.2   117  GLN117      0.2608
     31  OE1       24.8620   10.1970  -25.6880 O.2   117  GLN117     -0.2717
     32  NE2       22.6350   10.4180  -26.0120 N.am  117  GLN117     -0.0878
     33  N         20.5360   14.3000  -16.2880 N.3   147  TYR147     -0.1241
     34  CA        20.8180   12.9730  -16.8280 C.3   147  TYR147      0.1605
     35  C         21.8570   13.0420  -17.9350 C.2   147  TYR147      0.2264
     36  O         21.7080   13.8160  -18.8820 O.2   147  TYR147     -0.2867
     37  CB        19.5190   12.3990  -17.3790 C.3   147  TYR147      0.0534
     38  CG        19.5720   10.9480  -17.7650 C.ar  147  TYR147     -0.0201
     39  CD1       19.5150    9.9510  -16.8010 C.ar  147  TYR147     -0.0009
     40  CD2       19.6170   10.5750  -19.1040 C.ar  147  TYR147     -0.0009
     41  CE1       19.5140    8.6130  -17.1650 C.ar  147  TYR147      0.0417
     42  CE2       19.6180    9.2510  -19.4750 C.ar  147  TYR147      0.0417
     43  CZ        19.5740    8.2790  -18.5040 C.ar  147  TYR147      0.1957
     44  OH        19.5650    6.9640  -18.8870 O.3   147  TYR147     -0.2866
     45  N         25.0540   10.7250  -20.1630 N.3   149  ASN149     -0.1240
     46  CA        25.9830    9.6200  -20.4220 C.3   149  ASN149      0.1653
     47  C         27.4310   10.0010  -20.1180 C.2   149  ASN149      0.2266
     48  O         28.2250    9.1440  -19.7250 O.2   149  ASN149     -0.2867
     49  CB        25.8910    9.1740  -21.8730 C.3   149  ASN149      0.1155
     50  CG        24.5700    8.5070  -22.1870 C.2   149  ASN149      0.2627
     51  OD1       23.9510    7.9030  -21.3140 O.2   149  ASN149     -0.2716
     52  ND2       24.1320    8.6200  -23.4330 N.am  149  ASN149     -0.0877
     53  N         23.1580   -0.2240  -32.8320 N.3   208  VAL208     -0.1231
     54  CA        23.9150    0.8530  -32.1990 C.3   208  VAL208      0.1692
     55  C         25.3400    0.8700  -32.7430 C.2   208  VAL208      0.2593
     56  O         25.9460   -0.1780  -33.0110 O.2   208  VAL208     -0.2718
     57  CB        23.8800    0.7140  -30.6670 C.3   208  VAL208      0.0266
     58  CG1       24.5710   -0.5570  -30.2220 C.3   208  VAL208      0.0020
     59  CG2       24.4850    1.9390  -29.9920 C.3   208  VAL208      0.0020
     60  N         25.8740    2.0750  -32.9410 N.am  209  SER209     -0.1939
     61  CA        27.2260    2.2770  -33.4490 C.3   209  SER209      0.2040
     62  C         28.2020    2.5460  -32.3110 C.2   209  SER209      0.2485
     63  O         27.8010    2.9620  -31.2190 O.2   209  SER209     -0.2729
     64  CB        27.2420    3.4470  -34.4370 C.3   209  SER209      0.2129
     65  OG        26.3960    4.4960  -33.9850 O.3   209  SER209     -0.2179
     66  N         29.5010    2.3200  -32.5280 N.am  210  PRO210     -0.2715
     67  CA        30.4810    2.5790  -31.4600 C.3   210  PRO210      0.1536
     68  C         30.5750    4.0600  -31.1270 C.2   210  PRO210      0.2599
     69  O         30.4580    4.9250  -31.9990 O.2   210  PRO210     -0.2715
     70  CB        31.7990    2.0530  -32.0470 C.3   210  PRO210      0.0310
     71  CG        31.3820    1.0850  -33.1350 C.3   210  PRO210      0.0237
     72  CD        30.1160    1.6630  -33.6970 C.3   210  PRO210      0.0939
     73  N         30.7820    4.3500  -29.8460 N.am  211  GLY211     -0.1955
     74  CA        30.9550    5.7240  -29.4040 C.3   211  GLY211      0.1869
     75  C         31.7320    5.7360  -28.1080 C.2   211  GLY211      0.2309
     76  O         31.9310    4.7010  -27.4670 O.2   211  GLY211     -0.2863
     77  N         25.4560    2.7660  -22.3550 N.3   218  TYR218     -0.1241
     78  CA        24.3090    2.2710  -23.1190 C.3   218  TYR218      0.1605
     79  C         24.6220    1.0520  -23.9790 C.2   218  TYR218      0.2264
     80  O         23.9070    0.7980  -24.9560 O.2   218  TYR218     -0.2867
     81  CB        23.7540    3.3650  -24.0340 C.3   218  TYR218      0.0534
     82  CG        24.7820    4.0020  -24.9830 C.ar  218  TYR218     -0.0201
     83  CD1       25.0770    3.4320  -26.2180 C.ar  218  TYR218     -0.0009
     84  CD2       25.4000    5.2080  -24.6590 C.ar  218  TYR218     -0.0009
     85  CE1       25.9770    4.0210  -27.0850 C.ar  218  TYR218      0.0417
     86  CE2       26.3060    5.8000  -25.5090 C.ar  218  TYR218      0.0417
     87  CZ        26.5880    5.2000  -26.7220 C.ar  218  TYR218      0.1957
     88  OH        27.4780    5.7890  -27.5650 O.3   218  TYR218     -0.2866
     89  N         10.6640   12.0090  -21.5450 N.3   286  ASN286     -0.1240
     90  CA        12.0460   12.4930  -21.5790 C.3   286  ASN286      0.1653
     91  C         12.1310   13.9750  -21.2250 C.2   286  ASN286      0.2266
     92  O         13.0990   14.4270  -20.5940 O.2   286  ASN286     -0.2867
     93  CB        12.6450   12.2480  -22.9610 C.3   286  ASN286      0.1155
     94  CG        13.1490   10.8380  -23.1130 C.2   286  ASN286      0.2627
     95  OD1       13.4280   10.1660  -22.1080 O.2   286  ASN286     -0.2716
     96  ND2       13.2530   10.3670  -24.3470 N.am  286  ASN286     -0.0877
     97  N         14.9220   14.1180  -18.6320 N.3   290  LEU290     -0.1245
     98  CA        16.1820   14.6700  -19.1260 C.3   290  LEU290      0.1561
     99  C         16.3970   16.1290  -18.7360 C.2   290  LEU290      0.2260
    100  O         17.4190   16.7130  -19.1240 O.2   290  LEU290     -0.2867
    101  CB        16.2660   14.5410  -20.6560 C.3   290  LEU290      0.0270
    102  CG        16.1470   13.1540  -21.2860 C.3   290  LEU290      0.0019
    103  CD1       16.2620   13.2360  -22.8080 C.3   290  LEU290      0.0001
    104  CD2       17.2170   12.2550  -20.7170 C.3   290  LEU290      0.0001
    105  N         14.0760    1.5180  -14.4820 N.3   312  LYS312     -0.1231
    106  CA        14.9480    2.2130  -15.4200 C.3   312  LYS312      0.1693
    107  C         14.3630    2.0520  -16.8140 C.2   312  LYS312      0.2593
    108  O         14.0280    0.9330  -17.2190 O.2   312  LYS312     -0.2718
    109  CB        16.3880    1.6570  -15.3850 C.3   312  LYS312      0.0285
    110  CG        17.3720    2.4530  -16.2490 C.3   312  LYS312      0.0035
    111  CD        17.7590    3.7650  -15.5380 C.3   312  LYS312      0.0206
    112  CE        18.5260    4.7250  -16.4570 C.3   312  LYS312      0.1093
    113  NZ        17.6190    5.3620  -17.4320 N.3   312  LYS312     -0.1314
    114  N         14.2340    3.1600  -17.5340 N.am  313  THR313     -0.1939
    115  CA        13.9050    3.1210  -18.9540 C.3   313  THR313      0.2028
    116  C         15.1830    3.1270  -19.7770 C.2   313  THR313      0.2643
    117  O         16.2270    3.6050  -19.3320 O.2   313  THR313     -0.2714
    118  CB        13.0610    4.3270  -19.3570 C.3   313  THR313      0.1808
    119  OG1       13.8680    5.5050  -19.2330 O.3   313  THR313     -0.2208
    120  CG2       11.8440    4.4620  -18.4720 C.3   313  THR313      0.0379
    121  N         15.0960    2.6270  -21.0010 N.am  314  GLY314     -0.1939
    122  CA        16.2830    2.5810  -21.8380 C.3   314  GLY314      0.2014
    123  C         15.9090    2.6620  -23.2940 C.2   314  GLY314      0.2639
    124  O         14.8570    2.1710  -23.7060 O.2   314  GLY314     -0.2714
    125  N         16.7920    3.2610  -24.0870 N.am  315  ALA315     -0.1963
    126  CA        16.5120    3.3750  -25.5080 C.3   315  ALA315      0.1728
    127  C         17.8090    3.4300  -26.2850 C.2   315  ALA315      0.2617
    128  O         18.8460    3.8570  -25.7720 O.2   315  ALA315     -0.2715
    129  CB        15.6610    4.6140  -25.8240 C.3   315  ALA315      0.0334
    130  N         17.7430    2.9510  -27.5210 N.am  316  THR316     -0.1937
    131  CA        18.7370    3.2930  -28.5290 C.3   316  THR316      0.2028
    132  C         17.9670    3.7890  -29.7460 C.2   316  THR316      0.2642
    133  O         16.7350    3.9360  -29.6910 O.2   316  THR316     -0.2714
    134  CB        19.6510    2.1090  -28.8810 C.3   316  THR316      0.1808
    135  OG1       18.8750    1.0300  -29.4240 O.3   316  THR316     -0.2208
    136  CG2       20.4120    1.6040  -27.6680 C.3   316  THR316      0.0379
    137  N         18.6720    4.0670  -30.8410 N.am  317  GLY317     -0.1954
    138  CA        17.9940    4.5240  -32.0390 C.3   317  GLY317      0.1869
    139  C         16.9150    3.5670  -32.5020 C.2   317  GLY317      0.2309
    140  O         15.8710    4.0010  -32.9990 O.2   317  GLY317     -0.2863
    141  N         12.1440    2.2080  -30.6610 N.3   340  ASN340     -0.1240
    142  CA        12.1530    3.2110  -29.5900 C.3   340  ASN340      0.1653
    143  C         10.8060    3.9350  -29.6080 C.2   340  ASN340      0.2266
    144  O         10.5590    4.7880  -30.4610 O.2   340  ASN340     -0.2867
    145  CB        13.3140    4.1790  -29.7800 C.3   340  ASN340      0.1155
    146  CG        13.4250    5.1910  -28.6520 C.2   340  ASN340      0.2627
    147  OD1       12.7550    5.0740  -27.6200 O.2   340  ASN340     -0.2716
    148  ND2       14.2900    6.1840  -28.8390 N.am  340  ASN340     -0.0877
    149  N          8.4740    6.6920  -23.7560 N.3   343  ASN343     -0.1240
    150  CA         8.5580    6.1660  -22.3920 C.3   343  ASN343      0.1653
    151  C          7.2250    6.0810  -21.6610 C.2   343  ASN343      0.2266
    152  O          6.9870    5.0530  -21.0030 O.2   343  ASN343     -0.2867
    153  CB         9.5160    7.0180  -21.5470 C.3   343  ASN343      0.1155
    154  CG        10.9760    6.7730  -21.8810 C.2   343  ASN343      0.2627
    155  OD1       11.3610    5.6760  -22.2780 O.2   343  ASN343     -0.2716
    156  ND2       11.7950    7.8080  -21.7270 N.am  343  ASN343     -0.0877
@<TRIPOS>BOND
     1    64    65    1
     2    64    61    1
     3    72    71    1
     4    72    66    1
     5    61    60    1
     6    61    62    1
     7    71    70    1
     8    56    55    2
     9   140   139    2
    10    60    55   am
    11    53    54    1
    12    55    54    1
    13    66    62   am
    14    66    67    1
    15   139   138    1
    16    62    63    2
    17    54    57    1
    18    70    67    1
    19   138   137    1
    20    69    68    2
    21    67    68    1
    22    68    73   am
    23   137   132   am
    24    57    58    1
    25    57    59    1
    26   141   142    1
    27   144   143    2
    28    73    74    1
    29   145   142    1
    30   145   146    1
    31   132   133    2
    32   132   131    1
    33   143   142    1
    34   135   134    1
    35    74    75    1
    36   134   131    1
    37   134   136    1
    38   148   146   am
    39   146   147    2
    40   131   130    1
    41    75    76    2
    42    88    87    1
    43   130   127   am
    44    85    87   ar
    45    85    83   ar
    46    87    86   ar
    47    29    28    1
    48    29    30    1
    49   127   128    2
    50   127   126    1
    51    83    82   ar
    52    28    25    1
    53    32    30   am
    54    30    31    2
    55   129   126    1
    56    86    84   ar
    57   126   125    1
    58    82    84   ar
    59    82    81    1
    60    80    79    2
    61    25    26    1
    62    25    24    1
    63    26    27    2
    64    96    94   am
    65   125   123   am
    66    81    78    1
    67    79    78    1
    68    23    21    1
    69    24    18   am
    70   149   150    1
    71   124   123    2
    72    52    50   am
    73   123   122    1
    74    21    20    1
    75    21    22    1
    76    78    77    1
    77    94    93    1
    78    94    95    2
    79    93    90    1
    80    18    19    2
    81    18    17    1
    82   103   102    1
    83    20    17    1
    84   150   151    1
    85   150   153    1
    86   155   154    2
    87    50    49    1
    88    50    51    2
    89     1     2    1
    90    17    16    1
    91   154   156   am
    92   154   153    1
    93    49    46    1
    94   122   121    1
    95   151   152    2
    96    90    89    1
    97    90    91    1
    98   102   104    1
    99   102   101    1
   100     6     5    1
   101    91    92    2
   102   121   116   am
   103     2     5    1
   104     2     3    1
   105   101    98    1
   106    46    45    1
   107    46    47    1
   108    47    48    2
   109    15    14    1
   110   116   117    2
   111   116   115    1
   112     3     4    2
   113    42    40   ar
   114    42    43   ar
   115   118   119    1
   116   118   115    1
   117   118   120    1
   118    98    99    1
   119    98    97    1
   120   100    99    2
   121    40    38   ar
   122   115   114    1
   123    44    43    1
   124    36    35    2
   125    14    13    1
   126    43    41   ar
   127    35    34    1
   128    38    37    1
   129    38    39   ar
   130     7     8    1
   131    13    12    1
   132    12    11    1
   133   114   107   am
   134   113   112    1
   135    37    34    1
   136   108   107    2
   137    41    39   ar
   138    34    33    1
   139   107   106    1
   140     8    11    1
   141     8     9    1
   142   112   111    1
   143   110   111    1
   144   110   109    1
   145   106   109    1
   146   106   105    1
   147     9    10    2
