@<TRIPOS>MOLECULE
tmp/6dpxB00.pdb
 155 146 0 0 0
SMALL
GASTEIGER

@<TRIPOS>ATOM
      1  N         30.0840    2.3160   28.7120 N.3    61  SER61      -0.1217
      2  CA        29.9570    2.9250   27.3850 C.3    61  SER61       0.1889
      3  C         30.0440    1.9320   26.2370 C.2    61  SER61       0.2288
      4  O         29.6890    2.2890   25.1070 O.2    61  SER61      -0.2866
      5  CB        31.0350    3.9890   27.1860 C.3    61  SER61       0.2089
      6  OG        30.5940    5.2370   27.6900 O.3    61  SER61      -0.2183
      7  N         26.9760    1.5370   24.1390 N.3    64  LYS64      -0.1245
      8  CA        26.6750    2.3330   22.9570 C.3    64  LYS64       0.1561
      9  C         26.8500    1.5410   21.6630 C.2    64  LYS64       0.2260
     10  O         26.2330    1.8970   20.6490 O.2    64  LYS64      -0.2867
     11  CB        27.5530    3.5920   22.9420 C.3    64  LYS64       0.0271
     12  CG        27.3190    4.5250   24.1500 C.3    64  LYS64       0.0035
     13  CD        28.3560    5.6530   24.1900 C.3    64  LYS64       0.0206
     14  CE        27.9490    6.7470   25.1800 C.3    64  LYS64       0.1093
     15  NZ        28.2170    6.3270   26.5850 N.3    64  LYS64      -0.1314
     16  N         28.0290   15.9180   27.8820 N.3   116  LEU116     -0.1231
     17  CA        28.5390   14.5830   28.1670 C.3   116  LEU116      0.1693
     18  C         27.5530   13.7670   28.9970 C.2   116  LEU116      0.2591
     19  O         27.3210   12.5850   28.7140 O.2   116  LEU116     -0.2718
     20  CB        29.8880   14.6940   28.8830 C.3   116  LEU116      0.0284
     21  CG        30.5210   13.4010   29.4010 C.3   116  LEU116      0.0019
     22  CD1       30.8170   12.4720   28.2450 C.3   116  LEU116      0.0001
     23  CD2       31.7910   13.6840   30.1970 C.3   116  LEU116      0.0001
     24  N         26.9520   14.3830   30.0150 N.am  117  GLN117     -0.1979
     25  CA        26.0040   13.7020   30.8880 C.3   117  GLN117      0.1601
     26  C         24.6270   14.3330   30.7860 C.2   117  GLN117      0.2287
     27  O         24.5040   15.5510   30.6560 O.2   117  GLN117     -0.2864
     28  CB        26.4510   13.7550   32.3540 C.3   117  GLN117      0.0394
     29  CG        27.8770   13.3700   32.5630 C.3   117  GLN117      0.0908
     30  CD        27.9880   11.9870   33.1230 C.2   117  GLN117      0.2608
     31  OE1       27.2470   11.0840   32.7200 O.2   117  GLN117     -0.2717
     32  NE2       28.9020   11.8040   34.0740 N.am  117  GLN117     -0.0878
     33  N         31.9250   13.7270   22.4480 N.3   147  TYR147     -0.1241
     34  CA        31.3760   12.5180   23.0440 C.3   147  TYR147      0.1605
     35  C         30.3230   12.8730   24.0900 C.2   147  TYR147      0.2264
     36  O         30.5640   13.7170   24.9570 O.2   147  TYR147     -0.2867
     37  CB        32.5150   11.7150   23.6610 C.3   147  TYR147      0.0534
     38  CG        32.1580   10.3310   24.1290 C.ar  147  TYR147     -0.0201
     39  CD1       32.0740    9.2730   23.2270 C.ar  147  TYR147     -0.0009
     40  CD2       31.9360   10.0680   25.4750 C.ar  147  TYR147     -0.0009
     41  CE1       31.7600    7.9890   23.6620 C.ar  147  TYR147      0.0417
     42  CE2       31.6340    8.7910   25.9220 C.ar  147  TYR147      0.0417
     43  CZ        31.5520    7.7590   25.0140 C.ar  147  TYR147      0.1957
     44  OH        31.2610    6.4990   25.4430 O.3   147  TYR147     -0.2866
     45  N         26.6750   11.2770   26.2770 N.3   149  ASN149     -0.1240
     46  CA        25.5480   10.3900   26.5750 C.3   149  ASN149      0.1653
     47  C         24.2320   11.0190   26.1590 C.2   149  ASN149      0.2266
     48  O         23.3050   10.3180   25.7260 O.2   149  ASN149     -0.2867
     49  CB        25.4860   10.0710   28.0690 C.3   149  ASN149      0.1155
     50  CG        26.5900    9.1710   28.5210 C.2   149  ASN149      0.2627
     51  OD1       27.2530    8.5240   27.7070 O.2   149  ASN149     -0.2716
     52  ND2       26.7980    9.1080   29.8400 N.am  149  ASN149     -0.0877
     53  N         27.4400   -0.5940   42.3040 N.3   207  HIS207     -0.1226
     54  CA        26.7700   -0.8780   41.0440 C.3   207  HIS207      0.1752
     55  C         26.3540    0.4440   40.4160 C.2   207  HIS207      0.2596
     56  O         26.2140    1.4570   41.1050 O.2   207  HIS207     -0.2718
     57  CB        25.5460   -1.7820   41.2490 C.3   207  HIS207      0.0759
     58  CG        25.8790   -3.2380   41.3490 C.ar  207  HIS207      0.0818
     59  ND1       25.1000   -4.1320   42.0510 N.ar  207  HIS207     -0.2268
     60  CD2       26.9090   -3.9560   40.8410 C.ar  207  HIS207      0.1154
     61  CE1       25.6290   -5.3380   41.9620 C.ar  207  HIS207      0.1986
     62  NE2       26.7240   -5.2600   41.2270 N.ar  207  HIS207     -0.2212
     63  N         26.1590    0.4350   39.0940 N.am  208  VAL208     -0.1966
     64  CA        25.8330    1.6720   38.3910 C.3   208  VAL208      0.1727
     65  C         24.5180    2.2440   38.9220 C.2   208  VAL208      0.2616
     66  O         23.5930    1.5050   39.2800 O.2   208  VAL208     -0.2715
     67  CB        25.7870    1.4040   36.8750 C.3   208  VAL208      0.0290
     68  CG1       24.6450    0.4370   36.5220 C.3   208  VAL208      0.0023
     69  CG2       25.7060    2.7020   36.0820 C.3   208  VAL208      0.0023
     70  N         24.4420    3.5780   39.0000 N.am  209  SER209     -0.1950
     71  CA        23.2620    4.3110   39.4650 C.3   209  SER209      0.1924
     72  C         22.2420    4.4720   38.3350 C.2   209  SER209      0.2314
     73  O         22.6240    4.6840   37.1810 O.2   209  SER209     -0.2863
     74  CB        23.6650    5.6910   39.9810 C.3   209  SER209      0.2116
     75  OG        24.6780    5.6010   40.9730 O.3   209  SER209     -0.2180
     76  N         24.6260    3.5700   28.7250 N.3   218  TYR218     -0.1241
     77  CA        25.6090    2.8430   29.5240 C.3   218  TYR218      0.1605
     78  C         25.0060    1.7260   30.3770 C.2   218  TYR218      0.2264
     79  O         25.6110    1.3120   31.3750 O.2   218  TYR218     -0.2867
     80  CB        26.3890    3.8260   30.4140 C.3   218  TYR218      0.0534
     81  CG        25.5280    4.7130   31.2830 C.ar  218  TYR218     -0.0201
     82  CD1       25.0950    4.2830   32.5310 C.ar  218  TYR218     -0.0009
     83  CD2       25.1500    5.9830   30.8580 C.ar  218  TYR218     -0.0009
     84  CE1       24.3130    5.0870   33.3300 C.ar  218  TYR218      0.0417
     85  CE2       24.3620    6.7970   31.6500 C.ar  218  TYR218      0.0417
     86  CZ        23.9510    6.3410   32.8900 C.ar  218  TYR218      0.1957
     87  OH        23.1690    7.1450   33.6900 O.3   218  TYR218     -0.2866
     88  N         41.0020   10.1270   28.4330 N.3   286  ASN286     -0.1240
     89  CA        39.7980   10.9550   28.4250 C.3   286  ASN286      0.1653
     90  C         40.0810   12.4260   28.1790 C.2   286  ASN286      0.2266
     91  O         39.1690   13.1560   27.7740 O.2   286  ASN286     -0.2867
     92  CB        39.0210   10.7930   29.7300 C.3   286  ASN286      0.1155
     93  CG        38.3000    9.4710   29.8050 C.2   286  ASN286      0.2627
     94  OD1       37.9120    8.8950   28.7820 O.2   286  ASN286     -0.2716
     95  ND2       38.1310    8.9670   31.0110 N.am  286  ASN286     -0.0877
     96  N         37.3080   12.7630   25.3770 N.3   290  LEU290     -0.1245
     97  CA        36.1520   13.5750   25.7330 C.3   290  LEU290      0.1561
     98  C         36.2570   15.0250   25.2720 C.2   290  LEU290      0.2260
     99  O         35.3800   15.8300   25.6000 O.2   290  LEU290     -0.2867
    100  CB        35.9230   13.5290   27.2450 C.3   290  LEU290      0.0270
    101  CG        35.7590   12.1430   27.8490 C.3   290  LEU290      0.0019
    102  CD1       35.6140   12.2580   29.3560 C.3   290  LEU290      0.0001
    103  CD2       34.5690   11.4130   27.2360 C.3   290  LEU290      0.0001
    104  N         35.8410    0.0900   21.1480 N.3   312  LYS312     -0.1231
    105  CA        35.0780    0.9470   22.0500 C.3   312  LYS312      0.1693
    106  C         35.5470    0.6940   23.4780 C.2   312  LYS312      0.2593
    107  O         35.5690   -0.4550   23.9260 O.2   312  LYS312     -0.2718
    108  CB        33.5700    0.6680   21.9460 C.3   312  LYS312      0.0285
    109  CG        32.7350    1.6290   22.7560 C.3   312  LYS312      0.0035
    110  CD        32.7560    3.0270   22.1240 C.3   312  LYS312      0.0206
    111  CE        32.0800    4.0660   23.0470 C.3   312  LYS312      0.1093
    112  NZ        33.0120    4.4730   24.1580 N.3   312  LYS312     -0.1314
    113  N         35.9070    1.7590   24.1840 N.am  313  THR313     -0.1939
    114  CA        36.1500    1.6850   25.6210 C.3   313  THR313      0.2028
    115  C         34.8460    1.9180   26.3770 C.2   313  THR313      0.2643
    116  O         33.9260    2.5710   25.8840 O.2   313  THR313     -0.2714
    117  CB        37.1700    2.7320   26.0670 C.3   313  THR313      0.1808
    118  OG1       36.6880    4.0370   25.7120 O.3   313  THR313     -0.2208
    119  CG2       38.5080    2.5010   25.4130 C.3   313  THR313      0.0379
    120  N         34.7820    1.4130   27.5980 N.am  314  GLY314     -0.1939
    121  CA        33.6000    1.6280   28.4170 C.3   314  GLY314      0.2014
    122  C         33.9570    1.6160   29.8830 C.2   314  GLY314      0.2639
    123  O         34.8870    0.9250   30.3070 O.2   314  GLY314     -0.2714
    124  N         33.2080    2.3860   30.6670 N.am  315  ALA315     -0.1963
    125  CA        33.4060    2.3910   32.1080 C.3   315  ALA315      0.1728
    126  C         32.0860    2.7010   32.7960 C.2   315  ALA315      0.2617
    127  O         31.1810    3.2820   32.2010 O.2   315  ALA315     -0.2715
    128  CB        34.4670    3.4090   32.5270 C.3   315  ALA315      0.0334
    129  N         31.9730    2.2600   34.0430 N.am  316  THR316     -0.1937
    130  CA        31.0540    2.8440   35.0100 C.3   316  THR316      0.2028
    131  C         31.8790    3.2210   36.2370 C.2   316  THR316      0.2642
    132  O         33.1090    3.1510   36.2170 O.2   316  THR316     -0.2714
    133  CB        29.9170    1.8980   35.3910 C.3   316  THR316      0.1808
    134  OG1       30.4640    0.7210   35.9910 O.3   316  THR316     -0.2208
    135  CG2       29.0470    1.5280   34.1640 C.3   316  THR316      0.0379
    136  N         31.1900    3.6070   37.3110 N.am  317  GLY317     -0.1954
    137  CA        31.8880    3.9080   38.5520 C.3   317  GLY317      0.1869
    138  C         32.8280    2.8010   38.9920 C.2   317  GLY317      0.2309
    139  O         33.9610    3.0620   39.4010 O.2   317  GLY317     -0.2863
    140  N         37.3500    0.4250   37.5280 N.3   340  ASN340     -0.1240
    141  CA        37.5510    1.4050   36.4600 C.3   340  ASN340      0.1653
    142  C         38.9890    1.9140   36.5030 C.2   340  ASN340      0.2266
    143  O         39.3170    2.8320   37.2600 O.2   340  ASN340     -0.2867
    144  CB        36.5650    2.5600   36.5820 C.3   340  ASN340      0.1155
    145  CG        36.7210    3.5760   35.4650 C.2   340  ASN340      0.2627
    146  OD1       37.3860    3.3190   34.4550 O.2   340  ASN340     -0.2716
    147  ND2       36.1140    4.7420   35.6420 N.am  340  ASN340     -0.0877
    148  N         41.9320    4.1120   30.6390 N.3   343  ASN343     -0.1240
    149  CA        41.7620    3.5850   29.2840 C.3   343  ASN343      0.1653
    150  C         43.0680    3.2000   28.6030 C.2   343  ASN343      0.2266
    151  O         43.1260    2.1030   28.0220 O.2   343  ASN343     -0.2867
    152  CB        41.0170    4.6040   28.4080 C.3   343  ASN343      0.1155
    153  CG        39.5370    4.7150   28.7520 C.2   343  ASN343      0.2627
    154  OD1       38.8960    3.7380   29.1570 O.2   343  ASN343     -0.2716
    155  ND2       38.9870    5.9110   28.5770 N.am  343  ASN343     -0.0877
@<TRIPOS>BOND
     1    10     9    2
     2   104   105    1
     3     9     8    1
     4   108   105    1
     5   108   109    1
     6   105   106    1
     7   110   109    1
     8   110   111    1
     9    33    34    1
    10    11     8    1
    11    11    12    1
    12     8     7    1
    13    34    37    1
    14    34    35    1
    15   111   112    1
    16    39    41   ar
    17    39    38   ar
    18   106   107    2
    19   106   113   am
    20    37    38    1
    21    41    43   ar
    22    35    36    2
    23    38    40   ar
    24    12    13    1
    25   113   114    1
    26    13    14    1
    27    43    44    1
    28    43    42   ar
    29     4     3    2
    30    14    15    1
    31    98    99    2
    32    98    97    1
    33    96    97    1
    34   119   117    1
    35    40    42   ar
    36   114   117    1
    37   114   115    1
    38   118   117    1
    39    48    47    2
    40    97   100    1
    41   116   115    2
    42    47    46    1
    43     3     2    1
    44    45    46    1
    45   115   120   am
    46    46    49    1
    47     5     2    1
    48     5     6    1
    49   103   101    1
    50   100   101    1
    51     2     1    1
    52   120   121    1
    53    51    50    2
    54    91    90    2
    55   101   102    1
    56    16    17    1
    57   151   150    2
    58    49    50    1
    59    17    20    1
    60    17    18    1
    61    90    89    1
    62    22    21    1
    63   152   153    1
    64   152   149    1
    65   121   122    1
    66    89    88    1
    67    89    92    1
    68    50    52   am
    69   155   153   am
    70   150   149    1
    71    19    18    2
    72    76    77    1
    73   153   154    2
    74    94    93    2
    75    20    21    1
    76    18    24   am
    77   149   148    1
    78    21    23    1
    79    77    78    1
    80    77    80    1
    81    92    93    1
    82    93    95   am
    83   122   123    2
    84   122   124   am
    85    24    25    1
    86    78    79    2
    87    80    81    1
    88    27    26    2
    89   124   125    1
    90    26    25    1
    91    83    81   ar
    92    83    85   ar
    93    25    28    1
    94    81    82   ar
    95    85    86   ar
    96   125   128    1
    97   125   126    1
    98   127   126    2
    99    28    29    1
   100    82    84   ar
   101    29    30    1
   102    31    30    2
   103   126   129   am
   104    86    84   ar
   105    86    87    1
   106    30    32   am
   107   129   130    1
   108   135   133    1
   109   146   145    2
   110   130   133    1
   111   130   131    1
   112   133   134    1
   113   145   147   am
   114   145   144    1
   115    69    67    1
   116   132   131    2
   117   131   136   am
   118   141   142    1
   119   141   144    1
   120   141   140    1
   121   142   143    2
   122    68    67    1
   123    67    64    1
   124    73    72    2
   125   136   137    1
   126    72    71    1
   127    64    65    1
   128    64    63    1
   129   137   138    1
   130    65    70   am
   131    65    66    2
   132   138   139    2
   133    70    71    1
   134    63    55   am
   135    71    74    1
   136    74    75    1
   137    55    54    1
   138    55    56    2
   139    60    62   ar
   140    60    58   ar
   141    54    57    1
   142    54    53    1
   143    62    61   ar
   144    57    58    1
   145    58    59   ar
   146    61    59   ar
