@<TRIPOS>MOLECULE
tmp/6dpyB00.pdb
 144 134 0 0 0
SMALL
GASTEIGER

@<TRIPOS>ATOM
      1  N         30.0690    2.4830   28.7070 N.3    61  SER61      -0.1217
      2  CA        29.8650    3.0100   27.3570 C.3    61  SER61       0.1889
      3  C         29.9620    1.9510   26.2710 C.2    61  SER61       0.2288
      4  O         29.5280    2.2030   25.1470 O.2    61  SER61      -0.2866
      5  CB        30.8800    4.1050   27.0420 C.3    61  SER61       0.2089
      6  OG        30.4540    5.3460   27.5570 O.3    61  SER61      -0.2183
      7  N         26.9560    1.5500   24.2860 N.3    64  LYS64      -0.1245
      8  CA        26.6150    2.3670   23.1230 C.3    64  LYS64       0.1561
      9  C         26.7990    1.6050   21.8090 C.2    64  LYS64       0.2260
     10  O         26.1830    1.9750   20.8000 O.2    64  LYS64      -0.2867
     11  CB        27.4480    3.6660   23.1010 C.3    64  LYS64       0.0271
     12  CG        27.2420    4.6220   24.3040 C.3    64  LYS64       0.0035
     13  CD        28.3350    5.7170   24.3360 C.3    64  LYS64       0.0206
     14  CE        28.0070    6.8810   25.2930 C.3    64  LYS64       0.1093
     15  NZ        27.9620    6.4690   26.7160 N.3    64  LYS64      -0.1314
     16  N         28.1840   16.0360   27.7960 N.3   116  LEU116     -0.1231
     17  CA        28.7030   14.7000   28.0800 C.3   116  LEU116      0.1693
     18  C         27.7230   13.8680   28.9010 C.2   116  LEU116      0.2591
     19  O         27.4890   12.6840   28.6050 O.2   116  LEU116     -0.2718
     20  CB        30.0440   14.8240   28.8060 C.3   116  LEU116      0.0284
     21  CG        30.6940   13.5460   29.3440 C.3   116  LEU116      0.0019
     22  CD1       31.0160   12.6300   28.1880 C.3   116  LEU116      0.0001
     23  CD2       31.9530   13.8530   30.1410 C.3   116  LEU116      0.0001
     24  N         27.1510   14.4600   29.9430 N.am  117  GLN117     -0.1979
     25  CA        26.1720   13.7790   30.7720 C.3   117  GLN117      0.1601
     26  C         24.8600   14.5480   30.7340 C.2   117  GLN117      0.2287
     27  O         24.8440   15.7800   30.6270 O.2   117  GLN117     -0.2864
     28  CB        26.6380   13.6400   32.2340 C.3   117  GLN117      0.0394
     29  CG        27.1680   12.2440   32.6190 C.3   117  GLN117      0.0908
     30  CD        26.0620   11.2610   33.0620 C.2   117  GLN117      0.2608
     31  OE1       24.9460   11.2630   32.5170 O.2   117  GLN117     -0.2717
     32  NE2       26.3820   10.4050   34.0400 N.am  117  GLN117     -0.0878
     33  N         31.8710   13.7700   22.3480 N.3   147  TYR147     -0.1241
     34  CA        31.3680   12.5460   22.9680 C.3   147  TYR147      0.1605
     35  C         30.3380   12.8820   24.0390 C.2   147  TYR147      0.2264
     36  O         30.5750   13.7480   24.8830 O.2   147  TYR147     -0.2867
     37  CB        32.5440   11.7720   23.5610 C.3   147  TYR147      0.0534
     38  CG        32.2270   10.4000   24.0910 C.ar  147  TYR147     -0.0201
     39  CD1       32.1340    9.3100   23.2340 C.ar  147  TYR147     -0.0009
     40  CD2       32.0340   10.1840   25.4470 C.ar  147  TYR147     -0.0009
     41  CE1       31.8520    8.0510   23.7110 C.ar  147  TYR147      0.0417
     42  CE2       31.7560    8.9040   25.9400 C.ar  147  TYR147      0.0417
     43  CZ        31.6660    7.8560   25.0610 C.ar  147  TYR147      0.1957
     44  OH        31.3900    6.6020   25.5250 O.3   147  TYR147     -0.2866
     45  N         26.6770   11.3020   26.2850 N.3   149  ASN149     -0.1240
     46  CA        25.5160   10.4810   26.6260 C.3   149  ASN149      0.1653
     47  C         24.2200   11.1170   26.1490 C.2   149  ASN149      0.2266
     48  O         23.3010   10.4160   25.7130 O.2   149  ASN149     -0.2867
     49  CB        25.4260   10.2860   28.1450 C.3   149  ASN149      0.1155
     50  CG        26.4120    9.2850   28.6770 C.2   149  ASN149      0.2627
     51  OD1       27.1140    8.6110   27.9200 O.2   149  ASN149     -0.2716
     52  ND2       26.4790    9.1810   30.0010 N.am  149  ASN149     -0.0877
     53  N         26.0490    0.6540   39.2660 N.3   208  VAL208     -0.1245
     54  CA        25.6830    1.8910   38.5860 C.3   208  VAL208      0.1561
     55  C         24.3100    2.3540   39.0720 C.2   208  VAL208      0.2260
     56  O         23.4140    1.5410   39.3340 O.2   208  VAL208     -0.2867
     57  CB        25.7170    1.6990   37.0600 C.3   208  VAL208      0.0252
     58  CG1       24.6550    0.7020   36.6130 C.3   208  VAL208      0.0019
     59  CG2       25.5240    3.0290   36.3490 C.3   208  VAL208      0.0019
     60  N         24.5930    3.7510   28.8950 N.3   218  TYR218     -0.1241
     61  CA        25.5180    2.9130   29.6530 C.3   218  TYR218      0.1605
     62  C         24.8040    1.8010   30.4140 C.2   218  TYR218      0.2264
     63  O         25.3060    1.3340   31.4410 O.2   218  TYR218     -0.2867
     64  CB        26.3400    3.7650   30.6260 C.3   218  TYR218      0.0534
     65  CG        25.5200    4.7120   31.4770 C.ar  218  TYR218     -0.0201
     66  CD1       25.1530    5.9660   30.9980 C.ar  218  TYR218     -0.0009
     67  CD2       25.1220    4.3600   32.7600 C.ar  218  TYR218     -0.0009
     68  CE1       24.4110    6.8440   31.7670 C.ar  218  TYR218      0.0417
     69  CE2       24.3740    5.2360   33.5420 C.ar  218  TYR218      0.0417
     70  CZ        24.0280    6.4770   33.0360 C.ar  218  TYR218      0.1957
     71  OH        23.2910    7.3600   33.7950 O.3   218  TYR218     -0.2866
     72  N         40.9250   10.2730   28.4040 N.3   286  ASN286     -0.1240
     73  CA        39.7370   11.1270   28.3650 C.3   286  ASN286      0.1653
     74  C         40.0450   12.5880   28.0820 C.2   286  ASN286      0.2266
     75  O         39.1530   13.3020   27.6150 O.2   286  ASN286     -0.2867
     76  CB        38.9460   11.0170   29.6670 C.3   286  ASN286      0.1155
     77  CG        38.1990    9.7120   29.7740 C.2   286  ASN286      0.2627
     78  OD1       37.8110    9.1230   28.7650 O.2   286  ASN286     -0.2716
     79  ND2       38.0070    9.2410   30.9920 N.am  286  ASN286     -0.0877
     80  N         39.6780   11.9040   24.3790 N.3   289  ALA289     -0.1231
     81  CA        38.4450   11.2410   23.9610 C.3   289  ALA289      0.1694
     82  C         37.2090   12.0860   24.2500 C.2   289  ALA289      0.2591
     83  O         36.2280   12.0160   23.5060 O.2   289  ALA289     -0.2718
     84  CB        38.3280    9.8800   24.6510 C.3   289  ALA289      0.0304
     85  N         37.2450   12.9030   25.3000 N.am  290  LEU290     -0.1980
     86  CA        36.1290   13.7500   25.6960 C.3   290  LEU290      0.1596
     87  C         36.2030   15.1690   25.1440 C.2   290  LEU290      0.2287
     88  O         35.2740   15.9540   25.3750 O.2   290  LEU290     -0.2864
     89  CB        36.0410   13.8060   27.2210 C.3   290  LEU290      0.0297
     90  CG        35.7830   12.4800   27.9230 C.3   290  LEU290      0.0022
     91  CD1       35.4300   12.7330   29.3740 C.3   290  LEU290      0.0001
     92  CD2       34.6860   11.6960   27.2070 C.3   290  LEU290      0.0001
     93  N         35.7920    0.1420   21.3450 N.3   312  LYS312     -0.1231
     94  CA        35.0390    1.0090   22.2450 C.3   312  LYS312      0.1693
     95  C         35.5130    0.7770   23.6780 C.2   312  LYS312      0.2593
     96  O         35.5990   -0.3690   24.1240 O.2   312  LYS312     -0.2718
     97  CB        33.5200    0.7440   22.1280 C.3   312  LYS312      0.0285
     98  CG        32.6900    1.7410   22.8940 C.3   312  LYS312      0.0035
     99  CD        32.7620    3.1330   22.2530 C.3   312  LYS312      0.0206
    100  CE        32.0800    4.1680   23.1350 C.3   312  LYS312      0.1093
    101  NZ        32.9240    4.4420   24.3450 N.3   312  LYS312     -0.1314
    102  N         35.8020    1.8600   24.3940 N.am  313  THR313     -0.1939
    103  CA        35.9980    1.8180   25.8400 C.3   313  THR313      0.2028
    104  C         34.6720    2.0640   26.5650 C.2   313  THR313      0.2643
    105  O         33.7300    2.6420   26.0150 O.2   313  THR313     -0.2714
    106  CB        37.0200    2.8740   26.2940 C.3   313  THR313      0.1808
    107  OG1       36.5800    4.1730   25.8720 O.3   313  THR313     -0.2208
    108  CG2       38.3770    2.5980   25.6960 C.3   313  THR313      0.0379
    109  N         34.6150    1.6390   27.8260 N.am  314  GLY314     -0.1939
    110  CA        33.4370    1.8970   28.6350 C.3   314  GLY314      0.2014
    111  C         33.7350    1.7110   30.1030 C.2   314  GLY314      0.2639
    112  O         34.5240    0.8430   30.4820 O.2   314  GLY314     -0.2714
    113  N         33.0940    2.5280   30.9380 N.am  315  ALA315     -0.1963
    114  CA        33.3210    2.4500   32.3750 C.3   315  ALA315      0.1728
    115  C         32.0430    2.7870   33.1240 C.2   315  ALA315      0.2617
    116  O         31.1510    3.4540   32.6000 O.2   315  ALA315     -0.2715
    117  CB        34.4480    3.3930   32.8120 C.3   315  ALA315      0.0334
    118  N         31.9640    2.3100   34.3550 N.am  316  THR316     -0.1937
    119  CA        31.0360    2.8440   35.3410 C.3   316  THR316      0.2028
    120  C         31.8570    3.2660   36.5540 C.2   316  THR316      0.2642
    121  O         33.0840    3.3200   36.4960 O.2   316  THR316     -0.2714
    122  CB        29.9660    1.8290   35.7240 C.3   316  THR316      0.1808
    123  OG1       30.6020    0.6470   36.2130 O.3   316  THR316     -0.2208
    124  CG2       29.0620    1.4890   34.5220 C.3   316  THR316      0.0379
    125  N         31.1750    3.5530   37.6620 N.am  317  GLY317     -0.1954
    126  CA        31.8880    3.9040   38.8790 C.3   317  GLY317      0.1869
    127  C         32.8390    2.8120   39.3300 C.2   317  GLY317      0.2309
    128  O         33.9620    3.0900   39.7610 O.2   317  GLY317     -0.2863
    129  N         37.3480    0.5490   37.6590 N.3   340  ASN340     -0.1240
    130  CA        37.5350    1.5370   36.5960 C.3   340  ASN340      0.1653
    131  C         38.9870    2.0060   36.6280 C.2   340  ASN340      0.2266
    132  O         39.3370    2.9880   37.2920 O.2   340  ASN340     -0.2867
    133  CB        36.5520    2.6930   36.7640 C.3   340  ASN340      0.1155
    134  CG        36.7960    3.8310   35.7760 C.2   340  ASN340      0.2627
    135  OD1       37.5610    3.6960   34.8160 O.2   340  ASN340     -0.2716
    136  ND2       36.1340    4.9580   36.0050 N.am  340  ASN340     -0.0877
    137  N         41.7100    4.2080   30.8580 N.3   343  ASN343     -0.1240
    138  CA        41.5390    3.7560   29.4770 C.3   343  ASN343      0.1653
    139  C         42.8400    3.3280   28.8110 C.2   343  ASN343      0.2266
    140  O         42.8720    2.2280   28.2360 O.2   343  ASN343     -0.2867
    141  CB        40.8740    4.8620   28.6470 C.3   343  ASN343      0.1155
    142  CG        39.3810    4.9990   28.9230 C.2   343  ASN343      0.2627
    143  OD1       38.7020    4.0290   29.2820 O.2   343  ASN343     -0.2716
    144  ND2       38.8660    6.2180   28.7600 N.am  343  ASN343     -0.0877
@<TRIPOS>BOND
     1    10     9    2
     2    93    94    1
     3     9     8    1
     4    97    94    1
     5    97    98    1
     6    94    95    1
     7    99    98    1
     8    99   100    1
     9    33    34    1
    10    34    37    1
    11    34    35    1
    12    11     8    1
    13    11    12    1
    14     8     7    1
    15   100   101    1
    16    39    41   ar
    17    39    38   ar
    18    83    82    2
    19    37    38    1
    20    95    96    2
    21    95   102   am
    22    41    43   ar
    23    81    82    1
    24    81    80    1
    25    81    84    1
    26    35    36    2
    27    38    40   ar
    28    82    85   am
    29    12    13    1
    30    13    14    1
    31   102   103    1
    32    43    44    1
    33    43    42   ar
    34    87    88    2
    35    87    86    1
    36     4     3    2
    37    14    15    1
    38    85    86    1
    39    40    42   ar
    40    86    89    1
    41   108   106    1
    42    48    47    2
    43   103   106    1
    44   103   104    1
    45   107   106    1
    46   105   104    2
    47    47    46    1
    48     3     2    1
    49    45    46    1
    50   104   109   am
    51    46    49    1
    52     5     2    1
    53     5     6    1
    54    92    90    1
    55    89    90    1
    56     2     1    1
    57    75    74    2
    58    16    17    1
    59   109   110    1
    60    51    50    2
    61    90    91    1
    62    17    20    1
    63    17    18    1
    64    74    73    1
    65    49    50    1
    66    22    21    1
    67   140   139    2
    68    73    72    1
    69    73    76    1
    70    19    18    2
    71   110   111    1
    72   141   142    1
    73   141   138    1
    74    50    52   am
    75   144   142   am
    76    78    77    2
    77    20    21    1
    78   139   138    1
    79    60    61    1
    80    18    24   am
    81   142   143    2
    82    21    23    1
    83   138   137    1
    84    61    62    1
    85    61    64    1
    86    76    77    1
    87    77    79   am
    88    24    25    1
    89   111   112    2
    90   111   113   am
    91    62    63    2
    92    64    65    1
    93    27    26    2
    94    26    25    1
    95    25    28    1
    96   113   114    1
    97    66    65   ar
    98    66    68   ar
    99    65    67   ar
   100    68    70   ar
   101    28    29    1
   102   114   117    1
   103   114   115    1
   104    31    30    2
   105   116   115    2
   106    29    30    1
   107    67    69   ar
   108    70    69   ar
   109    70    71    1
   110    30    32   am
   111   115   118   am
   112   118   119    1
   113   124   122    1
   114   135   134    2
   115   119   122    1
   116   119   120    1
   117   122   123    1
   118   134   136   am
   119   134   133    1
   120    59    57    1
   121   121   120    2
   122   120   125   am
   123   130   131    1
   124   130   133    1
   125   130   129    1
   126    58    57    1
   127   131   132    2
   128    57    54    1
   129   125   126    1
   130    54    55    1
   131    54    53    1
   132   126   127    1
   133    55    56    2
   134   127   128    2
