@<TRIPOS>MOLECULE
tmp/6dpzA00.pdb
 139 129 0 0 0
SMALL
GASTEIGER

@<TRIPOS>ATOM
      1  N         19.9680    2.6690  -21.9620 N.3    61  SER61      -0.1217
      2  CA        20.2850    3.1620  -20.6260 C.3    61  SER61       0.1889
      3  C         19.9600    2.1890  -19.4990 C.2    61  SER61       0.2288
      4  O         20.3690    2.4420  -18.3650 O.2    61  SER61      -0.2866
      5  CB        19.5670    4.4740  -20.3650 C.3    61  SER61       0.2089
      6  OG        20.1880    5.4880  -21.1290 O.3    61  SER61      -0.2183
      7  N         22.9100    1.2310  -17.5290 N.3    64  LYS64      -0.1245
      8  CA        23.4030    1.9740  -16.3730 C.3    64  LYS64       0.1561
      9  C         23.1240    1.2700  -15.0490 C.2    64  LYS64       0.2260
     10  O         23.8180    1.5480  -14.0710 O.2    64  LYS64      -0.2867
     11  CB        22.7920    3.3820  -16.3560 C.3    64  LYS64       0.0271
     12  CG        23.2050    4.2430  -17.5350 C.3    64  LYS64       0.0035
     13  CD        22.4160    5.5400  -17.5360 C.3    64  LYS64       0.0206
     14  CE        22.9200    6.5310  -18.5600 C.3    64  LYS64       0.1093
     15  NZ        22.7000    6.0830  -19.9540 N.3    64  LYS64      -0.1314
     16  N         24.4590   15.4430  -21.6420 N.3   116  LEU116     -0.1231
     17  CA        23.7820   14.1740  -21.8980 C.3   116  LEU116      0.1693
     18  C         24.6450   13.2320  -22.7260 C.2   116  LEU116      0.2591
     19  O         24.8020   12.0530  -22.3860 O.2   116  LEU116     -0.2718
     20  CB        22.4530   14.4420  -22.6060 C.3   116  LEU116      0.0284
     21  CG        21.6730   13.2170  -23.0590 C.3   116  LEU116      0.0019
     22  CD1       21.3820   12.3160  -21.8720 C.3   116  LEU116      0.0001
     23  CD2       20.3920   13.6770  -23.7330 C.3   116  LEU116      0.0001
     24  N         25.2230   13.7330  -23.8140 N.am  117  GLN117     -0.1979
     25  CA        26.0330   12.9090  -24.6970 C.3   117  GLN117      0.1601
     26  C         27.4740   13.3860  -24.7140 C.2   117  GLN117      0.2287
     27  O         27.7470   14.5930  -24.6830 O.2   117  GLN117     -0.2864
     28  CB        25.4920   12.9080  -26.1330 C.3   117  GLN117      0.0394
     29  CG        24.0430   12.4340  -26.2730 C.3   117  GLN117      0.0908
     30  CD        23.8520   10.9510  -25.9330 C.2   117  GLN117      0.2608
     31  OE1       24.8170   10.1920  -25.8070 O.2   117  GLN117     -0.2717
     32  NE2       22.5910   10.5330  -25.8060 N.am  117  GLN117     -0.0878
     33  N         20.5490   14.3460  -16.1570 N.3   147  TYR147     -0.1241
     34  CA        20.8410   13.0040  -16.6570 C.3   147  TYR147      0.1605
     35  C         21.8700   13.0510  -17.7770 C.2   147  TYR147      0.2264
     36  O         21.7140   13.8070  -18.7350 O.2   147  TYR147     -0.2867
     37  CB        19.5420   12.3930  -17.1680 C.3   147  TYR147      0.0534
     38  CG        19.6150   10.9380  -17.5900 C.ar  147  TYR147     -0.0201
     39  CD1       19.5880    9.9140  -16.6500 C.ar  147  TYR147     -0.0009
     40  CD2       19.6510   10.6020  -18.9340 C.ar  147  TYR147     -0.0009
     41  CE1       19.6180    8.5650  -17.0540 C.ar  147  TYR147      0.0417
     42  CE2       19.6820    9.2790  -19.3360 C.ar  147  TYR147      0.0417
     43  CZ        19.6660    8.2770  -18.3950 C.ar  147  TYR147      0.1957
     44  OH        19.6780    6.9620  -18.8050 O.3   147  TYR147     -0.2866
     45  N         25.0680   10.7010  -19.9700 N.3   149  ASN149     -0.1240
     46  CA        25.9930    9.6010  -20.2650 C.3   149  ASN149      0.1653
     47  C         27.4300    9.9670  -19.9400 C.2   149  ASN149      0.2266
     48  O         28.2300    9.0930  -19.5830 O.2   149  ASN149     -0.2867
     49  CB        25.8970    9.2110  -21.7400 C.3   149  ASN149      0.1155
     50  CG        24.5820    8.5640  -22.0650 C.2   149  ASN149      0.2627
     51  OD1       23.9960    7.9360  -21.2090 O.2   149  ASN149     -0.2716
     52  ND2       24.1090    8.7230  -23.2920 N.am  149  ASN149     -0.0877
     53  N         23.1960   -0.1990  -32.5050 N.3   208  VAL208     -0.1245
     54  CA        23.8640    0.9140  -31.8360 C.3   208  VAL208      0.1561
     55  C         25.2720    1.0920  -32.4020 C.2   208  VAL208      0.2260
     56  O         25.9850    0.1210  -32.6820 O.2   208  VAL208     -0.2867
     57  CB        23.8660    0.6830  -30.3130 C.3   208  VAL208      0.0252
     58  CG1       24.6300   -0.5810  -29.9370 C.3   208  VAL208      0.0019
     59  CG2       24.3870    1.9110  -29.5780 C.3   208  VAL208      0.0019
     60  N         25.6210    2.7660  -22.1270 N.3   218  TYR218     -0.1241
     61  CA        24.4710    2.2530  -22.8650 C.3   218  TYR218      0.1605
     62  C         24.7830    0.9950  -23.6560 C.2   218  TYR218      0.2264
     63  O         24.0510    0.6680  -24.6000 O.2   218  TYR218     -0.2867
     64  CB        23.9150    3.3230  -23.8070 C.3   218  TYR218      0.0534
     65  CG        24.9230    3.9970  -24.7400 C.ar  218  TYR218     -0.0201
     66  CD1       25.2200    3.4660  -25.9920 C.ar  218  TYR218     -0.0009
     67  CD2       25.5020    5.2090  -24.3880 C.ar  218  TYR218     -0.0009
     68  CE1       26.0950    4.0980  -26.8550 C.ar  218  TYR218      0.0417
     69  CE2       26.3990    5.8460  -25.2350 C.ar  218  TYR218      0.0417
     70  CZ        26.6870    5.2830  -26.4630 C.ar  218  TYR218      0.1957
     71  OH        27.5650    5.9150  -27.3070 O.3   218  TYR218     -0.2866
     72  N         10.7320   12.1300  -21.3660 N.3   286  ASN286     -0.1240
     73  CA        12.0000   12.8000  -21.4340 C.3   286  ASN286      0.1653
     74  C         11.9250   14.2600  -21.1090 C.2   286  ASN286      0.2266
     75  O         12.8950   14.8660  -20.6800 O.2   286  ASN286     -0.2867
     76  CB        12.6530   12.5870  -22.7670 C.3   286  ASN286      0.1155
     77  CG        13.2950   11.2730  -22.8240 C.2   286  ASN286      0.2627
     78  OD1       13.5960   10.6940  -21.7970 O.2   286  ASN286     -0.2716
     79  ND2       13.4440   10.7650  -23.9920 N.am  286  ASN286     -0.0877
     80  N         14.9420   14.1260  -18.5540 N.3   290  LEU290     -0.1245
     81  CA        16.1890   14.6980  -19.0410 C.3   290  LEU290      0.1561
     82  C         16.3770   16.1590  -18.6520 C.2   290  LEU290      0.2260
     83  O         17.3810   16.7600  -19.0520 O.2   290  LEU290     -0.2867
     84  CB        16.2800   14.5740  -20.5680 C.3   290  LEU290      0.0270
     85  CG        16.0720   13.2040  -21.2060 C.3   290  LEU290      0.0019
     86  CD1       16.1310   13.3440  -22.7230 C.3   290  LEU290      0.0001
     87  CD2       17.0930   12.1940  -20.7010 C.3   290  LEU290      0.0001
     88  N         14.1360    1.5840  -14.3270 N.3   312  LYS312     -0.1231
     89  CA        14.9730    2.3130  -15.2660 C.3   312  LYS312      0.1693
     90  C         14.4150    2.1350  -16.6690 C.2   312  LYS312      0.2593
     91  O         14.1250    1.0100  -17.0820 O.2   312  LYS312     -0.2718
     92  CB        16.4170    1.8160  -15.2120 C.3   312  LYS312      0.0285
     93  CG        17.3940    2.6240  -16.0580 C.3   312  LYS312      0.0035
     94  CD        17.7420    3.9510  -15.3840 C.3   312  LYS312      0.0206
     95  CE        18.5660    4.8200  -16.3200 C.3   312  LYS312      0.1093
     96  NZ        17.7520    5.4170  -17.4250 N.3   312  LYS312     -0.1314
     97  N         14.3010    3.2290  -17.3980 N.am  313  THR313     -0.1939
     98  CA        14.0220    3.1990  -18.8270 C.3   313  THR313      0.2028
     99  C         15.3340    3.1570  -19.6140 C.2   313  THR313      0.2643
    100  O         16.3870    3.5950  -19.1470 O.2   313  THR313     -0.2714
    101  CB        13.2260    4.4310  -19.2410 C.3   313  THR313      0.1808
    102  OG1       14.0320    5.5930  -18.9780 O.3   313  THR313     -0.2208
    103  CG2       11.9090    4.5220  -18.4710 C.3   313  THR313      0.0379
    104  N         15.2740    2.6420  -20.8310 N.am  314  GLY314     -0.1939
    105  CA        16.4650    2.6320  -21.6620 C.3   314  GLY314      0.2014
    106  C         16.1060    2.6040  -23.1230 C.2   314  GLY314      0.2639
    107  O         15.1190    1.9850  -23.5220 O.2   314  GLY314     -0.2714
    108  N         16.9140    3.2760  -23.9340 N.am  315  ALA315     -0.1963
    109  CA        16.6560    3.2640  -25.3580 C.3   315  ALA315      0.1728
    110  C         17.9540    3.4300  -26.1170 C.2   315  ALA315      0.2617
    111  O         18.9200    4.0020  -25.6130 O.2   315  ALA315     -0.2715
    112  CB        15.6510    4.3630  -25.7550 C.3   315  ALA315      0.0334
    113  N         17.9790    2.8730  -27.3130 N.am  316  THR316     -0.1937
    114  CA        18.9370    3.2340  -28.3410 C.3   316  THR316      0.2028
    115  C         18.1360    3.7340  -29.5370 C.2   316  THR316      0.2642
    116  O         16.9110    3.8740  -29.4770 O.2   316  THR316     -0.2714
    117  CB        19.8380    2.0530  -28.7080 C.3   316  THR316      0.1808
    118  OG1       19.0310    1.0180  -29.2780 O.3   316  THR316     -0.2208
    119  CG2       20.5720    1.5060  -27.4910 C.3   316  THR316      0.0379
    120  N         18.8240    4.0190  -30.6340 N.am  317  GLY317     -0.1954
    121  CA        18.1170    4.4860  -31.8140 C.3   317  GLY317      0.1869
    122  C         17.0320    3.5250  -32.2550 C.2   317  GLY317      0.2309
    123  O         15.9610    3.9490  -32.6980 O.2   317  GLY317     -0.2863
    124  N         12.2670    2.1790  -30.4430 N.3   340  ASN340     -0.1240
    125  CA        12.2960    3.1780  -29.3770 C.3   340  ASN340      0.1653
    126  C         10.9510    3.8990  -29.3740 C.2   340  ASN340      0.2266
    127  O         10.7480    4.8760  -30.0930 O.2   340  ASN340     -0.2867
    128  CB        13.4500    4.1460  -29.5910 C.3   340  ASN340      0.1155
    129  CG        13.4930    5.2510  -28.5610 C.2   340  ASN340      0.2627
    130  OD1       12.7720    5.2260  -27.5610 O.2   340  ASN340     -0.2716
    131  ND2       14.3530    6.2280  -28.7980 N.am  340  ASN340     -0.0877
    132  N          8.6330    6.5790  -23.6010 N.3   343  ASN343     -0.1240
    133  CA         8.7380    6.1250  -22.2130 C.3   343  ASN343      0.1653
    134  C          7.4070    6.0440  -21.4790 C.2   343  ASN343      0.2266
    135  O          7.1770    5.0430  -20.7810 O.2   343  ASN343     -0.2867
    136  CB         9.6850    7.0370  -21.4170 C.3   343  ASN343      0.1155
    137  CG        11.1440    6.8080  -21.7410 C.2   343  ASN343      0.2627
    138  OD1       11.5420    5.7440  -22.2130 O.2   343  ASN343     -0.2716
    139  ND2       11.9590    7.8130  -21.4600 N.am  343  ASN343     -0.0877
@<TRIPOS>BOND
     1   123   122    2
     2    56    55    2
     3    53    54    1
     4    55    54    1
     5   122   121    1
     6    54    57    1
     7   121   120    1
     8   120   115   am
     9   124   125    1
    10    57    58    1
    11    57    59    1
    12   127   126    2
    13   128   125    1
    14   128   129    1
    15   115   116    2
    16   115   114    1
    17   125   126    1
    18   118   117    1
    19   131   129   am
    20   117   114    1
    21   117   119    1
    22   129   130    2
    23   114   113    1
    24   113   110   am
    25    71    70    1
    26    68    70   ar
    27    68    66   ar
    28    70    69   ar
    29    29    28    1
    30    29    30    1
    31    28    25    1
    32   110   111    2
    33   110   109    1
    34    66    65   ar
    35    30    31    2
    36    30    32   am
    37   112   109    1
    38   109   108    1
    39    69    67   ar
    40    65    67   ar
    41    65    64    1
    42    26    25    1
    43    26    27    2
    44    25    24    1
    45    63    62    2
    46    79    77   am
    47   108   106   am
    48    24    18   am
    49    64    61    1
    50    23    21    1
    51    62    61    1
    52   132   133    1
    53   107   106    2
    54    52    50   am
    55   106   105    1
    56    21    20    1
    57    21    22    1
    58    61    60    1
    59    77    76    1
    60    77    78    2
    61    76    73    1
    62    18    19    2
    63    18    17    1
    64    86    85    1
    65    20    17    1
    66   133   134    1
    67   133   136    1
    68   138   137    2
    69    50    49    1
    70    50    51    2
    71     1     2    1
    72    17    16    1
    73   137   139   am
    74   137   136    1
    75    49    46    1
    76   105   104    1
    77   134   135    2
    78    73    72    1
    79    73    74    1
    80    85    87    1
    81    85    84    1
    82     6     5    1
    83    74    75    2
    84   104    99   am
    85     2     5    1
    86     2     3    1
    87    84    81    1
    88    46    45    1
    89    46    47    1
    90    15    14    1
    91    47    48    2
    92    99   100    2
    93    99    98    1
    94     3     4    2
    95    42    40   ar
    96    42    43   ar
    97   101   102    1
    98   101    98    1
    99   101   103    1
   100    83    82    2
   101    81    82    1
   102    81    80    1
   103    40    38   ar
   104    98    97    1
   105    44    43    1
   106    36    35    2
   107    14    13    1
   108    43    41   ar
   109    35    34    1
   110    38    37    1
   111    38    39   ar
   112    13    12    1
   113    12    11    1
   114     7     8    1
   115    96    95    1
   116    97    90   am
   117    37    34    1
   118    91    90    2
   119    41    39   ar
   120    90    89    1
   121    34    33    1
   122     8    11    1
   123     8     9    1
   124    95    94    1
   125    93    94    1
   126    93    92    1
   127    89    92    1
   128    89    88    1
   129     9    10    2
