@<TRIPOS>MOLECULE
tmp/6dq5A00.pdb
 199 190 0 0 0
SMALL
GASTEIGER

@<TRIPOS>ATOM
      1  N        -26.7390   30.4840   11.5240 N.3    62  ARG62      -0.1245
      2  CA       -28.0580   30.6380   10.9320 C.3    62  ARG62       0.1563
      3  C        -29.1070   29.9790   11.8180 C.2    62  ARG62       0.2260
      4  O        -28.8270   29.0180   12.5400 O.2    62  ARG62      -0.2867
      5  CB       -28.1020   30.0410    9.5230 C.3    62  ARG62       0.0307
      6  CG       -28.1070   28.5230    9.4710 C.3    62  ARG62       0.0489
      7  CD       -28.1510   28.0300    8.0330 C.3    62  ARG62       0.2205
      8  NE       -26.9380   28.3840    7.3020 N.pl3  62  ARG62      -0.0865
      9  CZ       -26.7540   28.1620    6.0050 C.cat  62  ARG62       0.5346
     10  NH1      -27.7100   27.5890    5.2860 N.pl3  62  ARG62       0.1354
     11  NH2      -25.6150   28.5160    5.4250 N.pl3  62  ARG62       0.1354
     12  N        -32.4930   27.8890   12.6280 N.3    64  GLN64      -0.1245
     13  CA       -33.2570   26.7670   12.0950 C.3    64  GLN64       0.1566
     14  C        -34.4600   26.5120   12.9900 C.2    64  GLN64       0.2260
     15  O        -34.2990   26.2050   14.1750 O.2    64  GLN64      -0.2867
     16  CB       -32.3970   25.5040   11.9960 C.3    64  GLN64       0.0367
     17  CG       -31.3110   25.5580   10.9370 C.3    64  GLN64       0.0905
     18  CD       -30.5490   24.2520   10.8290 C.2    64  GLN64       0.2608
     19  OE1      -30.5270   23.4540   11.7660 O.2    64  GLN64      -0.2717
     20  NE2      -29.9260   24.0220    9.6780 N.am   64  GLN64      -0.0878
     21  N        -27.0910   27.0050   13.7660 N.3   125  TYR125     -0.1241
     22  CA       -26.1090   26.1730   13.0800 C.3   125  TYR125      0.1605
     23  C        -25.0390   27.0710   12.4790 C.2   125  TYR125      0.2264
     24  O        -25.3550   27.9750   11.6990 O.2   125  TYR125     -0.2867
     25  CB       -26.7760   25.3280   11.9880 C.3   125  TYR125      0.0534
     26  CG       -26.0110   24.0810   11.5950 C.ar  125  TYR125     -0.0201
     27  CD1      -26.4930   23.2310   10.6070 C.ar  125  TYR125     -0.0009
     28  CD2      -24.8170   23.7470   12.2190 C.ar  125  TYR125     -0.0009
     29  CE1      -25.8010   22.0880   10.2460 C.ar  125  TYR125      0.0417
     30  CE2      -24.1190   22.6080   11.8640 C.ar  125  TYR125      0.0417
     31  CZ       -24.6150   21.7820   10.8790 C.ar  125  TYR125      0.1957
     32  OH       -23.9190   20.6480   10.5300 O.3   125  TYR125     -0.2866
     33  N        -23.0380   27.1400    9.8420 N.3   127  ALA127     -0.1231
     34  CA       -22.9830   26.3900    8.5960 C.3   127  ALA127      0.1694
     35  C        -22.2180   27.1550    7.5250 C.2   127  ALA127      0.2592
     36  O        -22.2870   28.3870    7.4550 O.2   127  ALA127     -0.2718
     37  CB       -24.3940   26.0740    8.0930 C.3   127  ALA127      0.0304
     38  N        -21.4920   26.4060    6.6930 N.am  128  ASP128     -0.1974
     39  CA       -20.8060   26.9390    5.5150 C.3   128  ASP128      0.1709
     40  C        -19.8120   28.0380    5.8870 C.2   128  ASP128      0.2293
     41  O        -19.7970   29.1230    5.3020 O.2   128  ASP128     -0.2864
     42  CB       -21.8110   27.4320    4.4720 C.3   128  ASP128      0.1436
     43  CG       -22.5960   26.2990    3.8420 C.2   128  ASP128      0.3671
     44  OD1      -22.0510   25.1780    3.7460 O.co2 128  ASP128     -0.2456
     45  OD2      -23.7560   26.5270    3.4410 O.co2 128  ASP128     -0.2456
     46  N        -18.4430   23.2940    9.6950 N.3   183  TYR183     -0.1241
     47  CA       -19.8050   23.2260   10.2210 C.3   183  TYR183      0.1605
     48  C        -19.7340   23.0690   11.7330 C.2   183  TYR183      0.2264
     49  O        -19.3100   22.0210   12.2300 O.2   183  TYR183     -0.2867
     50  CB       -20.5830   22.0710    9.5880 C.3   183  TYR183      0.0534
     51  CG       -20.7750   22.2140    8.0960 C.ar  183  TYR183     -0.0201
     52  CD1      -21.8930   22.8550    7.5810 C.ar  183  TYR183     -0.0009
     53  CD2      -19.8350   21.7150    7.2030 C.ar  183  TYR183     -0.0009
     54  CE1      -22.0720   22.9930    6.2180 C.ar  183  TYR183      0.0417
     55  CE2      -20.0060   21.8490    5.8380 C.ar  183  TYR183      0.0417
     56  CZ       -21.1260   22.4880    5.3520 C.ar  183  TYR183      0.1957
     57  OH       -21.3020   22.6240    3.9940 O.3   183  TYR183     -0.2866
     58  N        -29.5010   20.6760   11.7460 N.3   190  SER190     -0.1202
     59  CA       -29.6740   19.6250   10.7560 C.3   190  SER190      0.2020
     60  C        -29.4050   20.1440    9.3510 C.2   190  SER190      0.2619
     61  O        -29.3080   21.3500    9.1080 O.2   190  SER190     -0.2717
     62  CB       -31.0850   19.0350   10.8280 C.3   190  SER190      0.2103
     63  OG       -32.0600   20.0210   10.5380 O.3   190  SER190     -0.2182
     64  N        -29.2860   19.1930    8.4260 N.am  191  PHE191     -0.1961
     65  CA       -29.2480   19.4410    6.9930 C.3   191  PHE191      0.1771
     66  C        -30.2060   18.4670    6.3220 C.2   191  PHE191      0.2619
     67  O        -30.2510   17.2860    6.6800 O.2   191  PHE191     -0.2715
     68  CB       -27.8260   19.2920    6.4220 C.3   191  PHE191      0.0574
     69  CG       -27.1700   17.9700    6.7300 C.ar  191  PHE191     -0.0200
     70  CD1      -26.6180   17.7250    7.9790 C.ar  191  PHE191     -0.0042
     71  CD2      -27.0740   16.9860    5.7600 C.ar  191  PHE191     -0.0042
     72  CE1      -26.0060   16.5180    8.2610 C.ar  191  PHE191     -0.0003
     73  CE2      -26.4580   15.7770    6.0350 C.ar  191  PHE191     -0.0003
     74  CZ       -25.9260   15.5420    7.2880 C.ar  191  PHE191     -0.0000
     75  N        -30.9820   18.9650    5.3630 N.am  192  CYS192     -0.1968
     76  CA       -32.0600   18.1830    4.7810 C.3   192  CYS192      0.1712
     77  C        -31.5640   17.3580    3.5920 C.2   192  CYS192      0.2296
     78  O        -30.3870   17.3880    3.2230 O.2   192  CYS192     -0.2864
     79  CB       -33.2170   19.0960    4.3780 C.3   192  CYS192      0.0983
     80  SG       -32.7160   20.6010    3.5250 S.3   192  CYS192     -0.0798
     81  N        -30.4710   16.0750    0.1950 N.3   194  HIS194     -0.1226
     82  CA       -29.8850   16.7300   -0.9650 C.3   194  HIS194      0.1752
     83  C        -28.7940   15.8370   -1.5350 C.2   194  HIS194      0.2596
     84  O        -28.3430   14.8830   -0.8970 O.2   194  HIS194     -0.2718
     85  CB       -29.3180   18.1060   -0.6010 C.3   194  HIS194      0.0759
     86  CG       -28.0540   18.0430    0.1990 C.ar  194  HIS194      0.0818
     87  ND1      -28.0330   17.6990    1.5340 N.ar  194  HIS194     -0.2268
     88  CD2      -26.7660   18.2770   -0.1480 C.ar  194  HIS194      0.1154
     89  CE1      -26.7880   17.7260    1.9740 C.ar  194  HIS194      0.1986
     90  NE2      -25.9990   18.0740    0.9730 N.ar  194  HIS194     -0.2212
     91  N        -28.3790   16.1630   -2.7570 N.am  195  ILE195     -0.1966
     92  CA       -27.2030   15.5700   -3.3760 C.3   195  ILE195      0.1727
     93  C        -26.2100   16.6870   -3.6630 C.2   195  ILE195      0.2616
     94  O        -26.5720   17.8600   -3.7780 O.2   195  ILE195     -0.2715
     95  CB       -27.5360   14.7890   -4.6650 C.3   195  ILE195      0.0290
     96  CG1      -28.4270   15.6240   -5.5870 C.3   195  ILE195      0.0022
     97  CG2      -28.1840   13.4550   -4.3300 C.3   195  ILE195      0.0023
     98  CD1      -28.7590   14.9440   -6.8980 C.3   195  ILE195      0.0001
     99  N        -24.9410   16.3070   -3.7720 N.am  196  GLU196     -0.1963
    100  CA       -23.8970   17.2820   -4.0320 C.3   196  GLU196      0.1733
    101  C        -23.9640   17.7690   -5.4770 C.2   196  GLU196      0.2616
    102  O        -24.5130   17.1060   -6.3620 O.2   196  GLU196     -0.2715
    103  CB       -22.5220   16.6850   -3.7380 C.3   196  GLU196      0.0429
    104  CG       -22.3400   16.2740   -2.2890 C.3   196  GLU196      0.1163
    105  CD       -22.4910   17.4420   -1.3360 C.2   196  GLU196      0.3649
    106  OE1      -21.6600   18.3730   -1.3990 O.co2 196  GLU196     -0.2457
    107  OE2      -23.4470   17.4380   -0.5320 O.co2 196  GLU196     -0.2457
    108  N        -23.4010   18.9530   -5.7030 N.am  197  ASP197     -0.1971
    109  CA       -23.3680   19.5190   -7.0440 C.3   197  ASP197      0.1709
    110  C        -22.5840   18.6130   -7.9840 C.2   197  ASP197      0.2293
    111  O        -21.5280   18.0840   -7.6260 O.2   197  ASP197     -0.2864
    112  CB       -22.7480   20.9170   -7.0160 C.3   197  ASP197      0.1436
    113  CG       -23.6470   21.9410   -6.3490 C.2   197  ASP197      0.3671
    114  OD1      -24.8290   21.6260   -6.1000 O.co2 197  ASP197     -0.2456
    115  OD2      -23.1700   23.0620   -6.0720 O.co2 197  ASP197     -0.2456
    116  N        -16.5230   13.7950    4.8520 N.3   204  ASN204     -0.1240
    117  CA       -16.8010   14.6310    6.0120 C.3   204  ASN204      0.1653
    118  C        -16.0350   14.0950    7.2120 C.2   204  ASN204      0.2266
    119  O        -16.0490   12.8870    7.4690 O.2   204  ASN204     -0.2867
    120  CB       -18.3030   14.6630    6.3100 C.3   204  ASN204      0.1155
    121  CG       -19.1430   14.7950    5.0530 C.2   204  ASN204      0.2627
    122  OD1      -19.1850   13.8860    4.2240 O.2   204  ASN204     -0.2716
    123  ND2      -19.8280   15.9220    4.9140 N.am  204  ASN204     -0.0877
    124  N        -22.5570   13.1750   15.0060 N.3   212  LYS212     -0.1245
    125  CA       -23.4190   13.6680   13.9400 C.3   212  LYS212      0.1561
    126  C        -24.1350   12.4740   13.3210 C.2   212  LYS212      0.2260
    127  O        -23.4850   11.5400   12.8390 O.2   212  LYS212     -0.2867
    128  CB       -22.6080   14.4190   12.8830 C.3   212  LYS212      0.0271
    129  CG       -23.4340   14.9690   11.7320 C.3   212  LYS212      0.0035
    130  CD       -22.5570   15.5040   10.6010 C.3   212  LYS212      0.0206
    131  CE       -21.6860   16.6660   11.0560 C.3   212  LYS212      0.1093
    132  NZ       -22.4830   17.8910   11.3450 N.3   212  LYS212     -0.1314
    133  N        -26.3790   10.5630   10.5460 N.3   214  TRP214     -0.1241
    134  CA       -26.5300   10.6190    9.1000 C.3   214  TRP214      0.1605
    135  C        -27.6460    9.6920    8.6390 C.2   214  TRP214      0.2264
    136  O        -27.9570    8.6920    9.2910 O.2   214  TRP214     -0.2867
    137  CB       -25.2310   10.2240    8.3880 C.3   214  TRP214      0.0550
    138  CG       -24.1090   11.1870    8.5790 C.ar  214  TRP214      0.0003
    139  CD1      -23.3730   11.3770    9.7120 C.ar  214  TRP214      0.0946
    140  CD2      -23.5770   12.0850    7.5990 C.ar  214  TRP214      0.0152
    141  NE1      -22.4220   12.3460    9.5000 N.ar  214  TRP214     -0.2442
    142  CE2      -22.5260   12.7960    8.2110 C.ar  214  TRP214      0.0810
    143  CE3      -23.8910   12.3600    6.2640 C.ar  214  TRP214      0.0012
    144  CZ2      -21.7870   13.7630    7.5340 C.ar  214  TRP214      0.0191
    145  CZ3      -23.1570   13.3200    5.5950 C.ar  214  TRP214      0.0001
    146  CH2      -22.1190   14.0100    6.2300 C.ar  214  TRP214      0.0015
    147  N        -32.0010   22.6520   -7.1760 N.3   243  LEU243     -0.1245
    148  CA       -31.0510   23.4780   -6.4350 C.3   243  LEU243      0.1561
    149  C        -31.7390   24.3280   -5.3740 C.2   243  LEU243      0.2260
    150  O        -31.1140   24.6930   -4.3720 O.2   243  LEU243     -0.2867
    151  CB       -30.2680   24.3680   -7.3990 C.3   243  LEU243      0.0270
    152  CG       -29.2520   23.6660   -8.3000 C.3   243  LEU243      0.0019
    153  CD1      -28.6900   24.6760   -9.2720 C.3   243  LEU243      0.0001
    154  CD2      -28.1220   23.0570   -7.5110 C.3   243  LEU243      0.0001
    155  N        -34.0440   21.5540   -2.7270 N.3   246  GLN246     -0.1231
    156  CA       -33.1740   20.8850   -1.7640 C.3   246  GLN246      0.1698
    157  C        -32.9910   21.6860   -0.4820 C.2   246  GLN246      0.2592
    158  O        -32.5670   21.1190    0.5300 O.2   246  GLN246     -0.2718
    159  CB       -31.8030   20.6110   -2.3830 C.3   246  GLN246      0.0381
    160  CG       -31.7520   19.3950   -3.2870 C.3   246  GLN246      0.0905
    161  CD       -30.3480   19.1010   -3.7730 C.2   246  GLN246      0.2608
    162  OE1      -30.0230   17.9640   -4.1110 O.2   246  GLN246     -0.2717
    163  NE2      -29.5060   20.1280   -3.8100 N.am  246  GLN246     -0.0878
    164  N        -33.2860   22.9860   -0.5020 N.am  247  LEU247     -0.1980
    165  CA       -33.1770   23.7910    0.7080 C.3   247  LEU247      0.1596
    166  C        -34.3150   23.5260    1.6840 C.2   247  LEU247      0.2287
    167  O        -34.1960   23.8730    2.8630 O.2   247  LEU247     -0.2864
    168  CB       -33.1350   25.2770    0.3450 C.3   247  LEU247      0.0297
    169  CG       -31.9840   25.7150   -0.5630 C.3   247  LEU247      0.0022
    170  CD1      -32.1770   27.1510   -1.0260 C.3   247  LEU247      0.0001
    171  CD2      -30.6490   25.5550    0.1480 C.3   247  LEU247      0.0001
    172  N        -28.6130   12.3920    1.0030 N.3   282  HIS282     -0.1241
    173  CA       -28.2710   12.2490    2.4080 C.3   282  HIS282      0.1621
    174  C        -28.8130   13.4210    3.2110 C.2   282  HIS282      0.2264
    175  O        -29.0100   14.5240    2.6950 O.2   282  HIS282     -0.2867
    176  CB       -26.7530   12.1230    2.6150 C.3   282  HIS282      0.0745
    177  CG       -25.9660   13.2720    2.0680 C.ar  282  HIS282      0.0817
    178  ND1      -25.7120   13.4270    0.7230 N.ar  282  HIS282     -0.2268
    179  CD2      -25.3630   14.3150    2.6870 C.ar  282  HIS282      0.1154
    180  CE1      -24.9940   14.5200    0.5350 C.ar  282  HIS282      0.1986
    181  NE2      -24.7680   15.0770    1.7110 N.ar  282  HIS282     -0.2212
    182  N        -17.3460   19.9890   12.3790 N.3   292  ALA292     -0.1245
    183  CA       -17.1490   19.1130   11.2360 C.3   292  ALA292      0.1562
    184  C        -16.5370   19.8800   10.0720 C.2   292  ALA292      0.2260
    185  O        -16.6700   21.1020    9.9600 O.2   292  ALA292     -0.2867
    186  CB       -18.4700   18.4660   10.7980 C.3   292  ALA292      0.0290
    187  N        -15.9160   19.3440    5.6940 N.3   294  ALA294     -0.1245
    188  CA       -16.3520   18.5730    4.5400 C.3   294  ALA294      0.1562
    189  C        -15.8290   19.2050    3.2600 C.2   294  ALA294      0.2260
    190  O        -15.6480   20.4230    3.1780 O.2   294  ALA294     -0.2867
    191  CB       -17.8810   18.4730    4.4760 C.3   294  ALA294      0.0290
    192  N        -15.8500   18.3710   -1.3130 N.3   296  ASN296     -0.1240
    193  CA       -16.2060   17.5470   -2.4590 C.3   296  ASN296      0.1653
    194  C        -14.9440   17.1440   -3.2090 C.2   296  ASN296      0.2266
    195  O        -14.0590   17.9710   -3.4460 O.2   296  ASN296     -0.2867
    196  CB       -17.1550   18.2950   -3.3960 C.3   296  ASN296      0.1155
    197  CG       -18.4680   18.6560   -2.7310 C.2   296  ASN296      0.2627
    198  OD1      -18.8450   19.8260   -2.6710 O.2   296  ASN296     -0.2716
    199  ND2      -19.1740   17.6500   -2.2290 N.am  296  ASN296     -0.0877
@<TRIPOS>BOND
     1   153   152    1
     2   152   154    1
     3   152   151    1
     4   110   111    2
     5   110   109    1
     6   151   148    1
     7   147   148    1
     8   109   112    1
     9   109   108    1
    10   112   113    1
    11    98    96    1
    12   148   149    1
    13   102   101    2
    14   113   114   ar
    15   113   115   ar
    16   108   101   am
    17    96    95    1
    18   101   100    1
    19   149   150    2
    20    95    97    1
    21    95    92    1
    22   162   161    2
    23   100    99    1
    24   100   103    1
    25   163   161   am
    26    94    93    2
    27   161   160    1
    28    99    93   am
    29   103   104    1
    30    93    92    1
    31   195   194    2
    32   196   197    1
    33   196   193    1
    34    92    91    1
    35   160   159    1
    36   194   193    1
    37    91    83   am
    38   197   198    2
    39   197   199   am
    40   155   156    1
    41   193   192    1
    42   159   156    1
    43   104   105    1
    44   156   157    1
    45    83    82    1
    46    83    84    2
    47   106   105   ar
    48   105   107   ar
    49   170   169    1
    50    82    85    1
    51    82    81    1
    52    85    86    1
    53   169   171    1
    54   169   168    1
    55   164   157   am
    56   164   165    1
    57   157   158    2
    58    88    86   ar
    59    88    90   ar
    60    86    87   ar
    61   168   165    1
    62   180   178   ar
    63   180   181   ar
    64   165   166    1
    65   178   177   ar
    66    90    89   ar
    67   172   173    1
    68    87    89   ar
    69   166   167    2
    70   181   179   ar
    71   177   176    1
    72   177   179   ar
    73   173   176    1
    74   173   174    1
    75   175   174    2
    76   190   189    2
    77    78    77    2
    78   189   188    1
    79    45    43   ar
    80    80    79    1
    81    77    76    1
    82    44    43   ar
    83    43    42    1
    84    57    56    1
    85   122   121    2
    86    79    76    1
    87    42    39    1
    88   191   188    1
    89   188   187    1
    90    76    75    1
    91   116   117    1
    92   123   121   am
    93   121   120    1
    94    10     9    1
    95    41    40    2
    96    56    55   ar
    97    56    54   ar
    98    75    66   am
    99    11     9    1
   100    39    40    1
   101    39    38    1
   102   145   146   ar
   103   145   143   ar
   104    71    73   ar
   105    71    69   ar
   106    55    53   ar
   107     9     8    2
   108   117   120    1
   109   117   118    1
   110    73    74   ar
   111    54    52   ar
   112   146   144   ar
   113   143   140   ar
   114    66    67    2
   115    66    65    1
   116    68    69    1
   117    68    65    1
   118    38    35   am
   119    69    70   ar
   120    65    64    1
   121    53    51   ar
   122   118   119    2
   123    74    72   ar
   124     8     7    1
   125    36    35    2
   126    35    34    1
   127   144   142   ar
   128    52    51   ar
   129   140   142   ar
   130   140   138   ar
   131    70    72   ar
   132     7     6    1
   133    37    34    1
   134    51    50    1
   135   142   141   ar
   136   137   138    1
   137   137   134    1
   138    64    60   am
   139   138   139   ar
   140    34    33    1
   141   135   134    1
   142   135   136    2
   143   134   133    1
   144    61    60    2
   145    60    59    1
   146     6     5    1
   147   141   139   ar
   148     5     2    1
   149    50    47    1
   150    20    18   am
   151    46    47    1
   152   185   184    2
   153   184   183    1
   154    47    48    1
   155    29    27   ar
   156    29    31   ar
   157    32    31    1
   158    63    62    1
   159   130   131    1
   160   130   129    1
   161    27    26   ar
   162    59    62    1
   163    59    58    1
   164   186   183    1
   165    18    17    1
   166    18    19    2
   167    31    30   ar
   168     2     1    1
   169     2     3    1
   170    17    16    1
   171   131   132    1
   172   183   182    1
   173    26    25    1
   174    26    28   ar
   175    24    23    2
   176   129   128    1
   177    48    49    2
   178     3     4    2
   179    30    28   ar
   180    25    22    1
   181    16    13    1
   182    13    12    1
   183    13    14    1
   184    23    22    1
   185   127   126    2
   186   128   125    1
   187    14    15    2
   188    22    21    1
   189   126   125    1
   190   125   124    1
