@<TRIPOS>MOLECULE
tmp/6dq6A00.pdb
 199 190 0 0 0
SMALL
GASTEIGER

@<TRIPOS>ATOM
      1  N        -26.7320   30.5460   11.4970 N.3    62  ARG62      -0.1245
      2  CA       -28.0610   30.6700   10.9210 C.3    62  ARG62       0.1563
      3  C        -29.0870   30.0210   11.8420 C.2    62  ARG62       0.2260
      4  O        -28.7910   29.0640   12.5610 O.2    62  ARG62      -0.2867
      5  CB       -28.1230   30.0360    9.5300 C.3    62  ARG62       0.0307
      6  CG       -28.1030   28.5200    9.5210 C.3    62  ARG62       0.0489
      7  CD       -28.0960   27.9940    8.0990 C.3    62  ARG62       0.2205
      8  NE       -26.9100   28.4300    7.3680 N.pl3  62  ARG62      -0.0865
      9  CZ       -26.7810   28.3670    6.0470 C.cat  62  ARG62       0.5346
     10  NH1      -27.7720   27.8930    5.3050 N.pl3  62  ARG62       0.1354
     11  NH2      -25.6650   28.7840    5.4670 N.pl3  62  ARG62       0.1354
     12  N        -32.5600   28.0190   12.6810 N.3    64  GLN64      -0.1245
     13  CA       -33.3320   26.9190   12.1130 C.3    64  GLN64       0.1566
     14  C        -34.5550   26.6560   12.9780 C.2    64  GLN64       0.2260
     15  O        -34.4220   26.3090   14.1560 O.2    64  GLN64      -0.2867
     16  CB       -32.4810   25.6510   11.9980 C.3    64  GLN64       0.0367
     17  CG       -31.3750   25.7300   10.9590 C.3    64  GLN64       0.0905
     18  CD       -30.6350   24.4150   10.7990 C.2    64  GLN64       0.2608
     19  OE1      -30.4300   23.6820   11.7670 O.2    64  GLN64      -0.2717
     20  NE2      -30.2360   24.1060    9.5690 N.am   64  GLN64      -0.0878
     21  N        -27.1510   27.0770   13.7240 N.3   125  TYR125     -0.1241
     22  CA       -26.1450   26.2520   13.0650 C.3   125  TYR125      0.1605
     23  C        -25.0630   27.1550   12.4950 C.2   125  TYR125      0.2264
     24  O        -25.3610   28.0610   11.7100 O.2   125  TYR125     -0.2867
     25  CB       -26.7750   25.4060   11.9530 C.3   125  TYR125      0.0534
     26  CG       -25.9960   24.1610   11.5870 C.ar  125  TYR125     -0.0201
     27  CD1      -26.4610   23.2930   10.6080 C.ar  125  TYR125     -0.0009
     28  CD2      -24.8070   23.8460   12.2280 C.ar  125  TYR125     -0.0009
     29  CE1      -25.7570   22.1520   10.2720 C.ar  125  TYR125      0.0417
     30  CE2      -24.0960   22.7080   11.8990 C.ar  125  TYR125      0.0417
     31  CZ       -24.5760   21.8640   10.9220 C.ar  125  TYR125      0.1957
     32  OH       -23.8730   20.7280   10.5920 O.3   125  TYR125     -0.2866
     33  N        -22.8870   27.2200    9.9100 N.3   127  ALA127     -0.1231
     34  CA       -22.7400   26.4780    8.6690 C.3   127  ALA127      0.1694
     35  C        -22.0840   27.3250    7.5870 C.2   127  ALA127      0.2592
     36  O        -22.1350   28.5580    7.6080 O.2   127  ALA127     -0.2718
     37  CB       -24.1000   25.9790    8.1760 C.3   127  ALA127      0.0304
     38  N        -21.4790   26.6250    6.6240 N.am  128  ASP128     -0.1974
     39  CA       -20.8280   27.2320    5.4610 C.3   128  ASP128      0.1709
     40  C        -19.7770   28.2620    5.8750 C.2   128  ASP128      0.2293
     41  O        -19.7070   29.3680    5.3340 O.2   128  ASP128     -0.2864
     42  CB       -21.8520   27.8460    4.5030 C.3   128  ASP128      0.1436
     43  CG       -22.7430   26.8020    3.8590 C.2   128  ASP128      0.3671
     44  OD1      -23.9230   27.1070    3.5890 O.co2 128  ASP128     -0.2456
     45  OD2      -22.2670   25.6690    3.6400 O.co2 128  ASP128     -0.2456
     46  N        -18.4540   23.3810    9.7200 N.3   182  TYR182     -0.1241
     47  CA       -19.8140   23.3190   10.2460 C.3   182  TYR182      0.1605
     48  C        -19.7600   23.1490   11.7560 C.2   182  TYR182      0.2264
     49  O        -19.2660   22.1310   12.2500 O.2   182  TYR182     -0.2867
     50  CB       -20.6020   22.1750    9.5990 C.3   182  TYR182      0.0534
     51  CG       -20.7460   22.3230    8.1010 C.ar  182  TYR182     -0.0201
     52  CD1      -21.8190   23.0140    7.5540 C.ar  182  TYR182     -0.0009
     53  CD2      -19.8030   21.7820    7.2370 C.ar  182  TYR182     -0.0009
     54  CE1      -21.9510   23.1570    6.1880 C.ar  182  TYR182      0.0417
     55  CE2      -19.9270   21.9210    5.8700 C.ar  182  TYR182      0.0417
     56  CZ       -21.0040   22.6090    5.3520 C.ar  182  TYR182      0.1957
     57  OH       -21.1330   22.7510    3.9900 O.3   182  TYR182     -0.2866
     58  N        -29.5400   20.7810   11.7240 N.3   189  SER189     -0.1202
     59  CA       -29.7490   19.7320   10.7370 C.3   189  SER189      0.2020
     60  C        -29.4490   20.2330    9.3310 C.2   189  SER189      0.2619
     61  O        -29.3270   21.4340    9.0810 O.2   189  SER189     -0.2717
     62  CB       -31.1860   19.2030   10.8030 C.3   189  SER189      0.2103
     63  OG       -32.1140   20.2270   10.4870 O.3   189  SER189     -0.2182
     64  N        -29.3340   19.2730    8.4120 N.am  190  PHE190     -0.1961
     65  CA       -29.2820   19.5260    6.9790 C.3   190  PHE190      0.1771
     66  C        -30.2910   18.6130    6.2940 C.2   190  PHE190      0.2619
     67  O        -30.4290   17.4420    6.6580 O.2   190  PHE190     -0.2715
     68  CB       -27.8630   19.3170    6.4030 C.3   190  PHE190      0.0574
     69  CG       -27.2240   18.0010    6.7710 C.ar  190  PHE190     -0.0200
     70  CD1      -26.6830   17.8020    8.0320 C.ar  190  PHE190     -0.0042
     71  CD2      -27.1250   16.9780    5.8400 C.ar  190  PHE190     -0.0042
     72  CE1      -26.0840   16.6020    8.3670 C.ar  190  PHE190     -0.0003
     73  CE2      -26.5190   15.7770    6.1700 C.ar  190  PHE190     -0.0003
     74  CZ       -26.0020   15.5880    7.4340 C.ar  190  PHE190     -0.0000
     75  N        -31.0180   19.1470    5.3200 N.am  191  CYS191     -0.1968
     76  CA       -32.1020   18.3770    4.7330 C.3   191  CYS191      0.1712
     77  C        -31.6050   17.5590    3.5410 C.2   191  CYS191      0.2296
     78  O        -30.4440   17.6380    3.1310 O.2   191  CYS191     -0.2864
     79  CB       -33.2590   19.2940    4.3420 C.3   191  CYS191      0.0983
     80  SG       -32.8080   20.6570    3.2650 S.3   191  CYS191     -0.0798
     81  N        -30.4940   16.1410    0.1990 N.3   193  HIS193     -0.1226
     82  CA       -29.9100   16.7720   -0.9770 C.3   193  HIS193      0.1752
     83  C        -28.8190   15.8720   -1.5370 C.2   193  HIS193      0.2596
     84  O        -28.3590   14.9320   -0.8850 O.2   193  HIS193     -0.2718
     85  CB       -29.3430   18.1550   -0.6420 C.3   193  HIS193      0.0759
     86  CG       -28.0860   18.1100    0.1700 C.ar  193  HIS193      0.0818
     87  ND1      -28.0790   17.8120    1.5160 N.ar  193  HIS193     -0.2268
     88  CD2      -26.7940   18.3210   -0.1750 C.ar  193  HIS193      0.1154
     89  CE1      -26.8370   17.8440    1.9650 C.ar  193  HIS193      0.1986
     90  NE2      -26.0380   18.1510    0.9590 N.ar  193  HIS193     -0.2212
     91  N        -28.4180   16.1760   -2.7690 N.am  194  ILE194     -0.1966
     92  CA       -27.2280   15.6030   -3.3770 C.3   194  ILE194      0.1727
     93  C        -26.2560   16.7410   -3.6560 C.2   194  ILE194      0.2616
     94  O        -26.6350   17.9140   -3.7180 O.2   194  ILE194     -0.2715
     95  CB       -27.5340   14.8180   -4.6690 C.3   194  ILE194      0.0290
     96  CG1      -28.3770   15.6660   -5.6240 C.3   194  ILE194      0.0022
     97  CG2      -28.2240   13.5030   -4.3460 C.3   194  ILE194      0.0023
     98  CD1      -28.6550   14.9990   -6.9500 C.3   194  ILE194      0.0001
     99  N        -24.9880   16.3820   -3.8180 N.am  195  GLU195     -0.1963
    100  CA       -23.9590   17.3760   -4.0730 C.3   195  GLU195      0.1733
    101  C        -24.0310   17.8660   -5.5160 C.2   195  GLU195      0.2616
    102  O        -24.5590   17.1900   -6.4040 O.2   195  GLU195     -0.2715
    103  CB       -22.5760   16.7960   -3.7790 C.3   195  GLU195      0.0429
    104  CG       -22.4110   16.3250   -2.3450 C.3   195  GLU195      0.1163
    105  CD       -22.5310   17.4610   -1.3480 C.2   195  GLU195      0.3649
    106  OE1      -21.5910   18.2790   -1.2630 O.co2 195  GLU195     -0.2457
    107  OE2      -23.5700   17.5450   -0.6590 O.co2 195  GLU195     -0.2457
    108  N        -23.4950   19.0640   -5.7420 N.am  196  ASP196     -0.1971
    109  CA       -23.4350   19.5960   -7.0960 C.3   196  ASP196      0.1709
    110  C        -22.6180   18.6720   -7.9880 C.2   196  ASP196      0.2293
    111  O        -21.6170   18.0890   -7.5590 O.2   196  ASP196     -0.2864
    112  CB       -22.8290   21.0010   -7.1040 C.3   196  ASP196      0.1436
    113  CG       -23.6630   22.0040   -6.3340 C.2   196  ASP196      0.3671
    114  OD1      -23.1480   23.1040   -6.0420 O.co2 196  ASP196     -0.2456
    115  OD2      -24.8270   21.6880   -6.0050 O.co2 196  ASP196     -0.2456
    116  N        -16.5340   13.8070    4.8330 N.3   203  ASN203     -0.1240
    117  CA       -16.8040   14.6270    6.0050 C.3   203  ASN203      0.1653
    118  C        -16.0210   14.0730    7.1840 C.2   203  ASN203      0.2266
    119  O        -16.0220   12.8610    7.4150 O.2   203  ASN203     -0.2867
    120  CB       -18.3030   14.6490    6.3230 C.3   203  ASN203      0.1155
    121  CG       -18.6530   15.6130    7.4420 C.2   203  ASN203      0.2627
    122  OD1      -18.3460   15.3710    8.6090 O.2   203  ASN203     -0.2716
    123  ND2      -19.3230   16.7040    7.0910 N.am  203  ASN203     -0.0877
    124  N        -22.6280   13.2750   14.9260 N.3   211  LYS211     -0.1245
    125  CA       -23.4840   13.7640   13.8530 C.3   211  LYS211      0.1561
    126  C        -24.2240   12.5670   13.2690 C.2   211  LYS211      0.2260
    127  O        -23.5930   11.6010   12.8270 O.2   211  LYS211     -0.2867
    128  CB       -22.6600   14.4780   12.7800 C.3   211  LYS211      0.0271
    129  CG       -23.4730   15.0720   11.6380 C.3   211  LYS211      0.0035
    130  CD       -22.5630   15.5940   10.5320 C.3   211  LYS211      0.0206
    131  CE       -21.6610   16.7140   11.0250 C.3   211  LYS211      0.1093
    132  NZ       -22.4130   17.9780   11.2630 N.3   211  LYS211     -0.1314
    133  N        -26.4660   10.6560   10.5460 N.3   213  TRP213     -0.1241
    134  CA       -26.6110   10.7080    9.0990 C.3   213  TRP213      0.1605
    135  C        -27.7150    9.7730    8.6260 C.2   213  TRP213      0.2264
    136  O        -27.9960    8.7460    9.2490 O.2   213  TRP213     -0.2867
    137  CB       -25.3100   10.3100    8.3910 C.3   213  TRP213      0.0550
    138  CG       -24.1810   11.2730    8.5550 C.ar  213  TRP213      0.0003
    139  CD1      -23.4440   11.4890    9.6810 C.ar  213  TRP213      0.0946
    140  CD2      -23.6360   12.1310    7.5470 C.ar  213  TRP213      0.0152
    141  NE1      -22.4820   12.4380    9.4410 N.ar  213  TRP213     -0.2442
    142  CE2      -22.5790   12.8490    8.1370 C.ar  213  TRP213      0.0810
    143  CE3      -23.9450   12.3670    6.2030 C.ar  213  TRP213      0.0012
    144  CZ2      -21.8280   13.7860    7.4320 C.ar  213  TRP213      0.0191
    145  CZ3      -23.1990   13.2970    5.5050 C.ar  213  TRP213      0.0001
    146  CH2      -22.1540   13.9950    6.1200 C.ar  213  TRP213      0.0015
    147  N        -32.1610   22.8070   -7.2110 N.3   242  LEU242     -0.1245
    148  CA       -31.2130   23.6130   -6.4470 C.3   242  LEU242      0.1561
    149  C        -31.8920   24.4800   -5.3930 C.2   242  LEU242      0.2260
    150  O        -31.2550   24.8370   -4.3970 O.2   242  LEU242     -0.2867
    151  CB       -30.3890   24.4900   -7.3920 C.3   242  LEU242      0.0270
    152  CG       -29.3660   23.7690   -8.2700 C.3   242  LEU242      0.0019
    153  CD1      -28.7620   24.7690   -9.2270 C.3   242  LEU242      0.0001
    154  CD2      -28.2670   23.1380   -7.4550 C.3   242  LEU242      0.0001
    155  N        -34.0520   21.8180   -2.7320 N.3   245  GLN245     -0.1231
    156  CA       -33.1520   21.1920   -1.7700 C.3   245  GLN245      0.1698
    157  C        -32.9630   22.0080   -0.5010 C.2   245  GLN245      0.2592
    158  O        -32.3420   21.5080    0.4410 O.2   245  GLN245     -0.2718
    159  CB       -31.7800   20.9480   -2.4040 C.3   245  GLN245      0.0381
    160  CG       -31.7490   19.8180   -3.4080 C.3   245  GLN245      0.0905
    161  CD       -30.3400   19.4030   -3.7750 C.2   245  GLN245      0.2608
    162  OE1      -30.0910   18.2430   -4.1000 O.2   245  GLN245     -0.2717
    163  NE2      -29.4090   20.3490   -3.7250 N.am  245  GLN245     -0.0878
    164  N        -33.4520   23.2460   -0.4530 N.am  246  LEU246     -0.1980
    165  CA       -33.3400   24.0460    0.7580 C.3   246  LEU246      0.1596
    166  C        -34.4420   23.7510    1.7650 C.2   246  LEU246      0.2287
    167  O        -34.3330   24.1780    2.9200 O.2   246  LEU246     -0.2864
    168  CB       -33.3510   25.5380    0.4060 C.3   246  LEU246      0.0297
    169  CG       -32.1740   26.0550   -0.4230 C.3   246  LEU246      0.0022
    170  CD1      -32.4050   27.5010   -0.8350 C.3   246  LEU246      0.0001
    171  CD2      -30.8690   25.9170    0.3470 C.3   246  LEU246      0.0001
    172  N        -28.7220   12.5020    0.9680 N.3   281  HIS281     -0.1241
    173  CA       -28.3750   12.3490    2.3700 C.3   281  HIS281      0.1621
    174  C        -28.9180   13.5170    3.1780 C.2   281  HIS281      0.2264
    175  O        -29.1390   14.6130    2.6570 O.2   281  HIS281     -0.2867
    176  CB       -26.8580   12.2170    2.5710 C.3   281  HIS281      0.0745
    177  CG       -26.0690   13.3770    2.0500 C.ar  281  HIS281      0.0817
    178  ND1      -25.8430   13.5790    0.7060 N.ar  281  HIS281     -0.2268
    179  CD2      -25.4370   14.3870    2.6940 C.ar  281  HIS281      0.1154
    180  CE1      -25.1140   14.6690    0.5430 C.ar  281  HIS281      0.1986
    181  NE2      -24.8540   15.1780    1.7340 N.ar  281  HIS281     -0.2212
    182  N        -17.3650   20.0130   12.3490 N.3   291  ALA291     -0.1245
    183  CA       -17.1460   19.1450   11.2030 C.3   291  ALA291      0.1562
    184  C        -16.5160   19.9200   10.0530 C.2   291  ALA291      0.2260
    185  O        -16.6360   21.1450    9.9550 O.2   291  ALA291     -0.2867
    186  CB       -18.4580   18.5000   10.7370 C.3   291  ALA291      0.0290
    187  N        -15.8940   19.4190    5.6730 N.3   293  ALA293     -0.1245
    188  CA       -16.3810   18.6660    4.5270 C.3   293  ALA293      0.1562
    189  C        -15.8520   19.2750    3.2370 C.2   293  ALA293      0.2260
    190  O        -15.6260   20.4840    3.1500 O.2   293  ALA293     -0.2867
    191  CB       -17.9130   18.6300    4.4920 C.3   293  ALA293      0.0290
    192  N        -15.9890   18.3470   -1.3220 N.3   295  ASN295     -0.1240
    193  CA       -16.2850   17.4930   -2.4620 C.3   295  ASN295      0.1653
    194  C        -14.9810   17.1080   -3.1450 C.2   295  ASN295      0.2266
    195  O        -14.0920   17.9450   -3.3190 O.2   295  ASN295     -0.2867
    196  CB       -17.2040   18.2070   -3.4560 C.3   295  ASN295      0.1155
    197  CG       -18.5130   18.6440   -2.8320 C.2   295  ASN295      0.2627
    198  OD1      -18.7810   19.8370   -2.6940 O.2   295  ASN295     -0.2716
    199  ND2      -19.3400   17.6770   -2.4550 N.am  295  ASN295     -0.0877
@<TRIPOS>BOND
     1   153   152    1
     2   152   154    1
     3   152   151    1
     4   110   111    2
     5   110   109    1
     6   151   148    1
     7   147   148    1
     8   112   109    1
     9   112   113    1
    10   109   108    1
    11    98    96    1
    12   148   149    1
    13   102   101    2
    14   113   114   ar
    15   113   115   ar
    16   108   101   am
    17    96    95    1
    18   101   100    1
    19   149   150    2
    20    95    97    1
    21    95    92    1
    22   162   161    2
    23   100    99    1
    24   100   103    1
    25    99    93   am
    26   103   104    1
    27   161   163   am
    28   161   160    1
    29    94    93    2
    30    93    92    1
    31   196   197    1
    32   196   193    1
    33   160   159    1
    34    92    91    1
    35   195   194    2
    36   194   193    1
    37   197   198    2
    38   197   199   am
    39    91    83   am
    40   155   156    1
    41   193   192    1
    42   159   156    1
    43   104   105    1
    44   156   157    1
    45    83    82    1
    46    83    84    2
    47   105   106   ar
    48   105   107   ar
    49    82    85    1
    50    82    81    1
    51   170   169    1
    52    85    86    1
    53   157   164   am
    54   157   158    2
    55   164   165    1
    56   169   171    1
    57   169   168    1
    58    88    86   ar
    59    88    90   ar
    60    86    87   ar
    61   168   165    1
    62   180   178   ar
    63   180   181   ar
    64   178   177   ar
    65   165   166    1
    66    90    89   ar
    67   172   173    1
    68    87    89   ar
    69   181   179   ar
    70   166   167    2
    71   177   176    1
    72   177   179   ar
    73   173   176    1
    74   173   174    1
    75   175   174    2
    76    78    77    2
    77   190   189    2
    78   189   188    1
    79    80    79    1
    80    77    76    1
    81    44    43   ar
    82    45    43   ar
    83    43    42    1
    84    57    56    1
    85    79    76    1
    86   191   188    1
    87    42    39    1
    88   188   187    1
    89    76    75    1
    90   116   117    1
    91    10     9    1
    92    75    66   am
    93    41    40    2
    94    56    55   ar
    95    56    54   ar
    96    39    40    1
    97    39    38    1
    98    11     9    1
    99   145   146   ar
   100   145   143   ar
   101    71    73   ar
   102    71    69   ar
   103    55    53   ar
   104   117   120    1
   105   117   118    1
   106     9     8    2
   107   146   144   ar
   108    73    74   ar
   109    54    52   ar
   110   143   140   ar
   111    66    67    2
   112    66    65    1
   113   120   121    1
   114    68    69    1
   115    68    65    1
   116    38    35   am
   117    69    70   ar
   118    65    64    1
   119   123   121   am
   120   118   119    2
   121    53    51   ar
   122     8     7    1
   123   144   142   ar
   124    74    72   ar
   125   121   122    2
   126   140   142   ar
   127   140   138   ar
   128    52    51   ar
   129    35    36    2
   130    35    34    1
   131    70    72   ar
   132     7     6    1
   133    51    50    1
   134   142   141   ar
   135    37    34    1
   136   137   138    1
   137   137   134    1
   138    64    60   am
   139   138   139   ar
   140   135   134    1
   141   135   136    2
   142    34    33    1
   143    61    60    2
   144   134   133    1
   145    60    59    1
   146   141   139   ar
   147     6     5    1
   148     5     2    1
   149    20    18   am
   150    50    47    1
   151    46    47    1
   152   185   184    2
   153   184   183    1
   154    47    48    1
   155    29    27   ar
   156    29    31   ar
   157    63    62    1
   158   130   131    1
   159   130   129    1
   160    32    31    1
   161    27    26   ar
   162   186   183    1
   163    59    62    1
   164    59    58    1
   165    18    17    1
   166    18    19    2
   167     2     1    1
   168     2     3    1
   169    31    30   ar
   170    17    16    1
   171   131   132    1
   172   183   182    1
   173    26    25    1
   174    26    28   ar
   175   129   128    1
   176    24    23    2
   177    48    49    2
   178     3     4    2
   179    30    28   ar
   180    25    22    1
   181    16    13    1
   182    13    12    1
   183    13    14    1
   184    23    22    1
   185   128   125    1
   186   127   126    2
   187    14    15    2
   188    22    21    1
   189   126   125    1
   190   125   124    1
