@<TRIPOS>MOLECULE
tmp/6dq8A00.pdb
 182 175 0 0 0
SMALL
GASTEIGER

@<TRIPOS>ATOM
      1  N        -26.7370   30.5560   11.3850 N.3    63  ARG63      -0.1245
      2  CA       -28.0860   30.7110   10.8620 C.3    63  ARG63       0.1563
      3  C        -29.1110   30.1550   11.8450 C.2    63  ARG63       0.2260
      4  O        -28.8440   29.2050   12.5860 O.2    63  ARG63      -0.2867
      5  CB       -28.2270   30.0010    9.5140 C.3    63  ARG63       0.0307
      6  CG       -28.1600   28.4810    9.5870 C.3    63  ARG63       0.0489
      7  CD       -28.4100   27.8510    8.2260 C.3    63  ARG63       0.2205
      8  NE       -27.3390   28.1470    7.2800 N.pl3  63  ARG63      -0.0865
      9  CZ       -27.3990   27.8810    5.9790 C.cat  63  ARG63       0.5346
     10  NH1      -28.4820   27.3180    5.4630 N.pl3  63  ARG63       0.1354
     11  NH2      -26.3760   28.1840    5.1930 N.pl3  63  ARG63       0.1354
     12  N        -32.5310   28.2240   12.7450 N.3    65  GLN65      -0.1245
     13  CA       -33.2410   27.0790   12.1820 C.3    65  GLN65       0.1566
     14  C        -34.4760   26.7880   13.0230 C.2    65  GLN65       0.2260
     15  O        -34.3610   26.4030   14.1910 O.2    65  GLN65      -0.2867
     16  CB       -32.3380   25.8440   12.1190 C.3    65  GLN65       0.0367
     17  CG       -31.1740   25.9590   11.1490 C.3    65  GLN65       0.0905
     18  CD       -30.4310   24.6470   10.9710 C.2    65  GLN65       0.2608
     19  OE1      -30.2650   23.8790   11.9200 O.2    65  GLN65      -0.2717
     20  NE2      -29.9840   24.3830    9.7500 N.am   65  GLN65      -0.0878
     21  N        -27.1240   27.0990   13.7360 N.3   133  TYR133     -0.1241
     22  CA       -26.1370   26.2410   13.0910 C.3   133  TYR133      0.1605
     23  C        -25.0740   27.1150   12.4480 C.2   133  TYR133      0.2264
     24  O        -25.3830   27.9250   11.5690 O.2   133  TYR133     -0.2867
     25  CB       -26.7990   25.3500   12.0350 C.3   133  TYR133      0.0534
     26  CG       -25.9880   24.1330   11.6480 C.ar  133  TYR133     -0.0201
     27  CD1      -24.8540   23.7720   12.3630 C.ar  133  TYR133     -0.0009
     28  CD2      -26.3550   23.3470   10.5620 C.ar  133  TYR133     -0.0009
     29  CE1      -24.1090   22.6600   12.0100 C.ar  133  TYR133      0.0417
     30  CE2      -25.6170   22.2350   10.2020 C.ar  133  TYR133      0.0417
     31  CZ       -24.4970   21.8960   10.9290 C.ar  133  TYR133      0.1957
     32  OH       -23.7680   20.7860   10.5670 O.3   133  TYR133     -0.2866
     33  N        -23.0540   27.0720    9.9130 N.3   135  ALA135     -0.1231
     34  CA       -22.8700   26.2740    8.7110 C.3   135  ALA135      0.1694
     35  C        -22.1050   26.9850    7.6040 C.2   135  ALA135      0.2592
     36  O        -21.5710   26.3110    6.7180 O.2   135  ALA135     -0.2718
     37  CB       -24.2260   25.8000    8.1730 C.3   135  ALA135      0.0304
     38  N        -22.0280   28.3130    7.6290 N.am  136  ASP136     -0.1974
     39  CA       -21.3800   29.0870    6.5700 C.3   136  ASP136      0.1709
     40  C        -20.0300   29.5830    7.0850 C.2   136  ASP136      0.2293
     41  O        -19.8560   30.7590    7.4060 O.2   136  ASP136     -0.2864
     42  CB       -22.2790   30.2430    6.1260 C.3   136  ASP136      0.1436
     43  CG       -23.6430   29.7760    5.6630 C.2   136  ASP136      0.3671
     44  OD1      -24.5010   29.4880    6.5250 O.co2 136  ASP136     -0.2456
     45  OD2      -23.8610   29.6960    4.4360 O.co2 136  ASP136     -0.2456
     46  N        -15.0940   23.3120    3.9860 N.3   184  TRP184     -0.1241
     47  CA       -15.9830   24.1610    4.7620 C.3   184  TRP184      0.1605
     48  C        -16.1190   23.5960    6.1690 C.2   184  TRP184      0.2264
     49  O        -15.9650   22.3910    6.3880 O.2   184  TRP184     -0.2867
     50  CB       -17.3680   24.2530    4.1110 C.3   184  TRP184      0.0550
     51  CG       -17.3520   24.8860    2.7520 C.ar  184  TRP184      0.0003
     52  CD1      -17.1540   24.2570    1.5580 C.ar  184  TRP184      0.0946
     53  CD2      -17.5430   26.2730    2.4480 C.ar  184  TRP184      0.0152
     54  NE1      -17.2080   25.1660    0.5290 N.ar  184  TRP184     -0.2442
     55  CE2      -17.4460   26.4110    1.0490 C.ar  184  TRP184      0.0810
     56  CE3      -17.7850   27.4110    3.2230 C.ar  184  TRP184      0.0012
     57  CZ2      -17.5840   27.6400    0.4090 C.ar  184  TRP184      0.0191
     58  CZ3      -17.9220   28.6310    2.5850 C.ar  184  TRP184      0.0001
     59  CH2      -17.8210   28.7360    1.1920 C.ar  184  TRP184      0.0015
     60  N        -18.2930   23.3540    9.9690 N.3   186  TYR186     -0.1241
     61  CA       -19.6470   23.3050   10.5090 C.3   186  TYR186      0.1605
     62  C        -19.5720   23.1940   12.0230 C.2   186  TYR186      0.2264
     63  O        -19.0740   22.1940   12.5490 O.2   186  TYR186     -0.2867
     64  CB       -20.4250   22.1220    9.9250 C.3   186  TYR186      0.0534
     65  CG       -20.6330   22.2230    8.4340 C.ar  186  TYR186     -0.0201
     66  CD1      -21.6900   22.9530    7.9100 C.ar  186  TYR186     -0.0009
     67  CD2      -19.7690   21.5940    7.5490 C.ar  186  TYR186     -0.0009
     68  CE1      -21.8810   23.0540    6.5470 C.ar  186  TYR186      0.0417
     69  CE2      -19.9540   21.6860    6.1840 C.ar  186  TYR186      0.0417
     70  CZ       -21.0120   22.4160    5.6890 C.ar  186  TYR186      0.1957
     71  OH       -21.2000   22.5100    4.3290 O.3   186  TYR186     -0.2866
     72  N        -29.3470   20.9910   11.8640 N.3   193  SER193     -0.1202
     73  CA       -29.6010   19.9440   10.8900 C.3   193  SER193      0.2020
     74  C        -29.3810   20.4480    9.4700 C.2   193  SER193      0.2619
     75  O        -29.2320   21.6470    9.2180 O.2   193  SER193     -0.2717
     76  CB       -31.0280   19.4060   11.0340 C.3   193  SER193      0.2103
     77  OG       -31.9760   20.4140   10.7240 O.3   193  SER193     -0.2182
     78  N        -29.3700   19.4920    8.5400 N.am  194  PHE194     -0.1961
     79  CA       -29.3430   19.7490    7.1070 C.3   194  PHE194      0.1771
     80  C        -30.3000   18.7770    6.4320 C.2   194  PHE194      0.2619
     81  O        -30.3040   17.5830    6.7470 O.2   194  PHE194     -0.2715
     82  CB       -27.9260   19.6090    6.5180 C.3   194  PHE194      0.0574
     83  CG       -27.2310   18.3110    6.8590 C.ar  194  PHE194     -0.0200
     84  CD1      -26.6360   18.1270    8.0990 C.ar  194  PHE194     -0.0042
     85  CD2      -27.1360   17.2910    5.9220 C.ar  194  PHE194     -0.0042
     86  CE1      -25.9860   16.9450    8.4080 C.ar  194  PHE194     -0.0003
     87  CE2      -26.4820   16.1060    6.2260 C.ar  194  PHE194     -0.0003
     88  CZ       -25.9080   15.9330    7.4700 C.ar  194  PHE194     -0.0000
     89  N        -31.1140   19.2930    5.5130 N.am  195  CYS195     -0.1968
     90  CA       -32.1580   18.5020    4.8820 C.3   195  CYS195      0.1712
     91  C        -31.6060   17.6940    3.7050 C.2   195  CYS195      0.2296
     92  O        -30.4240   17.7650    3.3610 O.2   195  CYS195     -0.2864
     93  CB       -33.3410   19.3850    4.4760 C.3   195  CYS195      0.0983
     94  SG       -32.9540   20.6990    3.2980 S.3   195  CYS195     -0.0798
     95  N        -30.4110   16.3210    0.3040 N.3   197  HIS197     -0.1241
     96  CA       -29.8130   16.9600   -0.8600 C.3   197  HIS197      0.1621
     97  C        -28.7510   16.0430   -1.4450 C.2   197  HIS197      0.2264
     98  O        -28.2850   15.1010   -0.7980 O.2   197  HIS197     -0.2867
     99  CB       -29.1790   18.3080   -0.4990 C.3   197  HIS197      0.0745
    100  CG       -27.9620   18.1870    0.3670 C.ar  197  HIS197      0.0817
    101  ND1      -28.0350   18.0020    1.7310 N.ar  197  HIS197     -0.2268
    102  CD2      -26.6430   18.2070    0.0610 C.ar  197  HIS197      0.1154
    103  CE1      -26.8140   17.9240    2.2280 C.ar  197  HIS197      0.1986
    104  NE2      -25.9510   18.0460    1.2360 N.ar  197  HIS197     -0.2212
    105  N        -25.0110   16.5640   -3.9770 N.3   199  GLU199     -0.1245
    106  CA       -23.9940   17.5680   -4.2380 C.3   199  GLU199      0.1567
    107  C        -24.0890   18.0800   -5.6700 C.2   199  GLU199      0.2260
    108  O        -24.6000   17.4050   -6.5680 O.2   199  GLU199     -0.2867
    109  CB       -22.5980   17.0000   -3.9820 C.3   199  GLU199      0.0388
    110  CG       -22.4190   16.4290   -2.5880 C.3   199  GLU199      0.1160
    111  CD       -22.7970   17.4180   -1.5040 C.2   199  GLU199      0.3649
    112  OE1      -22.3820   18.5930   -1.5970 O.co2 199  GLU199     -0.2457
    113  OE2      -23.5160   17.0240   -0.5620 O.co2 199  GLU199     -0.2457
    114  N        -18.5500   13.4800   -1.4320 N.3   205  SER205     -0.1217
    115  CA       -18.1890   14.3600   -0.3340 C.3   205  SER205      0.1889
    116  C        -17.5650   13.5290    0.7730 C.2   205  SER205      0.2288
    117  O        -17.9480   12.3780    0.9960 O.2   205  SER205     -0.2866
    118  CB       -19.3840   15.1650    0.2020 C.3   205  SER205      0.2089
    119  OG       -20.0570   14.4690    1.2350 O.3   205  SER205     -0.2183
    120  N        -16.3330   13.9230    4.9470 N.3   207  ASN207     -0.1240
    121  CA       -16.6640   14.7250    6.1150 C.3   207  ASN207      0.1653
    122  C        -15.9090   14.1730    7.3120 C.2   207  ASN207      0.2266
    123  O        -15.9230   12.9610    7.5470 O.2   207  ASN207     -0.2867
    124  CB       -18.1720   14.6560    6.3970 C.3   207  ASN207      0.1155
    125  CG       -19.0160   15.0600    5.1970 C.2   207  ASN207      0.2627
    126  OD1      -19.5570   16.1650    5.1500 O.2   207  ASN207     -0.2716
    127  ND2      -19.1370   14.1630    4.2240 N.am  207  ASN207     -0.0877
    128  N        -22.5030   13.4220   15.0960 N.3   215  LYS215     -0.1245
    129  CA       -23.3460   13.9320   14.0220 C.3   215  LYS215      0.1561
    130  C        -24.0990   12.7460   13.4370 C.2   215  LYS215      0.2260
    131  O        -23.4790   11.7750   12.9900 O.2   215  LYS215     -0.2867
    132  CB       -22.4820   14.5880   12.9480 C.3   215  LYS215      0.0271
    133  CG       -23.2430   15.1910   11.7820 C.3   215  LYS215      0.0035
    134  CD       -22.2650   15.6960   10.7370 C.3   215  LYS215      0.0206
    135  CE       -21.4450   16.8620   11.2650 C.3   215  LYS215      0.1093
    136  NZ       -22.2480   18.1120   11.3290 N.3   215  LYS215     -0.1314
    137  N        -26.3750   10.8540   10.7190 N.3   217  TRP217     -0.1241
    138  CA       -26.5170   10.9110    9.2730 C.3   217  TRP217      0.1605
    139  C        -27.6200    9.9750    8.8000 C.2   217  TRP217      0.2264
    140  O        -27.9010    8.9490    9.4240 O.2   217  TRP217     -0.2867
    141  CB       -25.2300   10.4560    8.5820 C.3   217  TRP217      0.0550
    142  CG       -24.0880   11.4070    8.6810 C.ar  217  TRP217      0.0003
    143  CD1      -23.3120   11.6480    9.7760 C.ar  217  TRP217      0.0946
    144  CD2      -23.5740   12.2360    7.6330 C.ar  217  TRP217      0.0152
    145  NE1      -22.3510   12.5820    9.4770 N.ar  217  TRP217     -0.2442
    146  CE2      -22.4900   12.9590    8.1670 C.ar  217  TRP217      0.0810
    147  CE3      -23.9280   12.4380    6.2950 C.ar  217  TRP217      0.0012
    148  CZ2      -21.7580   13.8720    7.4110 C.ar  217  TRP217      0.0191
    149  CZ3      -23.2000   13.3440    5.5460 C.ar  217  TRP217      0.0001
    150  CH2      -22.1270   14.0490    6.1060 C.ar  217  TRP217      0.0015
    151  N        -34.3570   21.6180   -2.8240 N.3   249  GLN249     -0.1231
    152  CA       -33.5680   20.9630   -1.7770 C.3   249  GLN249      0.1698
    153  C        -33.0840   21.9270   -0.6820 C.2   249  GLN249      0.2592
    154  O        -32.3230   21.4970    0.1940 O.2   249  GLN249     -0.2718
    155  CB       -32.4220   20.1240   -2.3500 C.3   249  GLN249      0.0381
    156  CG       -31.3060   20.9010   -3.0050 C.3   249  GLN249      0.0905
    157  CD       -30.2510   19.9880   -3.6030 C.2   249  GLN249      0.2608
    158  OE1      -30.4620   18.7810   -3.7430 O.2   249  GLN249     -0.2717
    159  NE2      -29.1060   20.5600   -3.9570 N.am  249  GLN249     -0.0878
    160  N        -33.4940   23.1960   -0.7060 N.am  250  LEU250     -0.1980
    161  CA       -33.3210   24.0640    0.4500 C.3   250  LEU250      0.1596
    162  C        -34.3470   23.7750    1.5380 C.2   250  LEU250      0.2287
    163  O        -34.1460   24.1860    2.6860 O.2   250  LEU250     -0.2864
    164  CB       -33.4330   25.5330    0.0350 C.3   250  LEU250      0.0297
    165  CG       -32.3770   26.0800   -0.9290 C.3   250  LEU250      0.0022
    166  CD1      -32.7320   27.4950   -1.3650 C.3   250  LEU250      0.0001
    167  CD2      -30.9950   26.0420   -0.2960 C.3   250  LEU250      0.0001
    168  N        -28.5430   12.6890    1.1420 N.3   285  HIS285     -0.1241
    169  CA       -28.1930   12.5740    2.5470 C.3   285  HIS285      0.1621
    170  C        -28.7890   13.7270    3.3400 C.2   285  HIS285      0.2264
    171  O        -29.0600   14.8090    2.8110 O.2   285  HIS285     -0.2867
    172  CB       -26.6790   12.4580    2.7700 C.3   285  HIS285      0.0745
    173  CG       -25.8830   13.5430    2.1160 C.ar  285  HIS285      0.0817
    174  ND1      -25.5950   13.5440    0.7680 N.ar  285  HIS285     -0.2268
    175  CD2      -25.3010   14.6540    2.6260 C.ar  285  HIS285      0.1154
    176  CE1      -24.8760   14.6130    0.4760 C.ar  285  HIS285      0.1986
    177  NE2      -24.6840   15.3030    1.5850 N.ar  285  HIS285     -0.2212
    178  N        -17.1390   20.1230   12.5820 N.3   295  ALA295     -0.1245
    179  CA       -16.9050   19.2470   11.4450 C.3   295  ALA295      0.1562
    180  C        -16.2770   20.0250   10.2970 C.2   295  ALA295      0.2260
    181  O        -16.3740   21.2530   10.2180 O.2   295  ALA295     -0.2867
    182  CB       -18.2020   18.5720   10.9750 C.3   295  ALA295      0.0290
@<TRIPOS>BOND
     1   108   107    2
     2   107   106    1
     3   106   109    1
     4   106   105    1
     5   109   110    1
     6   159   157   am
     7   158   157    2
     8   157   156    1
     9   156   155    1
    10   151   152    1
    11   110   111    1
    12   155   152    1
    13   152   153    1
    14   112   111   ar
    15   111   113   ar
    16    97    96    1
    17    97    98    2
    18   114   115    1
    19   166   165    1
    20   165   167    1
    21   165   164    1
    22    96    99    1
    23    96    95    1
    24   160   153   am
    25   160   161    1
    26   153   154    2
    27    99   100    1
    28   115   118    1
    29   115   116    1
    30   164   161    1
    31   102   100   ar
    32   102   104   ar
    33   118   119    1
    34   100   101   ar
    35    57    55   ar
    36    57    59   ar
    37   161   162    1
    38   176   174   ar
    39   176   177   ar
    40    54    55   ar
    41    54    52   ar
    42   174   173   ar
    43   116   117    2
    44    55    53   ar
    45   168   169    1
    46    59    58   ar
    47   104   103   ar
    48   162   163    2
    49    52    51   ar
    50   177   175   ar
    51   101   103   ar
    52   173   175   ar
    53   173   172    1
    54    53    51   ar
    55    53    56   ar
    56   169   172    1
    57   169   170    1
    58    58    56   ar
    59    51    50    1
    60   171   170    2
    61    94    93    1
    62    92    91    2
    63    91    90    1
    64    46    47    1
    65    50    47    1
    66   127   125   am
    67    71    70    1
    68    45    43   ar
    69    93    90    1
    70    47    48    1
    71    90    89    1
    72   120   121    1
    73   126   125    2
    74    11     9    1
    75   125   124    1
    76    10     9    1
    77    89    80   am
    78   149   150   ar
    79   149   147   ar
    80    43    42    1
    81    43    44   ar
    82    70    69   ar
    83    70    68   ar
    84    85    87   ar
    85    85    83   ar
    86     9     8    2
    87   150   148   ar
    88   121   124    1
    89   121   122    1
    90    42    39    1
    91    48    49    2
    92    69    67   ar
    93    87    88   ar
    94   147   144   ar
    95    80    81    2
    96    80    79    1
    97    82    83    1
    98    82    79    1
    99    68    66   ar
   100    39    40    1
   101    39    38    1
   102    36    35    2
   103    83    84   ar
   104    40    41    2
   105    79    78    1
   106     8     7    1
   107   122   123    2
   108   148   146   ar
   109    88    86   ar
   110    67    65   ar
   111    35    38   am
   112    35    34    1
   113   144   146   ar
   114   144   142   ar
   115    66    65   ar
   116    84    86   ar
   117   146   145   ar
   118    37    34    1
   119     7     6    1
   120    65    64    1
   121    78    74   am
   122   141   142    1
   123   141   138    1
   124   142   143   ar
   125    34    33    1
   126   139   138    1
   127   139   140    2
   128    75    74    2
   129   138   137    1
   130    74    73    1
   131   145   143   ar
   132     5     6    1
   133     5     2    1
   134    20    18   am
   135    64    61    1
   136    60    61    1
   137    30    28   ar
   138    30    31   ar
   139   181   180    2
   140   180   179    1
   141    61    62    1
   142    28    26   ar
   143    32    31    1
   144    77    76    1
   145   134   135    1
   146   134   133    1
   147     2     1    1
   148     2     3    1
   149    73    76    1
   150    73    72    1
   151    31    29   ar
   152    18    17    1
   153    18    19    2
   154   182   179    1
   155    17    16    1
   156   135   136    1
   157   179   178    1
   158    24    23    2
   159    26    25    1
   160    26    27   ar
   161   133   132    1
   162     3     4    2
   163    29    27   ar
   164    62    63    2
   165    25    22    1
   166    16    13    1
   167    13    12    1
   168    13    14    1
   169    23    22    1
   170   132   129    1
   171   131   130    2
   172    14    15    2
   173    22    21    1
   174   130   129    1
   175   129   128    1
