@<TRIPOS>MOLECULE
tmp/6dq9A00.pdb
 222 212 0 0 0
SMALL
GASTEIGER

@<TRIPOS>ATOM
      1  N        -26.7100   29.5920   11.5020 N.3    63  ARG63      -0.1245
      2  CA       -28.0620   29.7370   10.9910 C.3    63  ARG63       0.1563
      3  C        -29.0630   29.1380   11.9690 C.2    63  ARG63       0.2260
      4  O        -28.7690   28.1780   12.6860 O.2    63  ARG63      -0.2867
      5  CB       -28.2020   29.0750    9.6200 C.3    63  ARG63       0.0307
      6  CG       -28.0430   27.5640    9.6260 C.3    63  ARG63       0.0489
      7  CD       -28.0620   27.0170    8.2050 C.3    63  ARG63       0.2205
      8  NE       -26.9190   27.4930    7.4320 N.pl3  63  ARG63      -0.0865
      9  CZ       -26.8050   27.3770    6.1120 C.cat  63  ARG63       0.5346
     10  NH1      -27.7690   26.8020    5.4070 N.pl3  63  ARG63       0.1354
     11  NH2      -25.7250   27.8400    5.4980 N.pl3  63  ARG63       0.1354
     12  N        -32.4830   27.1740   12.9200 N.3    65  GLN65      -0.1245
     13  CA       -33.2410   26.0610   12.3590 C.3    65  GLN65       0.1566
     14  C        -34.4600   25.7870   13.2250 C.2    65  GLN65       0.2260
     15  O        -34.3230   25.4500   14.4060 O.2    65  GLN65      -0.2867
     16  CB       -32.3750   24.8030   12.2490 C.3    65  GLN65       0.0367
     17  CG       -31.2510   24.9160   11.2390 C.3    65  GLN65       0.0905
     18  CD       -30.5270   23.6030   11.0330 C.2    65  GLN65       0.2608
     19  OE1      -30.2970   22.8500   11.9810 O.2    65  GLN65      -0.2717
     20  NE2      -30.1720   23.3150    9.7870 N.am   65  GLN65      -0.0878
     21  N        -40.6620   23.5900   10.7710 N.3    69  GLU69      -0.1245
     22  CA       -41.0390   24.6810    9.8750 C.3    69  GLU69       0.1567
     23  C        -41.9350   24.2030    8.7370 C.2    69  GLU69       0.2260
     24  O        -42.8340   24.9360    8.3080 O.2    69  GLU69      -0.2867
     25  CB       -39.7890   25.3640    9.3130 C.3    69  GLU69       0.0388
     26  CG       -39.0250   24.5360    8.2900 C.3    69  GLU69       0.1160
     27  CD       -37.9190   25.3140    7.6070 C.2    69  GLU69       0.3649
     28  OE1      -37.1540   24.7000    6.8330 O.co2  69  GLU69      -0.2457
     29  OE2      -37.8140   26.5350    7.8440 O.co2  69  GLU69      -0.2457
     30  N        -27.0860   26.1260   13.8370 N.3   130  TYR130     -0.1241
     31  CA       -26.1060   25.2720   13.1740 C.3   130  TYR130      0.1605
     32  C        -25.0290   26.1490   12.5540 C.2   130  TYR130      0.2264
     33  O        -25.3300   26.9950   11.7060 O.2   130  TYR130     -0.2867
     34  CB       -26.7720   24.4020   12.1010 C.3   130  TYR130      0.0534
     35  CG       -25.9810   23.1720   11.6960 C.ar  130  TYR130     -0.0201
     36  CD1      -24.8280   22.8060   12.3760 C.ar  130  TYR130     -0.0009
     37  CD2      -26.3940   22.3770   10.6320 C.ar  130  TYR130     -0.0009
     38  CE1      -24.1070   21.6820   12.0110 C.ar  130  TYR130      0.0417
     39  CE2      -25.6770   21.2520   10.2560 C.ar  130  TYR130      0.0417
     40  CZ       -24.5320   20.9110   10.9530 C.ar  130  TYR130      0.1957
     41  OH       -23.8150   19.7900   10.5960 O.3   130  TYR130     -0.2866
     42  N        -23.0290   26.0140   10.0450 N.3   132  ALA132     -0.1231
     43  CA       -22.8340   25.2310    8.8360 C.3   132  ALA132      0.1694
     44  C        -22.1890   26.0700    7.7390 C.2   132  ALA132      0.2592
     45  O        -22.3140   27.2970    7.7100 O.2   132  ALA132     -0.2718
     46  CB       -24.1650   24.6580    8.3430 C.3   132  ALA132      0.0304
     47  N        -21.4870   25.3840    6.8370 N.am  133  ASP133     -0.1974
     48  CA       -20.8450   26.0120    5.6830 C.3   133  ASP133      0.1709
     49  C        -19.8790   27.1180    6.1080 C.2   133  ASP133      0.2293
     50  O        -19.9040   28.2340    5.5850 O.2   133  ASP133     -0.2864
     51  CB       -21.8880   26.5410    4.6970 C.3   133  ASP133      0.1436
     52  CG       -22.6810   25.4320    4.0440 C.2   133  ASP133      0.3671
     53  OD1      -22.0900   24.3680    3.7610 O.co2 133  ASP133     -0.2456
     54  OD2      -23.8930   25.6240    3.8190 O.co2 133  ASP133     -0.2456
     55  N        -15.1860   22.3200    3.9450 N.3   181  TRP181     -0.1241
     56  CA       -16.0820   23.1430    4.7420 C.3   181  TRP181      0.1605
     57  C        -16.1910   22.5710    6.1500 C.2   181  TRP181      0.2264
     58  O        -16.0010   21.3710    6.3640 O.2   181  TRP181     -0.2867
     59  CB       -17.4690   23.2290    4.0970 C.3   181  TRP181      0.0550
     60  CG       -17.4630   23.9390    2.7780 C.ar  181  TRP181      0.0003
     61  CD1      -17.2050   23.3940    1.5540 C.ar  181  TRP181      0.0946
     62  CD2      -17.7170   25.3310    2.5510 C.ar  181  TRP181      0.0152
     63  NE1      -17.2860   24.3580    0.5790 N.ar  181  TRP181     -0.2442
     64  CE2      -17.5990   25.5560    1.1650 C.ar  181  TRP181      0.0810
     65  CE3      -18.0350   26.4080    3.3850 C.ar  181  TRP181      0.0012
     66  CZ2      -17.7880   26.8140    0.5940 C.ar  181  TRP181      0.0191
     67  CZ3      -18.2230   27.6560    2.8170 C.ar  181  TRP181      0.0001
     68  CH2      -18.0980   27.8480    1.4340 C.ar  181  TRP181      0.0015
     69  N        -18.3400   22.3510    9.9970 N.3   183  TYR183     -0.1241
     70  CA       -19.6990   22.3010   10.5350 C.3   183  TYR183      0.1605
     71  C        -19.6220   22.1890   12.0510 C.2   183  TYR183      0.2264
     72  O        -19.1410   21.1800   12.5760 O.2   183  TYR183     -0.2867
     73  CB       -20.4830   21.1310    9.9350 C.3   183  TYR183      0.0534
     74  CG       -20.6180   21.2420    8.4330 C.ar  183  TYR183     -0.0201
     75  CD1      -21.6820   21.9260    7.8640 C.ar  183  TYR183     -0.0009
     76  CD2      -19.6650   20.6900    7.5860 C.ar  183  TYR183     -0.0009
     77  CE1      -21.8020   22.0470    6.4930 C.ar  183  TYR183      0.0417
     78  CE2      -19.7760   20.8070    6.2130 C.ar  183  TYR183      0.0417
     79  CZ       -20.8490   21.4850    5.6740 C.ar  183  TYR183      0.1957
     80  OH       -20.9680   21.6060    4.3090 O.3   183  TYR183     -0.2866
     81  N        -29.3190   19.9970   11.9030 N.3   190  SER190     -0.1202
     82  CA       -29.5540   18.9430   10.9260 C.3   190  SER190      0.2020
     83  C        -29.3060   19.4390    9.5090 C.2   190  SER190      0.2619
     84  O        -29.1710   20.6370    9.2530 O.2   190  SER190     -0.2717
     85  CB       -30.9840   18.4020   11.0420 C.3   190  SER190      0.2103
     86  OG       -31.9310   19.3860   10.6580 O.3   190  SER190     -0.2182
     87  N        -29.2580   18.4830    8.5810 N.am  191  PHE191     -0.1961
     88  CA       -29.1910   18.7760    7.1560 C.3   191  PHE191      0.1771
     89  C        -30.1730   17.8770    6.4160 C.2   191  PHE191      0.2619
     90  O        -30.3210   16.6990    6.7520 O.2   191  PHE191     -0.2715
     91  CB       -27.7630   18.6130    6.5960 C.3   191  PHE191      0.0574
     92  CG       -27.1020   17.2950    6.9260 C.ar  191  PHE191     -0.0200
     93  CD1      -26.5410   17.0740    8.1760 C.ar  191  PHE191     -0.0042
     94  CD2      -26.9980   16.2980    5.9670 C.ar  191  PHE191     -0.0042
     95  CE1      -25.9210   15.8730    8.4760 C.ar  191  PHE191     -0.0003
     96  CE2      -26.3710   15.0980    6.2580 C.ar  191  PHE191     -0.0003
     97  CZ       -25.8350   14.8830    7.5140 C.ar  191  PHE191     -0.0000
     98  N        -30.8490   18.4460    5.4170 N.am  192  CYS192     -0.1968
     99  CA       -31.9250   17.7640    4.7100 C.3   192  CYS192      0.1712
    100  C        -31.3790   16.8160    3.6430 C.2   192  CYS192      0.2296
    101  O        -30.1840   16.7900    3.3390 O.2   192  CYS192     -0.2864
    102  CB       -32.8680   18.7740    4.0610 C.3   192  CYS192      0.0983
    103  SG       -33.5330   20.0050    5.1900 S.3   192  CYS192     -0.0798
    104  N        -30.2750   15.3140    0.2960 N.3   194  HIS194     -0.1241
    105  CA       -29.6880   15.9130   -0.8940 C.3   194  HIS194      0.1621
    106  C        -28.6510   14.9690   -1.4850 C.2   194  HIS194      0.2264
    107  O        -28.2000   14.0180   -0.8400 O.2   194  HIS194     -0.2867
    108  CB       -29.0380   17.2590   -0.5700 C.3   194  HIS194      0.0745
    109  CG       -27.8260   17.1350    0.2980 C.ar  194  HIS194      0.0817
    110  ND1      -27.9080   16.9850    1.6650 N.ar  194  HIS194     -0.2268
    111  CD2      -26.5070   17.1190   -0.0050 C.ar  194  HIS194      0.1154
    112  CE1      -26.6910   16.8890    2.1690 C.ar  194  HIS194      0.1986
    113  NE2      -25.8220   16.9670    1.1770 N.ar  194  HIS194     -0.2212
    114  N        -24.9420   15.4890   -4.0830 N.3   196  GLU196     -0.1231
    115  CA       -23.9320   16.5070   -4.3230 C.3   196  GLU196      0.1699
    116  C        -23.9950   17.0080   -5.7610 C.2   196  GLU196      0.2592
    117  O        -24.4900   16.3290   -6.6650 O.2   196  GLU196     -0.2718
    118  CB       -22.5320   15.9670   -4.0270 C.3   196  GLU196      0.0402
    119  CG       -22.3500   15.4160   -2.6190 C.3   196  GLU196      0.1161
    120  CD       -22.7850   16.3930   -1.5390 C.2   196  GLU196      0.3649
    121  OE1      -23.5180   15.9730   -0.6180 O.co2 196  GLU196     -0.2457
    122  OE2      -22.3930   17.5760   -1.6060 O.co2 196  GLU196     -0.2457
    123  N        -23.4870   18.2230   -5.9600 N.am  197  ASP197     -0.1974
    124  CA       -23.2890   18.7290   -7.3100 C.3   197  ASP197      0.1709
    125  C        -22.4120   17.7670   -8.0990 C.2   197  ASP197      0.2293
    126  O        -21.4640   17.1850   -7.5630 O.2   197  ASP197     -0.2864
    127  CB       -22.6490   20.1180   -7.2700 C.3   197  ASP197      0.1436
    128  CG       -23.5810   21.1730   -6.7080 C.2   197  ASP197      0.3671
    129  OD1      -24.8110   20.9600   -6.7450 O.co2 197  ASP197     -0.2456
    130  OD2      -23.0850   22.2160   -6.2350 O.co2 197  ASP197     -0.2456
    131  N        -18.5550   12.4640   -1.4430 N.3   202  SER202     -0.1217
    132  CA       -18.1800   13.3530   -0.3540 C.3   202  SER202      0.1889
    133  C        -17.5610   12.5240    0.7590 C.2   202  SER202      0.2288
    134  O        -17.9470   11.3750    0.9850 O.2   202  SER202     -0.2866
    135  CB       -19.3730   14.1600    0.1810 C.3   202  SER202      0.2089
    136  OG       -20.0580   13.4580    1.2000 O.3   202  SER202     -0.2183
    137  N        -16.3470   12.9050    4.9360 N.3   204  ASN204     -0.1240
    138  CA       -16.7030   13.6910    6.1080 C.3   204  ASN204      0.1653
    139  C        -15.9430   13.1560    7.3130 C.2   204  ASN204      0.2266
    140  O        -15.9580   11.9490    7.5680 O.2   204  ASN204     -0.2867
    141  CB       -18.2140   13.6250    6.3680 C.3   204  ASN204      0.1155
    142  CG       -19.0390   13.9920    5.1440 C.2   204  ASN204      0.2627
    143  OD1      -19.5880   15.0910    5.0610 O.2   204  ASN204     -0.2716
    144  ND2      -19.1370   13.0670    4.1890 N.am  204  ASN204     -0.0877
    145  N        -22.4940   12.4080   15.0770 N.3   212  LYS212     -0.1245
    146  CA       -23.3300   12.9000   13.9890 C.3   212  LYS212      0.1561
    147  C        -24.1030   11.7130   13.4290 C.2   212  LYS212      0.2260
    148  O        -23.4970   10.7310   12.9900 O.2   212  LYS212     -0.2867
    149  CB       -22.4760   13.5580   12.9050 C.3   212  LYS212      0.0271
    150  CG       -23.2680   14.1750   11.7600 C.3   212  LYS212      0.0035
    151  CD       -22.3450   14.7130   10.6680 C.3   212  LYS212      0.0206
    152  CE       -21.5080   15.8860   11.1600 C.3   212  LYS212      0.1093
    153  NZ       -22.3130   17.1340   11.2900 N.3   212  LYS212     -0.1314
    154  N        -26.3610    9.8470   10.7300 N.3   214  TRP214     -0.1241
    155  CA       -26.5170    9.8970    9.2830 C.3   214  TRP214      0.1605
    156  C        -27.6390    8.9780    8.8160 C.2   214  TRP214      0.2264
    157  O        -27.9150    7.9440    9.4270 O.2   214  TRP214     -0.2867
    158  CB       -25.2320    9.4670    8.5670 C.3   214  TRP214      0.0550
    159  CG       -24.0870   10.4110    8.6690 C.ar  214  TRP214      0.0003
    160  CD1      -23.2970   10.6340    9.7580 C.ar  214  TRP214      0.0946
    161  CD2      -23.5750   11.2440    7.6230 C.ar  214  TRP214      0.0152
    162  NE1      -22.3310   11.5640    9.4580 N.ar  214  TRP214     -0.2442
    163  CE2      -22.4810   11.9550    8.1530 C.ar  214  TRP214      0.0810
    164  CE3      -23.9430   11.4620    6.2930 C.ar  214  TRP214      0.0012
    165  CZ2      -21.7490   12.8690    7.3990 C.ar  214  TRP214      0.0191
    166  CZ3      -23.2140   12.3710    5.5420 C.ar  214  TRP214      0.0001
    167  CH2      -22.1310   13.0620    6.0960 C.ar  214  TRP214      0.0015
    168  N        -34.2540   20.9270   -2.7000 N.3   246  GLN246     -0.1231
    169  CA       -33.3740   20.3760   -1.6740 C.3   246  GLN246      0.1698
    170  C        -33.2410   21.2820   -0.4580 C.2   246  GLN246      0.2592
    171  O        -32.7170   20.8370    0.5690 O.2   246  GLN246     -0.2718
    172  CB       -31.9870   20.1000   -2.2590 C.3   246  GLN246      0.0381
    173  CG       -31.9100   18.8410   -3.1040 C.3   246  GLN246      0.0905
    174  CD       -30.5010   18.5390   -3.5800 C.2   246  GLN246      0.2608
    175  OE1      -30.1710   17.3920   -3.8840 O.2   246  GLN246     -0.2717
    176  NE2      -29.6620   19.5680   -3.6470 N.am  246  GLN246     -0.0878
    177  N        -33.6910   22.5330   -0.5440 N.am  247  LEU247     -0.1966
    178  CA       -33.6680   23.4200    0.6110 C.3   247  LEU247      0.1728
    179  C        -34.7670   23.1120    1.6190 C.2   247  LEU247      0.2616
    180  O        -34.7410   23.6680    2.7220 O.2   247  LEU247     -0.2715
    181  CB       -33.7850   24.8780    0.1570 C.3   247  LEU247      0.0311
    182  CG       -32.6250   25.4000   -0.6930 C.3   247  LEU247      0.0022
    183  CD1      -32.9340   26.7880   -1.2330 C.3   247  LEU247      0.0001
    184  CD2      -31.3320   25.4080    0.1080 C.3   247  LEU247      0.0001
    185  N        -35.7280   22.2530    1.2760 N.am  248  VAL248     -0.1977
    186  CA       -36.8390   21.9440    2.1710 C.3   248  VAL248      0.1596
    187  C        -37.1270   20.4470    2.1630 C.2   248  VAL248      0.2287
    188  O        -38.2430   20.0200    2.4790 O.2   248  VAL248     -0.2864
    189  CB       -38.1030   22.7380    1.7860 C.3   248  VAL248      0.0276
    190  CG1      -37.9140   24.2250    2.0550 C.3   248  VAL248      0.0022
    191  CG2      -38.4600   22.4950    0.3280 C.3   248  VAL248      0.0022
    192  N        -37.0070   17.8410    3.9870 N.3   250  ILE250     -0.1245
    193  CA       -37.0730   17.1680    5.2810 C.3   250  ILE250      0.1561
    194  C        -38.0600   16.0170    5.1700 C.2   250  ILE250      0.2260
    195  O        -39.2010   16.2130    4.7320 O.2   250  ILE250     -0.2867
    196  CB       -37.5030   18.1390    6.3920 C.3   250  ILE250      0.0252
    197  CG1      -36.7310   19.4540    6.2940 C.3   250  ILE250      0.0019
    198  CG2      -37.3230   17.4910    7.7610 C.3   250  ILE250      0.0019
    199  CD1      -37.6020   20.6820    6.4190 C.3   250  ILE250      0.0001
    200  N        -28.4890   11.6570    1.1280 N.3   282  HIS282     -0.1241
    201  CA       -28.1640   11.5470    2.5420 C.3   282  HIS282      0.1621
    202  C        -28.7230   12.7400    3.3050 C.2   282  HIS282      0.2264
    203  O        -28.9960   13.8020    2.7390 O.2   282  HIS282     -0.2867
    204  CB       -26.6490   11.4150    2.7720 C.3   282  HIS282      0.0745
    205  CG       -25.8340   12.5100    2.1530 C.ar  282  HIS282      0.0817
    206  ND1      -25.5060   12.5290    0.8150 N.ar  282  HIS282     -0.2268
    207  CD2      -25.2570   13.6070    2.6980 C.ar  282  HIS282      0.1154
    208  CE1      -24.7740   13.5990    0.5580 C.ar  282  HIS282      0.1986
    209  NE2      -24.6090   14.2710    1.6840 N.ar  282  HIS282     -0.2212
    210  N        -17.1870   19.0920   12.5530 N.3   292  ALA292     -0.1245
    211  CA       -16.9700   18.2330   11.3990 C.3   292  ALA292      0.1562
    212  C        -16.3310   19.0160   10.2590 C.2   292  ALA292      0.2260
    213  O        -16.4340   20.2430   10.1800 O.2   292  ALA292     -0.2867
    214  CB       -18.2850   17.6030   10.9170 C.3   292  ALA292      0.0290
    215  N        -16.1280   17.4890   -1.1180 N.3   296  ASN296     -0.1240
    216  CA       -16.5130   16.6550   -2.2460 C.3   296  ASN296      0.1653
    217  C        -15.2730   16.3180   -3.0630 C.2   296  ASN296      0.2266
    218  O        -14.3880   17.1590   -3.2440 O.2   296  ASN296     -0.2867
    219  CB       -17.5410   17.3670   -3.1280 C.3   296  ASN296      0.1155
    220  CG       -18.8900   17.5210   -2.4480 C.2   296  ASN296      0.2627
    221  OD1      -19.0590   17.1550   -1.2840 O.2   296  ASN296     -0.2716
    222  ND2      -19.8570   18.0730   -3.1710 N.am  296  ASN296     -0.0877
@<TRIPOS>BOND
     1   125   126    2
     2   125   124    1
     3   124   127    1
     4   124   123    1
     5   127   128    1
     6   129   128   ar
     7   128   130   ar
     8   117   116    2
     9   123   116   am
    10   116   115    1
    11   115   114    1
    12   115   118    1
    13   118   119    1
    14   175   174    2
    15   176   174   am
    16   174   173    1
    17   218   217    2
    18   222   220   am
    19   219   220    1
    20   219   216    1
    21   173   172    1
    22   217   216    1
    23   168   169    1
    24   119   120    1
    25   220   221    2
    26   172   169    1
    27   216   215    1
    28   169   170    1
    29   122   120   ar
    30   120   121   ar
    31   106   105    1
    32   106   107    2
    33   131   132    1
    34   183   182    1
    35   105   108    1
    36   105   104    1
    37   182   184    1
    38   182   181    1
    39   108   109    1
    40   177   170   am
    41   177   178    1
    42   170   171    2
    43   132   135    1
    44   132   133    1
    45   111   109   ar
    46   111   113   ar
    47   181   178    1
    48   135   136    1
    49   109   110   ar
    50   191   189    1
    51   208   206   ar
    52   208   209   ar
    53    63    64   ar
    54    63    61   ar
    55    66    64   ar
    56    66    68   ar
    57   178   179    1
    58   133   134    2
    59   206   205   ar
    60   200   201    1
    61    64    62   ar
    62   113   112   ar
    63   185   179   am
    64   185   186    1
    65    68    67   ar
    66    61    60   ar
    67   179   180    2
    68   110   112   ar
    69   209   207   ar
    70   189   190    1
    71   189   186    1
    72   205   207   ar
    73   205   204    1
    74   187   186    1
    75   187   188    2
    76   201   204    1
    77   201   202    1
    78    62    60   ar
    79    62    65   ar
    80   203   202    2
    81    60    59    1
    82    67    65   ar
    83   101   100    2
    84   100    99    1
    85    53    52   ar
    86    54    52   ar
    87    55    56    1
    88   192   193    1
    89    52    51    1
    90   102    99    1
    91   102   103    1
    92    59    56    1
    93   144   142   am
    94    80    79    1
    95    51    48    1
    96    99    98    1
    97   195   194    2
    98    56    57    1
    99   137   138    1
   100   143   142    2
   101   142   141    1
   102   194   193    1
   103   193   196    1
   104    10     9    1
   105    98    89   am
   106    11     9    1
   107   166   167   ar
   108   166   164   ar
   109    50    49    2
   110    79    78   ar
   111    79    77   ar
   112    48    49    1
   113    48    47    1
   114    94    96   ar
   115    94    92   ar
   116   167   165   ar
   117   138   141    1
   118   138   139    1
   119     9     8    2
   120    57    58    2
   121    78    76   ar
   122    96    97   ar
   123   164   161   ar
   124   197   196    1
   125   197   199    1
   126   196   198    1
   127    89    90    2
   128    89    88    1
   129    77    75   ar
   130    91    92    1
   131    91    88    1
   132    28    27   ar
   133    47    44   am
   134    92    93   ar
   135    88    87    1
   136   139   140    2
   137   165   163   ar
   138     8     7    1
   139    97    95   ar
   140    76    74   ar
   141    27    29   ar
   142    27    26    1
   143   161   163   ar
   144   161   159   ar
   145    45    44    2
   146    44    43    1
   147    75    74   ar
   148   163   162   ar
   149    93    95   ar
   150     7     6    1
   151    26    25    1
   152    24    23    2
   153    46    43    1
   154    74    73    1
   155   158   159    1
   156   158   155    1
   157    87    83   am
   158   159   160   ar
   159    23    22    1
   160   156   155    1
   161   156   157    2
   162    43    42    1
   163    84    83    2
   164   155   154    1
   165    25    22    1
   166   162   160   ar
   167    83    82    1
   168     5     6    1
   169     5     2    1
   170    20    18   am
   171    22    21    1
   172    73    70    1
   173    69    70    1
   174   213   212    2
   175    39    37   ar
   176    39    40   ar
   177   212   211    1
   178    70    71    1
   179    41    40    1
   180    37    35   ar
   181    86    85    1
   182   151   152    1
   183   151   150    1
   184   214   211    1
   185    82    85    1
   186    82    81    1
   187    40    38   ar
   188     2     1    1
   189     2     3    1
   190    18    17    1
   191    18    19    2
   192   152   153    1
   193    17    16    1
   194   211   210    1
   195    35    34    1
   196    35    36   ar
   197    33    32    2
   198   150   149    1
   199     3     4    2
   200    38    36   ar
   201    71    72    2
   202    34    31    1
   203    16    13    1
   204    13    12    1
   205    13    14    1
   206    32    31    1
   207   149   146    1
   208   148   147    2
   209    31    30    1
   210    14    15    2
   211   147   146    1
   212   146   145    1
