@<TRIPOS>MOLECULE
tmp/6dqaA00.pdb
 207 198 0 0 0
SMALL
GASTEIGER

@<TRIPOS>ATOM
      1  N        -26.8660   29.4940   11.4140 N.3    63  ARG63      -0.1245
      2  CA       -28.2020   29.6590   10.8650 C.3    63  ARG63       0.1563
      3  C        -29.2250   29.0840   11.8340 C.2    63  ARG63       0.2260
      4  O        -28.9570   28.1200   12.5600 O.2    63  ARG63      -0.2867
      5  CB       -28.3220   28.9730    9.5030 C.3    63  ARG63       0.0307
      6  CG       -28.2210   27.4580    9.5730 C.3    63  ARG63       0.0489
      7  CD       -28.4590   26.8260    8.2010 C.3    63  ARG63       0.2205
      8  NE       -27.3920   27.1450    7.2590 N.pl3  63  ARG63      -0.0865
      9  CZ       -27.4050   26.8170    5.9670 C.cat  63  ARG63       0.5346
     10  NH1      -28.4330   26.1560    5.4530 N.pl3  63  ARG63       0.1354
     11  NH2      -26.3860   27.1480    5.1940 N.pl3  63  ARG63       0.1354
     12  N        -32.5580   27.0550   12.7720 N.3    65  GLN65      -0.1245
     13  CA       -33.3110   25.9290   12.2140 C.3    65  GLN65       0.1566
     14  C        -34.5420   25.6230   13.0610 C.2    65  GLN65       0.2260
     15  O        -34.4170   25.2690   14.2390 O.2    65  GLN65      -0.2867
     16  CB       -32.4300   24.6790   12.1010 C.3    65  GLN65       0.0367
     17  CG       -31.2070   24.8580   11.1890 C.3    65  GLN65       0.0905
     18  CD       -30.4530   23.5470   10.9660 C.2    65  GLN65       0.2608
     19  OE1      -30.2700   22.7590   11.8880 O.2    65  GLN65      -0.2717
     20  NE2      -30.0150   23.3200    9.7420 N.am   65  GLN65      -0.0878
     21  N        -27.1480   26.0990   13.7430 N.3   129  TYR129     -0.1241
     22  CA       -26.1510   25.2460   13.1040 C.3   129  TYR129      0.1605
     23  C        -25.0810   26.1180   12.4630 C.2   129  TYR129      0.2264
     24  O        -25.3880   26.9060   11.5680 O.2   129  TYR129     -0.2867
     25  CB       -26.8080   24.3580   12.0390 C.3   129  TYR129      0.0534
     26  CG       -26.0070   23.1400   11.6520 C.ar  129  TYR129     -0.0201
     27  CD1      -24.8650   22.7730   12.3640 C.ar  129  TYR129     -0.0009
     28  CD2      -26.3940   22.3480   10.5690 C.ar  129  TYR129     -0.0009
     29  CE1      -24.1350   21.6350   12.0140 C.ar  129  TYR129      0.0417
     30  CE2      -25.6610   21.2230   10.2000 C.ar  129  TYR129      0.0417
     31  CZ       -24.5340   20.8730   10.9340 C.ar  129  TYR129      0.1957
     32  OH       -23.8100   19.7470   10.6120 O.3   129  TYR129     -0.2866
     33  N        -23.1090   26.0650    9.8650 N.3   131  ALA131     -0.1231
     34  CA       -22.9350   25.3150    8.6310 C.3   131  ALA131      0.1694
     35  C        -22.3440   26.2300    7.5570 C.2   131  ALA131      0.2592
     36  O        -22.3410   27.4520    7.6900 O.2   131  ALA131     -0.2718
     37  CB       -24.2770   24.7110    8.1910 C.3   131  ALA131      0.0304
     38  N        -21.8000   25.6360    6.5020 N.am  132  ASP132     -0.1974
     39  CA       -21.1350   26.4020    5.4280 C.3   132  ASP132      0.1709
     40  C        -20.1060   27.4170    5.9600 C.2   132  ASP132      0.2293
     41  O        -20.0710   28.5800    5.5540 O.2   132  ASP132     -0.2864
     42  CB       -22.1630   27.0860    4.4900 C.3   132  ASP132      0.1436
     43  CG       -23.0470   28.1650    5.1720 C.2   132  ASP132      0.3671
     44  OD1      -22.5550   29.2600    5.5310 O.co2 132  ASP132     -0.2456
     45  OD2      -24.2610   27.9170    5.3390 O.co2 132  ASP132     -0.2456
     46  N        -11.8280   24.4820   -4.8720 N.3   176  LYS176     -0.1245
     47  CA       -12.6610   23.7680   -3.9070 C.3   176  LYS176      0.1561
     48  C        -11.8870   23.4490   -2.6320 C.2   176  LYS176      0.2260
     49  O        -10.8090   22.8480   -2.6820 O.2   176  LYS176     -0.2867
     50  CB       -13.2040   22.4830   -4.5250 C.3   176  LYS176      0.0271
     51  CG       -13.8990   21.5690   -3.5020 C.3   176  LYS176      0.0035
     52  CD       -15.3340   22.0460   -3.4950 C.3   176  LYS176      0.0206
     53  CE       -16.2210   21.2750   -2.5270 C.3   176  LYS176      0.1093
     54  NZ       -17.4440   22.1360   -2.3280 N.3   176  LYS176     -0.1314
     55  N        -15.2690   22.3900    3.8780 N.3   179  TRP179     -0.1241
     56  CA       -16.1950   23.1960    4.6620 C.3   179  TRP179      0.1605
     57  C        -16.2730   22.6440    6.0790 C.2   179  TRP179      0.2264
     58  O        -16.0720   21.4470    6.3000 O.2   179  TRP179     -0.2867
     59  CB       -17.5900   23.2040    4.0190 C.3   179  TRP179      0.0550
     60  CG       -17.6060   23.9070    2.6800 C.ar  179  TRP179      0.0003
     61  CD1      -17.3510   23.3500    1.4560 C.ar  179  TRP179      0.0946
     62  CD2      -17.8600   25.3000    2.4420 C.ar  179  TRP179      0.0152
     63  NE1      -17.4360   24.3100    0.4730 N.ar  179  TRP179     -0.2442
     64  CE2      -17.7470   25.5150    1.0510 C.ar  179  TRP179      0.0810
     65  CE3      -18.1790   26.3830    3.2670 C.ar  179  TRP179      0.0012
     66  CZ2      -17.9410   26.7700    0.4700 C.ar  179  TRP179      0.0191
     67  CZ3      -18.3690   27.6310    2.6880 C.ar  179  TRP179      0.0001
     68  CH2      -18.2500   27.8110    1.3030 C.ar  179  TRP179      0.0015
     69  N        -18.4200   22.3820    9.9320 N.3   181  TYR181     -0.1241
     70  CA       -19.7790   22.2890   10.4690 C.3   181  TYR181      0.1605
     71  C        -19.6850   22.2020   11.9890 C.2   181  TYR181      0.2264
     72  O        -19.1480   21.2280   12.5200 O.2   181  TYR181     -0.2867
     73  CB       -20.5220   21.0710    9.9000 C.3   181  TYR181      0.0534
     74  CG       -20.6840   21.1630    8.4010 C.ar  181  TYR181     -0.0201
     75  CD1      -21.7740   21.8210    7.8420 C.ar  181  TYR181     -0.0009
     76  CD2      -19.7240   20.6510    7.5490 C.ar  181  TYR181     -0.0009
     77  CE1      -21.9120   21.9480    6.4690 C.ar  181  TYR181      0.0417
     78  CE2      -19.8580   20.7720    6.1670 C.ar  181  TYR181      0.0417
     79  CZ       -20.9550   21.4190    5.6420 C.ar  181  TYR181      0.1957
     80  OH       -21.1010   21.5520    4.2790 O.3   181  TYR181     -0.2866
     81  N        -29.3350   19.9840   11.8290 N.3   188  SER188     -0.1202
     82  CA       -29.6070   18.9160   10.8730 C.3   188  SER188      0.2020
     83  C        -29.3980   19.3860    9.4430 C.2   188  SER188      0.2619
     84  O        -29.3120   20.5850    9.1620 O.2   188  SER188     -0.2717
     85  CB       -31.0420   18.3940   11.0370 C.3   188  SER188      0.2103
     86  OG       -31.9850   19.4120   10.7070 O.3   188  SER188     -0.2182
     87  N        -29.3420   18.4060    8.5310 N.am  189  PHE189     -0.1961
     88  CA       -29.2850   18.6690    7.0950 C.3   189  PHE189      0.1771
     89  C        -30.2730   17.7440    6.3890 C.2   189  PHE189      0.2619
     90  O        -30.3960   16.5700    6.7500 O.2   189  PHE189     -0.2715
     91  CB       -27.8300   18.5110    6.5280 C.3   189  PHE189      0.0574
     92  CG       -27.1490   17.1740    6.8280 C.ar  189  PHE189     -0.0200
     93  CD1      -26.5500   16.9310    8.0670 C.ar  189  PHE189     -0.0042
     94  CD2      -27.0440   16.1970    5.8450 C.ar  189  PHE189     -0.0042
     95  CE1      -25.8920   15.7340    8.3270 C.ar  189  PHE189     -0.0003
     96  CE2      -26.3900   14.9950    6.0870 C.ar  189  PHE189     -0.0003
     97  CZ       -25.8210   14.7480    7.3350 C.ar  189  PHE189     -0.0000
     98  N        -30.9820   18.2980    5.3980 N.am  190  CYS190     -0.1968
     99  CA       -32.0370   17.6210    4.6590 C.3   190  CYS190      0.1712
    100  C        -31.4540   16.6160    3.6710 C.2   190  CYS190      0.2296
    101  O        -30.2390   16.5340    3.4630 O.2   190  CYS190     -0.2864
    102  CB       -32.8950   18.6250    3.8860 C.3   190  CYS190      0.0983
    103  SG       -34.0200   19.6460    4.8530 S.3   190  CYS190     -0.0798
    104  N        -30.2160   15.2640    0.2950 N.3   192  HIS192     -0.1241
    105  CA       -29.6270   15.8980   -0.8800 C.3   192  HIS192      0.1621
    106  C        -28.5740   14.9740   -1.4760 C.2   192  HIS192      0.2264
    107  O        -28.1130   14.0220   -0.8350 O.2   192  HIS192     -0.2867
    108  CB       -28.9960   17.2590   -0.5280 C.3   192  HIS192      0.0745
    109  CG       -27.7700   17.1320    0.3260 C.ar  192  HIS192      0.0817
    110  ND1      -27.8370   16.8960    1.6810 N.ar  192  HIS192     -0.2268
    111  CD2      -26.4510   17.1420    0.0090 C.ar  192  HIS192      0.1154
    112  CE1      -26.6130   16.7920    2.1700 C.ar  192  HIS192      0.1986
    113  NE2      -25.7510   16.9340    1.1780 N.ar  192  HIS192     -0.2212
    114  N        -24.8860   15.5870   -4.1130 N.3   194  GLU194     -0.1231
    115  CA       -23.8810   16.6160   -4.3430 C.3   194  GLU194      0.1699
    116  C        -23.9530   17.1050   -5.7740 C.2   194  GLU194      0.2592
    117  O        -24.3590   16.3680   -6.6770 O.2   194  GLU194     -0.2718
    118  CB       -22.4660   16.1000   -4.0740 C.3   194  GLU194      0.0402
    119  CG       -22.2700   15.5030   -2.6930 C.3   194  GLU194      0.1161
    120  CD       -22.7010   16.4470   -1.5760 C.2   194  GLU194      0.3649
    121  OE1      -22.3620   17.6620   -1.6020 O.co2 194  GLU194     -0.2457
    122  OE2      -23.3900   15.9720   -0.6730 O.co2 194  GLU194     -0.2457
    123  N        -23.5280   18.3500   -5.9780 N.am  195  ASP195     -0.1974
    124  CA       -23.3200   18.8430   -7.3340 C.3   195  ASP195      0.1709
    125  C        -22.4190   17.8770   -8.0870 C.2   195  ASP195      0.2293
    126  O        -21.4860   17.3040   -7.5130 O.2   195  ASP195     -0.2864
    127  CB       -22.6910   20.2330   -7.3040 C.3   195  ASP195      0.1436
    128  CG       -23.6230   21.2810   -6.7150 C.2   195  ASP195      0.3671
    129  OD1      -23.1420   22.3770   -6.3550 O.co2 195  ASP195     -0.2456
    130  OD2      -24.8360   21.0050   -6.6000 O.co2 195  ASP195     -0.2456
    131  N        -18.5490   12.5490   -1.3930 N.3   200  SER200     -0.1217
    132  CA       -18.1270   13.4340   -0.3180 C.3   200  SER200      0.1889
    133  C        -17.4830   12.5960    0.7770 C.2   200  SER200      0.2288
    134  O        -17.8420   11.4340    0.9900 O.2   200  SER200     -0.2866
    135  CB       -19.2980   14.2680    0.2580 C.3   200  SER200      0.2089
    136  OG       -20.0200   13.5930    1.2820 O.3   200  SER200     -0.2183
    137  N        -16.2490   12.9570    4.9450 N.3   202  ASN202     -0.1240
    138  CA       -16.6520   13.7500    6.0940 C.3   202  ASN202      0.1653
    139  C        -15.8950   13.2510    7.3170 C.2   202  ASN202      0.2266
    140  O        -15.9470   12.0570    7.6160 O.2   202  ASN202     -0.2867
    141  CB       -18.1670   13.6090    6.3290 C.3   202  ASN202      0.1155
    142  CG       -18.9940   14.0390    5.1190 C.2   202  ASN202      0.2627
    143  OD1      -19.5370   15.1480    5.1080 O.2   202  ASN202     -0.2716
    144  ND2      -19.0820   13.1690    4.0840 N.am  202  ASN202     -0.0877
    145  N        -22.4860   12.3830   15.0690 N.3   210  LYS210     -0.1245
    146  CA       -23.3080   12.8860   13.9730 C.3   210  LYS210      0.1561
    147  C        -24.0860   11.6990   13.4170 C.2   210  LYS210      0.2260
    148  O        -23.4920   10.6880   13.0410 O.2   210  LYS210     -0.2867
    149  CB       -22.4330   13.5360   12.8980 C.3   210  LYS210      0.0271
    150  CG       -23.2120   14.1440   11.7170 C.3   210  LYS210      0.0035
    151  CD       -22.2550   14.6900   10.6350 C.3   210  LYS210      0.0206
    152  CE       -21.4290   15.9080   11.1420 C.3   210  LYS210      0.1093
    153  NZ       -22.2560   17.1580   11.2870 N.3   210  LYS210     -0.1314
    154  N        -26.3850    9.8430   10.6980 N.3   212  TRP212     -0.1241
    155  CA       -26.4950    9.8680    9.2440 C.3   212  TRP212      0.1605
    156  C        -27.5850    8.9210    8.7620 C.2   212  TRP212      0.2264
    157  O        -27.8030    7.8510    9.3440 O.2   212  TRP212     -0.2867
    158  CB       -25.1990    9.4080    8.5780 C.3   212  TRP212      0.0550
    159  CG       -24.0590   10.3260    8.6670 C.ar  212  TRP212      0.0003
    160  CD1      -23.2430   10.5350    9.7440 C.ar  212  TRP212      0.0946
    161  CD2      -23.5620   11.1520    7.6120 C.ar  212  TRP212      0.0152
    162  NE1      -22.2750   11.4670    9.4260 N.ar  212  TRP212     -0.2442
    163  CE2      -22.4490   11.8610    8.1240 C.ar  212  TRP212      0.0810
    164  CE3      -23.9650   11.3770    6.2910 C.ar  212  TRP212      0.0012
    165  CZ2      -21.7290   12.7750    7.3610 C.ar  212  TRP212      0.0191
    166  CZ3      -23.2450   12.2820    5.5210 C.ar  212  TRP212      0.0001
    167  CH2      -22.1300   12.9660    6.0610 C.ar  212  TRP212      0.0015
    168  N        -34.1020   20.6960   -2.7300 N.3   244  GLN244     -0.1231
    169  CA       -33.2140   20.0910   -1.7450 C.3   244  GLN244      0.1698
    170  C        -32.9960   20.9630   -0.5210 C.2   244  GLN244      0.2592
    171  O        -32.4470   20.4760    0.4710 O.2   244  GLN244     -0.2718
    172  CB       -31.8540   19.7990   -2.3730 C.3   244  GLN244      0.0381
    173  CG       -31.7530   18.4630   -3.0000 C.3   244  GLN244      0.0905
    174  CD       -30.3770   18.2130   -3.5730 C.2   244  GLN244      0.2608
    175  OE1      -30.0670   17.1020   -3.9450 O.2   244  GLN244     -0.2717
    176  NE2      -29.5390   19.2610   -3.6360 N.am  244  GLN244     -0.0878
    177  N        -33.3670   22.2410   -0.5780 N.am  245  LEU245     -0.1980
    178  CA       -33.2430   23.1030    0.5850 C.3   245  LEU245      0.1596
    179  C        -34.2900   22.7760    1.6390 C.2   245  LEU245      0.2287
    180  O        -34.1230   23.1750    2.7930 O.2   245  LEU245     -0.2864
    181  CB       -33.3590   24.5710    0.1700 C.3   245  LEU245      0.0297
    182  CG       -32.2640   25.1100   -0.7570 C.3   245  LEU245      0.0022
    183  CD1      -32.5460   26.5600   -1.1720 C.3   245  LEU245      0.0001
    184  CD2      -30.9060   25.0040   -0.0850 C.3   245  LEU245      0.0001
    185  N        -28.4110   11.6450    1.0880 N.3   280  HIS280     -0.1241
    186  CA       -28.1030   11.5340    2.5090 C.3   280  HIS280      0.1621
    187  C        -28.6940   12.7030    3.2800 C.2   280  HIS280      0.2264
    188  O        -28.9700   13.7680    2.7330 O.2   280  HIS280     -0.2867
    189  CB       -26.5870   11.4160    2.7750 C.3   280  HIS280      0.0745
    190  CG       -25.7590   12.4900    2.1450 C.ar  280  HIS280      0.0817
    191  ND1      -25.4060   12.4660    0.8120 N.ar  280  HIS280     -0.2268
    192  CD2      -25.1810   13.6000    2.6700 C.ar  280  HIS280      0.1154
    193  CE1      -24.6540   13.5200    0.5410 C.ar  280  HIS280      0.1986
    194  NE2      -24.5010   14.2210    1.6520 N.ar  280  HIS280     -0.2212
    195  N        -17.1830   19.1360   12.5530 N.3   290  ALA290     -0.1245
    196  CA       -16.9470   18.2780   11.4010 C.3   290  ALA290      0.1562
    197  C        -16.3320   19.0710   10.2550 C.2   290  ALA290      0.2260
    198  O        -16.4380   20.3000   10.1930 O.2   290  ALA290     -0.2867
    199  CB       -18.2540   17.6230   10.9140 C.3   290  ALA290      0.0290
    200  N        -16.0300   17.5770   -1.1570 N.3   294  ASN294     -0.1240
    201  CA       -16.4660   16.7630   -2.2830 C.3   294  ASN294      0.1653
    202  C        -15.2690   16.3810   -3.1410 C.2   294  ASN294      0.2266
    203  O        -14.3390   17.1730   -3.3260 O.2   294  ASN294     -0.2867
    204  CB       -17.4960   17.5130   -3.1320 C.3   294  ASN294      0.1155
    205  CG       -18.8600   17.5820   -2.4640 C.2   294  ASN294      0.2627
    206  OD1      -19.0190   17.1590   -1.3220 O.2   294  ASN294     -0.2716
    207  ND2      -19.8400   18.1300   -3.1640 N.am  294  ASN294     -0.0877
@<TRIPOS>BOND
     1   125   126    2
     2   125   124    1
     3   124   127    1
     4   124   123    1
     5   127   128    1
     6   128   130   ar
     7   128   129   ar
     8   117   116    2
     9   123   116   am
    10   116   115    1
    11    46    47    1
    12    50    47    1
    13    50    51    1
    14   115   114    1
    15   115   118    1
    16   118   119    1
    17   175   174    2
    18    47    48    1
    19   176   174   am
    20   174   173    1
    21    51    52    1
    22    52    53    1
    23   203   202    2
    24   207   205   am
    25   202   201    1
    26   204   205    1
    27   204   201    1
    28   173   172    1
    29   168   169    1
    30   119   120    1
    31    49    48    2
    32    53    54    1
    33   205   206    2
    34   172   169    1
    35   201   200    1
    36   169   170    1
    37   121   120   ar
    38   120   122   ar
    39   106   105    1
    40   106   107    2
    41   131   132    1
    42   183   182    1
    43   105   108    1
    44   105   104    1
    45   182   184    1
    46   182   181    1
    47   177   170   am
    48   177   178    1
    49   108   109    1
    50   170   171    2
    51   132   135    1
    52   132   133    1
    53   111   109   ar
    54   111   113   ar
    55   181   178    1
    56   135   136    1
    57   109   110   ar
    58    66    64   ar
    59    66    68   ar
    60    63    64   ar
    61    63    61   ar
    62   193   191   ar
    63   193   194   ar
    64   178   179    1
    65   133   134    2
    66   191   190   ar
    67    64    62   ar
    68   185   186    1
    69   113   112   ar
    70    68    67   ar
    71    61    60   ar
    72   179   180    2
    73   194   192   ar
    74   110   112   ar
    75   190   192   ar
    76   190   189    1
    77    62    60   ar
    78    62    65   ar
    79   186   189    1
    80   186   187    1
    81    60    59    1
    82    67    65   ar
    83   188   187    2
    84   101   100    2
    85   100    99    1
    86    55    56    1
    87   102    99    1
    88   102   103    1
    89    59    56    1
    90   144   142   am
    91    80    79    1
    92    42    43    1
    93    42    39    1
    94    99    98    1
    95    56    57    1
    96   137   138    1
    97   143   142    2
    98   142   141    1
    99    43    45   ar
   100    43    44   ar
   101    11     9    1
   102    98    89   am
   103    39    40    1
   104    39    38    1
   105    10     9    1
   106   166   167   ar
   107   166   164   ar
   108    41    40    2
   109    79    78   ar
   110    79    77   ar
   111    94    96   ar
   112    94    92   ar
   113     9     8    2
   114   167   165   ar
   115    57    58    2
   116    96    97   ar
   117   138   141    1
   118   138   139    1
   119    78    76   ar
   120   164   161   ar
   121    89    90    2
   122    89    88    1
   123    77    75   ar
   124    38    35   am
   125    91    92    1
   126    91    88    1
   127    92    93   ar
   128    88    87    1
   129     8     7    1
   130   139   140    2
   131    97    95   ar
   132   165   163   ar
   133    76    74   ar
   134    35    36    2
   135    35    34    1
   136   161   163   ar
   137   161   159   ar
   138    75    74   ar
   139    93    95   ar
   140   163   162   ar
   141    37    34    1
   142     7     6    1
   143    74    73    1
   144    87    83   am
   145   158   159    1
   146   158   155    1
   147    34    33    1
   148   159   160   ar
   149   156   155    1
   150   156   157    2
   151    84    83    2
   152   155   154    1
   153   162   160   ar
   154    83    82    1
   155     5     6    1
   156     5     2    1
   157    20    18   am
   158    73    70    1
   159    69    70    1
   160   198   197    2
   161    30    28   ar
   162    30    31   ar
   163   197   196    1
   164    70    71    1
   165    28    26   ar
   166    32    31    1
   167   151   152    1
   168   151   150    1
   169    86    85    1
   170     2     1    1
   171     2     3    1
   172    82    85    1
   173    82    81    1
   174   199   196    1
   175    31    29   ar
   176    18    17    1
   177    18    19    2
   178   152   153    1
   179    17    16    1
   180   196   195    1
   181    24    23    2
   182    26    25    1
   183    26    27   ar
   184   150   149    1
   185     3     4    2
   186    71    72    2
   187    29    27   ar
   188    25    22    1
   189    16    13    1
   190    13    12    1
   191    13    14    1
   192    23    22    1
   193   149   146    1
   194   148   147    2
   195    14    15    2
   196    22    21    1
   197   147   146    1
   198   146   145    1
