@<TRIPOS>MOLECULE
tmp/6dqbA00.pdb
 199 192 0 0 0
SMALL
GASTEIGER

@<TRIPOS>ATOM
      1  N        -26.6990   29.5170   11.6490 N.3    63  ARG63      -0.1245
      2  CA       -28.0180   29.7300   11.0810 C.3    63  ARG63       0.1563
      3  C        -29.0700   29.0970   11.9790 C.2    63  ARG63       0.2260
      4  O        -28.8320   28.0660   12.6140 O.2    63  ARG63      -0.2867
      5  CB       -28.1020   29.1660    9.6640 C.3    63  ARG63       0.0307
      6  CG       -27.9970   27.6620    9.5780 C.3    63  ARG63       0.0489
      7  CD       -27.9230   27.2230    8.1210 C.3    63  ARG63       0.2205
      8  NE       -26.6770   27.6430    7.4860 N.pl3  63  ARG63      -0.0865
      9  CZ       -26.4530   27.5940    6.1740 C.cat  63  ARG63       0.5346
     10  NH1      -27.3980   27.1480    5.3550 N.pl3  63  ARG63       0.1354
     11  NH2      -25.2870   27.9920    5.6830 N.pl3  63  ARG63       0.1354
     12  N        -32.3610   27.0360   12.7710 N.3    65  GLN65      -0.1245
     13  CA       -33.1080   25.9350   12.1660 C.3    65  GLN65       0.1566
     14  C        -34.3730   25.6710   12.9750 C.2    65  GLN65       0.2260
     15  O        -34.3060   25.4350   14.1870 O.2    65  GLN65      -0.2867
     16  CB       -32.2420   24.6710   12.0790 C.3    65  GLN65       0.0367
     17  CG       -31.0280   24.8130   11.1840 C.3    65  GLN65       0.0905
     18  CD       -30.3040   23.4960   10.9880 C.2    65  GLN65       0.2608
     19  OE1      -30.1430   22.7220   11.9350 O.2    65  GLN65      -0.2717
     20  NE2      -29.8850   23.2290    9.7630 N.am   65  GLN65      -0.0878
     21  N        -40.6040   23.3310   10.3120 N.3    69  GLU69      -0.1245
     22  CA       -41.0400   24.4080    9.4220 C.3    69  GLU69       0.1567
     23  C        -41.9690   23.8950    8.3220 C.2    69  GLU69       0.2260
     24  O        -42.9130   24.5900    7.9270 O.2    69  GLU69      -0.2867
     25  CB       -39.8290   25.1260    8.8220 C.3    69  GLU69       0.0388
     26  CG       -38.8760   24.2400    8.0270 C.3    69  GLU69       0.1160
     27  CD       -37.7440   25.0250    7.3710 C.2    69  GLU69       0.3649
     28  OE1      -36.9300   24.4050    6.6500 O.co2  69  GLU69      -0.2457
     29  OE2      -37.6670   26.2570    7.5770 O.co2  69  GLU69      -0.2457
     30  N        -27.0500   26.0310   13.8430 N.3   126  TYR126     -0.1241
     31  CA       -26.0400   25.1910   13.2140 C.3   126  TYR126      0.1605
     32  C        -24.9420   26.0780   12.6480 C.2   126  TYR126      0.2264
     33  O        -25.2220   26.9430   11.8150 O.2   126  TYR126     -0.2867
     34  CB       -26.6730   24.3480   12.0920 C.3   126  TYR126      0.0534
     35  CG       -25.8980   23.1200   11.6760 C.ar  126  TYR126     -0.0201
     36  CD1      -24.7950   22.6950   12.3980 C.ar  126  TYR126     -0.0009
     37  CD2      -26.2880   22.3700   10.5650 C.ar  126  TYR126     -0.0009
     38  CE1      -24.0830   21.5530   12.0130 C.ar  126  TYR126      0.0417
     39  CE2      -25.5770   21.2340   10.1700 C.ar  126  TYR126      0.0417
     40  CZ       -24.4810   20.8310   10.9190 C.ar  126  TYR126      0.1957
     41  OH       -23.7860   19.6980   10.5350 O.3   126  TYR126     -0.2866
     42  N        -22.8920   25.9660   10.1480 N.3   128  ALA128     -0.1231
     43  CA       -22.7320   25.1300    8.9700 C.3   128  ALA128      0.1694
     44  C        -22.1090   25.9170    7.8260 C.2   128  ALA128      0.2592
     45  O        -22.2620   27.1390    7.7350 O.2   128  ALA128     -0.2718
     46  CB       -24.0770   24.5560    8.5380 C.3   128  ALA128      0.0304
     47  N        -21.4120   25.2000    6.9410 N.am  129  ASP129     -0.1974
     48  CA       -20.7930   25.8060    5.7560 C.3   129  ASP129      0.1709
     49  C        -19.8140   26.9140    6.1410 C.2   129  ASP129      0.2293
     50  O        -19.8070   27.9930    5.5510 O.2   129  ASP129     -0.2864
     51  CB       -21.8520   26.3330    4.7870 C.3   129  ASP129      0.1436
     52  CG       -22.7270   25.2350    4.2220 C.2   129  ASP129      0.3671
     53  OD1      -22.2950   24.0660    4.2280 O.co2 129  ASP129     -0.2456
     54  OD2      -23.8430   25.5450    3.7550 O.co2 129  ASP129     -0.2456
     55  N        -15.2180   22.2690    3.9420 N.3   177  TRP177     -0.1241
     56  CA       -16.1370   23.0850    4.7240 C.3   177  TRP177      0.1605
     57  C        -16.2450   22.5420    6.1450 C.2   177  TRP177      0.2264
     58  O        -16.0960   21.3430    6.3780 O.2   177  TRP177     -0.2867
     59  CB       -17.5320   23.1190    4.0840 C.3   177  TRP177      0.0550
     60  CG       -17.5460   23.7860    2.7390 C.ar  177  TRP177      0.0003
     61  CD1      -17.3660   23.1830    1.5240 C.ar  177  TRP177      0.0946
     62  CD2      -17.7370   25.1810    2.4680 C.ar  177  TRP177      0.0152
     63  NE1      -17.4320   24.1170    0.5180 N.ar  177  TRP177     -0.2442
     64  CE2      -17.6580   25.3500    1.0700 C.ar  177  TRP177      0.0810
     65  CE3      -17.9630   26.3040    3.2720 C.ar  177  TRP177      0.0012
     66  CZ2      -17.8030   26.5970    0.4570 C.ar  177  TRP177      0.0191
     67  CZ3      -18.1050   27.5460    2.6590 C.ar  177  TRP177      0.0001
     68  CH2      -18.0260   27.6780    1.2680 C.ar  177  TRP177      0.0015
     69  N        -18.3460   22.3060    9.9870 N.3   179  TYR179     -0.1241
     70  CA       -19.6950   22.2070   10.5420 C.3   179  TYR179      0.1605
     71  C        -19.5790   22.1080   12.0600 C.2   179  TYR179      0.2264
     72  O        -19.0580   21.1120   12.5680 O.2   179  TYR179     -0.2867
     73  CB       -20.4420   20.9950    9.9940 C.3   179  TYR179      0.0534
     74  CG       -20.5600   21.0880    8.4900 C.ar  179  TYR179     -0.0201
     75  CD1      -21.6330   21.7380    7.9080 C.ar  179  TYR179     -0.0009
     76  CD2      -19.5690   20.5810    7.6700 C.ar  179  TYR179     -0.0009
     77  CE1      -21.7290   21.8730    6.5350 C.ar  179  TYR179      0.0417
     78  CE2      -19.6600   20.7040    6.2910 C.ar  179  TYR179      0.0417
     79  CZ       -20.7470   21.3510    5.7350 C.ar  179  TYR179      0.1957
     80  OH       -20.8510   21.4920    4.3680 O.3   179  TYR179     -0.2866
     81  N        -29.2230   19.9490   11.8400 N.3   186  SER186     -0.1202
     82  CA       -29.4310   18.8640   10.8890 C.3   186  SER186      0.2020
     83  C        -29.2010   19.3140    9.4550 C.2   186  SER186      0.2619
     84  O        -29.0610   20.5020    9.1690 O.2   186  SER186     -0.2717
     85  CB       -30.8490   18.3010   11.0160 C.3   186  SER186      0.2103
     86  OG       -31.8190   19.2730   10.6830 O.3   186  SER186     -0.2182
     87  N        -29.1690   18.3270    8.5480 N.am  187  PHE187     -0.1961
     88  CA       -29.1340   18.5940    7.1130 C.3   187  PHE187      0.1771
     89  C        -30.1930   17.7480    6.4190 C.2   187  PHE187      0.2619
     90  O        -30.3750   16.5720    6.7570 O.2   187  PHE187     -0.2715
     91  CB       -27.7360   18.3300    6.4940 C.3   187  PHE187      0.0574
     92  CG       -27.0880   17.0060    6.8740 C.ar  187  PHE187     -0.0200
     93  CD1      -26.4910   16.8280    8.1260 C.ar  187  PHE187     -0.0042
     94  CD2      -27.0080   15.9650    5.9430 C.ar  187  PHE187     -0.0042
     95  CE1      -25.8530   15.6320    8.4580 C.ar  187  PHE187     -0.0003
     96  CE2      -26.3820   14.7620    6.2570 C.ar  187  PHE187     -0.0003
     97  CZ       -25.8150   14.5790    7.5210 C.ar  187  PHE187     -0.0000
     98  N        -30.9070   18.3710    5.4740 N.am  188  CYS188     -0.1968
     99  CA       -31.9840   17.7700    4.6880 C.3   188  CYS188      0.1712
    100  C        -31.4450   16.7630    3.6670 C.2   188  CYS188      0.2296
    101  O        -30.2530   16.7220    3.3510 O.2   188  CYS188     -0.2864
    102  CB       -32.7750   18.8410    3.9210 C.3   188  CYS188      0.0983
    103  SG       -33.9200   19.8230    4.9100 S.3   188  CYS188     -0.0798
    104  N        -30.3180   15.2500    0.3770 N.3   190  HIS190     -0.1226
    105  CA       -29.7550   15.8410   -0.8420 C.3   190  HIS190      0.1752
    106  C        -28.7350   14.8830   -1.4390 C.2   190  HIS190      0.2596
    107  O        -28.2810   13.9420   -0.7790 O.2   190  HIS190     -0.2718
    108  CB       -29.0810   17.1800   -0.5360 C.3   190  HIS190      0.0759
    109  CG       -27.8510   17.0280    0.3100 C.ar  190  HIS190      0.0818
    110  ND1      -27.9230   16.8140    1.6700 N.ar  190  HIS190     -0.2268
    111  CD2      -26.5300   17.0030   -0.0040 C.ar  190  HIS190      0.1154
    112  CE1      -26.7030   16.6750    2.1620 C.ar  190  HIS190      0.1986
    113  NE2      -25.8370   16.7830    1.1730 N.ar  190  HIS190     -0.2212
    114  N        -28.3730   15.1450   -2.6970 N.am  191  ILE191     -0.1966
    115  CA       -27.1740   14.5780   -3.3050 C.3   191  ILE191      0.1727
    116  C        -26.2350   15.7270   -3.6420 C.2   191  ILE191      0.2616
    117  O        -26.6320   16.8920   -3.6560 O.2   191  ILE191     -0.2715
    118  CB       -27.4710   13.7340   -4.5610 C.3   191  ILE191      0.0290
    119  CG1      -28.3110   14.5280   -5.5680 C.3   191  ILE191      0.0022
    120  CG2      -28.1350   12.4140   -4.1420 C.3   191  ILE191      0.0023
    121  CD1      -28.6100   13.7820   -6.8810 C.3   191  ILE191      0.0001
    122  N        -24.9780   15.3890   -3.9240 N.am  192  GLU192     -0.1977
    123  CA       -23.9770   16.4120   -4.2070 C.3   192  GLU192      0.1602
    124  C        -24.0820   16.9050   -5.6430 C.2   192  GLU192      0.2287
    125  O        -24.5350   16.1960   -6.5460 O.2   192  GLU192     -0.2864
    126  CB       -22.5630   15.8830   -3.9760 C.3   192  GLU192      0.0415
    127  CG       -22.3370   15.2950   -2.6010 C.3   192  GLU192      0.1163
    128  CD       -22.7580   16.2390   -1.4760 C.2   192  GLU192      0.3649
    129  OE1      -23.4890   15.7950   -0.5680 O.co2 192  GLU192     -0.2457
    130  OE2      -22.3750   17.4280   -1.5190 O.co2 192  GLU192     -0.2457
    131  N        -18.6710   12.3520   -1.3960 N.3   198  SER198     -0.1217
    132  CA       -18.2300   13.2300   -0.3220 C.3   198  SER198      0.1889
    133  C        -17.5740   12.3890    0.7680 C.2   198  SER198      0.2288
    134  O        -17.9030   11.2140    0.9420 O.2   198  SER198     -0.2866
    135  CB       -19.3900   14.0670    0.2600 C.3   198  SER198      0.2089
    136  OG       -20.1030   13.3920    1.2990 O.3   198  SER198     -0.2183
    137  N        -16.3560   12.8390    4.9590 N.3   200  ASN200     -0.1240
    138  CA       -16.7210   13.6350    6.1190 C.3   200  ASN200      0.1653
    139  C        -15.9670   13.0980    7.3250 C.2   200  ASN200      0.2266
    140  O        -15.9910   11.8910    7.5830 O.2   200  ASN200     -0.2867
    141  CB       -18.2300   13.5570    6.3600 C.3   200  ASN200      0.1155
    142  CG       -19.0390   13.8830    5.1160 C.2   200  ASN200      0.2627
    143  OD1      -19.5930   14.9790    5.0140 O.2   200  ASN200     -0.2716
    144  ND2      -19.1100   12.9410    4.1560 N.am  200  ASN200     -0.0877
    145  N        -22.5100   12.3010   15.0640 N.3   208  LYS208     -0.1245
    146  CA       -23.3550   12.7920   13.9830 C.3   208  LYS208      0.1561
    147  C        -24.1130   11.5870   13.4330 C.2   208  LYS208      0.2260
    148  O        -23.5030   10.5860   13.0350 O.2   208  LYS208     -0.2867
    149  CB       -22.5010   13.4850   12.9190 C.3   208  LYS208      0.0271
    150  CG       -23.2790   14.1040   11.7200 C.3   208  LYS208      0.0035
    151  CD       -22.3270   14.6280   10.6220 C.3   208  LYS208      0.0206
    152  CE       -21.4970   15.8150   11.1320 C.3   208  LYS208      0.1093
    153  NZ       -22.3470   17.0460   11.2200 N.3   208  LYS208     -0.1314
    154  N        -26.3830    9.7290   10.6950 N.3   210  TRP210     -0.1241
    155  CA       -26.5520    9.7660    9.2450 C.3   210  TRP210      0.1605
    156  C        -27.6440    8.8070    8.7890 C.2   210  TRP210      0.2264
    157  O        -27.8450    7.7390    9.3740 O.2   210  TRP210     -0.2867
    158  CB       -25.2710    9.3350    8.5200 C.3   210  TRP210      0.0550
    159  CG       -24.1160   10.2450    8.6290 C.ar  210  TRP210      0.0003
    160  CD1      -23.3120   10.4210    9.7190 C.ar  210  TRP210      0.0946
    161  CD2      -23.5980   11.0900    7.5990 C.ar  210  TRP210      0.0152
    162  NE1      -22.3300   11.3440    9.4400 N.ar  210  TRP210     -0.2442
    163  CE2      -22.4740   11.7580    8.1370 C.ar  210  TRP210      0.0810
    164  CE3      -23.9690   11.3350    6.2700 C.ar  210  TRP210      0.0012
    165  CZ2      -21.7350   12.6730    7.4090 C.ar  210  TRP210      0.0191
    166  CZ3      -23.2210   12.2510    5.5290 C.ar  210  TRP210      0.0001
    167  CH2      -22.1090   12.9040    6.1000 C.ar  210  TRP210      0.0015
    168  N        -34.1900   20.7310   -2.6510 N.3   242  GLN242     -0.1231
    169  CA       -33.2900   20.1340   -1.6650 C.3   242  GLN242      0.1698
    170  C        -33.0820   21.0020   -0.4320 C.2   242  GLN242      0.2592
    171  O        -32.6400   20.4850    0.6030 O.2   242  GLN242     -0.2718
    172  CB       -31.9210   19.8580   -2.2910 C.3   242  GLN242      0.0381
    173  CG       -31.8630   18.6060   -3.0990 C.3   242  GLN242      0.0905
    174  CD       -30.4660   18.3030   -3.5940 C.2   242  GLN242      0.2608
    175  OE1      -30.1230   17.1460   -3.8020 O.2   242  GLN242     -0.2717
    176  NE2      -29.6500   19.3460   -3.7800 N.am  242  GLN242     -0.0878
    177  N        -33.3600   22.3040   -0.5160 N.am  243  LEU243     -0.1980
    178  CA       -33.1940   23.1760    0.6400 C.3   243  LEU243      0.1596
    179  C        -34.2030   22.8950    1.7410 C.2   243  LEU243      0.2287
    180  O        -34.0090   23.3780    2.8610 O.2   243  LEU243     -0.2864
    181  CB       -33.3160   24.6470    0.2250 C.3   243  LEU243      0.0297
    182  CG       -32.3000   25.1750   -0.7950 C.3   243  LEU243      0.0022
    183  CD1      -32.6150   26.6220   -1.1670 C.3   243  LEU243      0.0001
    184  CD2      -30.8760   25.0580   -0.2640 C.3   243  LEU243      0.0001
    185  N        -28.5440   11.5460    1.1340 N.3   278  HIS278     -0.1241
    186  CA       -28.2440   11.4240    2.5630 C.3   278  HIS278      0.1621
    187  C        -28.8010   12.6140    3.3300 C.2   278  HIS278      0.2264
    188  O        -29.0290   13.6940    2.7760 O.2   278  HIS278     -0.2867
    189  CB       -26.7280   11.2740    2.8150 C.3   278  HIS278      0.0745
    190  CG       -25.8900   12.3440    2.1800 C.ar  278  HIS278      0.0817
    191  ND1      -25.5720   12.3300    0.8350 N.ar  278  HIS278     -0.2268
    192  CD2      -25.2770   13.4360    2.7000 C.ar  278  HIS278      0.1154
    193  CE1      -24.8240   13.3850    0.5510 C.ar  278  HIS278      0.1986
    194  NE2      -24.6410   14.0810    1.6620 N.ar  278  HIS278     -0.2212
    195  N        -17.1360   18.9400   12.5590 N.3   288  ALA288     -0.1245
    196  CA       -16.9260   18.0850   11.3960 C.3   288  ALA288      0.1562
    197  C        -16.3070   18.8870   10.2560 C.2   288  ALA288      0.2260
    198  O        -16.4150   20.1170   10.1970 O.2   288  ALA288     -0.2867
    199  CB       -18.2510   17.4540   10.9300 C.3   288  ALA288      0.0290
@<TRIPOS>BOND
     1   121   119    1
     2   125   124    2
     3   124   123    1
     4   119   118    1
     5   118   120    1
     6   118   115    1
     7   123   126    1
     8   123   122    1
     9   126   127    1
    10   122   116   am
    11   175   174    2
    12   176   174   am
    13   117   116    2
    14   116   115    1
    15   174   173    1
    16   115   114    1
    17   173   172    1
    18   114   106   am
    19   168   169    1
    20   127   128    1
    21   172   169    1
    22   169   170    1
    23   130   128   ar
    24   128   129   ar
    25   106   105    1
    26   106   107    2
    27   131   132    1
    28   183   182    1
    29   105   108    1
    30   105   104    1
    31   182   184    1
    32   182   181    1
    33   108   109    1
    34   177   170   am
    35   177   178    1
    36   170   171    2
    37   132   135    1
    38   132   133    1
    39   111   109   ar
    40   111   113   ar
    41   181   178    1
    42   135   136    1
    43   109   110   ar
    44    66    64   ar
    45    66    68   ar
    46    63    64   ar
    47    63    61   ar
    48   193   191   ar
    49   193   194   ar
    50   178   179    1
    51   133   134    2
    52   191   190   ar
    53    64    62   ar
    54   185   186    1
    55   113   112   ar
    56    68    67   ar
    57    61    60   ar
    58   194   192   ar
    59   110   112   ar
    60   179   180    2
    61   190   192   ar
    62   190   189    1
    63    62    60   ar
    64    62    65   ar
    65   186   189    1
    66   186   187    1
    67    67    65   ar
    68    60    59    1
    69   188   187    2
    70   101   100    2
    71   100    99    1
    72    54    52   ar
    73   102    99    1
    74   102   103    1
    75    55    56    1
    76    59    56    1
    77   144   142   am
    78    52    53   ar
    79    52    51    1
    80    80    79    1
    81    99    98    1
    82    56    57    1
    83    51    48    1
    84   137   138    1
    85   143   142    2
    86   142   141    1
    87    10     9    1
    88    98    89   am
    89   166   167   ar
    90   166   164   ar
    91    50    49    2
    92    11     9    1
    93    79    78   ar
    94    79    77   ar
    95    48    49    1
    96    48    47    1
    97    94    96   ar
    98    94    92   ar
    99   167   165   ar
   100   138   141    1
   101   138   139    1
   102    57    58    2
   103     9     8    2
   104    96    97   ar
   105   164   161   ar
   106    78    76   ar
   107    89    90    2
   108    89    88    1
   109    91    92    1
   110    91    88    1
   111    77    75   ar
   112    28    27   ar
   113    92    93   ar
   114    47    44   am
   115    88    87    1
   116   139   140    2
   117    27    29   ar
   118    27    26    1
   119   165   163   ar
   120     8     7    1
   121    97    95   ar
   122   161   163   ar
   123   161   159   ar
   124    76    74   ar
   125    45    44    2
   126    44    43    1
   127    75    74   ar
   128    24    23    2
   129    26    25    1
   130     7     6    1
   131    93    95   ar
   132   163   162   ar
   133    23    22    1
   134    74    73    1
   135   158   159    1
   136   158   155    1
   137    46    43    1
   138    87    83   am
   139   159   160   ar
   140   156   155    1
   141   156   157    2
   142    25    22    1
   143    43    42    1
   144    84    83    2
   145   155   154    1
   146    22    21    1
   147   162   160   ar
   148    83    82    1
   149     6     5    1
   150     5     2    1
   151    20    18   am
   152    69    70    1
   153    73    70    1
   154    39    37   ar
   155    39    40   ar
   156   198   197    2
   157   197   196    1
   158    41    40    1
   159    70    71    1
   160    37    35   ar
   161   151   152    1
   162   151   150    1
   163    86    85    1
   164    82    85    1
   165    82    81    1
   166    40    38   ar
   167   199   196    1
   168    18    17    1
   169    18    19    2
   170     2     1    1
   171     2     3    1
   172   152   153    1
   173    17    16    1
   174   196   195    1
   175    35    34    1
   176    35    36   ar
   177   150   149    1
   178    33    32    2
   179     3     4    2
   180    38    36   ar
   181    71    72    2
   182    16    13    1
   183    34    31    1
   184    13    12    1
   185    13    14    1
   186    32    31    1
   187   149   146    1
   188    14    15    2
   189   148   147    2
   190    31    30    1
   191   147   146    1
   192   146   145    1
