@<TRIPOS>MOLECULE
tmp/6dqqA00.pdb
 80 78 0 0 0
SMALL
GASTEIGER

@<TRIPOS>ATOM
      1  N          1.7310   77.0410   22.3130 N.3    32  GLU32      -0.1231
      2  CA         3.1200   77.1410   22.7170 C.3    32  GLU32       0.1699
      3  C          3.6540   75.8290   23.2840 C.2    32  GLU32       0.2593
      4  O          4.7790   75.8490   23.7890 O.2    32  GLU32      -0.2718
      5  CB         3.2880   78.2620   23.7540 C.3    32  GLU32       0.0402
      6  CG         2.4720   78.0670   25.0440 C.3    32  GLU32       0.1161
      7  CD         2.4740   79.2760   25.9960 C.2    32  GLU32       0.3649
      8  OE1        3.5570   79.7310   26.4260 O.co2  32  GLU32      -0.2457
      9  OE2        1.3940   79.7720   26.2960 O.co2  32  GLU32      -0.2457
     10  N          2.9020   74.7240   23.1790 N.am   33  GLY33      -0.1942
     11  CA         3.3190   73.4710   23.8440 C.3    33  GLY33       0.2014
     12  C          3.6060   72.3150   22.8950 C.2    33  GLY33       0.2638
     13  O          3.2860   72.3580   21.7200 O.2    33  GLY33      -0.2714
     14  N          4.2380   71.2700   23.4270 N.am   34  VAL34      -0.1977
     15  CA         4.5430   70.0620   22.6620 C.3    34  VAL34       0.1596
     16  C          3.2710   69.3580   22.1560 C.2    34  VAL34       0.2287
     17  O          3.2000   69.0000   20.9760 O.2    34  VAL34      -0.2864
     18  CB         5.4660   69.1280   23.4550 C.3    34  VAL34       0.0276
     19  CG1        5.5420   67.7300   22.8450 C.3    34  VAL34       0.0022
     20  CG2        6.8660   69.7310   23.5340 C.3    34  VAL34       0.0022
     21  N          2.1930   71.2290   19.1010 N.3    37  SER37      -0.1217
     22  CA         3.0920   71.1810   17.9940 C.3    37  SER37       0.1889
     23  C          3.0230   69.8100   17.3110 C.2    37  SER37       0.2288
     24  O          3.0880   69.7120   16.0930 O.2    37  SER37      -0.2866
     25  CB         4.5330   71.5680   18.4050 C.3    37  SER37       0.2089
     26  OG         5.1480   70.5020   19.0710 O.3    37  SER37      -0.2183
     27  N          3.6350   82.8970   20.8910 N.3   110  TYR110     -0.1241
     28  CA         4.9430   82.9000   20.2460 C.3   110  TYR110      0.1605
     29  C          5.1680   84.1030   19.3060 C.2   110  TYR110      0.2264
     30  O          6.0050   84.0610   18.4270 O.2   110  TYR110     -0.2867
     31  CB         5.1350   81.6080   19.4520 C.3   110  TYR110      0.0534
     32  CG         6.0170   80.5860   20.1130 C.ar  110  TYR110     -0.0201
     33  CD1        7.3910   80.6920   20.0630 C.ar  110  TYR110     -0.0009
     34  CD2        5.4840   79.4840   20.7560 C.ar  110  TYR110     -0.0009
     35  CE1        8.2120   79.7440   20.6510 C.ar  110  TYR110      0.0417
     36  CE2        6.2930   78.5280   21.3480 C.ar  110  TYR110      0.0417
     37  CZ         7.6650   78.6550   21.2870 C.ar  110  TYR110      0.1957
     38  OH         8.4660   77.6780   21.7670 O.3   110  TYR110     -0.2866
     39  N         10.0450   75.6160   13.2440 N.3   162  HIS162     -0.1226
     40  CA         9.2010   75.7030   14.4400 C.3   162  HIS162      0.1752
     41  C          7.7220   75.7990   14.0280 C.2   162  HIS162      0.2595
     42  O          7.4070   76.3800   12.9740 O.2   162  HIS162     -0.2718
     43  CB         9.6050   76.9380   15.2780 C.3   162  HIS162      0.0759
     44  CG         8.8610   77.0780   16.5600 C.ar  162  HIS162      0.0818
     45  ND1        9.1020   76.2540   17.6540 N.ar  162  HIS162     -0.2268
     46  CD2        7.8510   77.8840   16.9280 C.ar  162  HIS162      0.1154
     47  CE1        8.3030   76.6040   18.6530 C.ar  162  HIS162      0.1986
     48  NE2        7.5510   77.5900   18.2430 N.ar  162  HIS162     -0.2212
     49  N          6.8160   75.3650   14.9260 N.am  163  GLN163     -0.1979
     50  CA         5.3630   75.3820   14.6410 C.3   163  GLN163      0.1601
     51  C          4.8490   76.8000   14.3940 C.2   163  GLN163      0.2287
     52  O          3.9120   76.9970   13.6240 O.2   163  GLN163     -0.2864
     53  CB         4.5490   74.6810   15.7420 C.3   163  GLN163      0.0394
     54  CG         4.6010   75.3400   17.1180 C.3   163  GLN163      0.0908
     55  CD         3.5020   74.8690   18.0540 C.2   163  GLN163      0.2608
     56  OE1        2.4650   74.3430   17.6380 O.2   163  GLN163     -0.2717
     57  NE2        3.7220   75.0450   19.3500 N.am  163  GLN163     -0.0878
     58  N         11.7660   72.8980   25.8510 N.3   421  HIS421     -0.1226
     59  CA        12.4670   72.1110   24.8170 C.3   421  HIS421      0.1752
     60  C         12.8900   73.0760   23.7120 C.2   421  HIS421      0.2596
     61  O         12.1240   73.9720   23.3390 O.2   421  HIS421     -0.2718
     62  CB        11.5860   70.9590   24.2840 C.3   421  HIS421      0.0759
     63  CG        11.5300   69.7980   25.2200 C.ar  421  HIS421      0.0818
     64  ND1       12.6390   69.0060   25.5000 N.ar  421  HIS421     -0.2268
     65  CD2       10.5250   69.3190   25.9810 C.ar  421  HIS421      0.1154
     66  CE1       12.3040   68.0830   26.3840 C.ar  421  HIS421      0.1986
     67  NE2       11.0060   68.2570   26.7030 N.ar  421  HIS421     -0.2212
     68  N         14.0930   72.8620   23.1980 N.am  422  ALA422     -0.1966
     69  CA        14.6340   73.6710   22.1410 C.3   422  ALA422      0.1728
     70  C         13.6800   73.7390   20.9360 C.2   422  ALA422      0.2616
     71  O         13.1430   72.6890   20.4710 O.2   422  ALA422     -0.2715
     72  CB        15.9490   73.0880   21.7070 C.3   422  ALA422      0.0334
     73  N         13.5000   74.9560   20.4100 N.am  423  ASP423     -0.1971
     74  CA        12.8130   75.2020   19.1630 C.3   423  ASP423      0.1709
     75  C         13.7560   75.0040   17.9580 C.2   423  ASP423      0.2293
     76  O         13.3020   74.7740   16.8390 O.2   423  ASP423     -0.2864
     77  CB        12.1600   76.5800   19.1970 C.3   423  ASP423      0.1436
     78  CG        11.0870   76.6610   20.2720 C.2   423  ASP423      0.3671
     79  OD1       10.4750   75.6210   20.5580 O.co2 423  ASP423     -0.2456
     80  OD2       10.8830   77.7550   20.8340 O.co2 423  ASP423     -0.2456
@<TRIPOS>BOND
     1    42    41    2
     2    39    40    1
     3    52    51    2
     4    41    40    1
     5    41    49   am
     6    51    50    1
     7    40    43    1
     8    50    49    1
     9    50    53    1
    10    43    44    1
    11    53    54    1
    12    24    23    2
    13    44    46   ar
    14    44    45   ar
    15    76    75    2
    16    46    48   ar
    17    54    55    1
    18    23    22    1
    19    56    55    2
    20    45    47   ar
    21    75    74    1
    22    22    25    1
    23    22    21    1
    24    55    57   am
    25    48    47   ar
    26    25    26    1
    27    30    29    2
    28    74    77    1
    29    74    73    1
    30    77    78    1
    31    29    28    1
    32    31    32    1
    33    31    28    1
    34    33    32   ar
    35    33    35   ar
    36    32    34   ar
    37    28    27    1
    38    78    79   ar
    39    78    80   ar
    40    73    70   am
    41    71    70    2
    42    35    37   ar
    43    34    36   ar
    44    70    69    1
    45    17    16    2
    46    37    36   ar
    47    37    38    1
    48    72    69    1
    49    13    12    2
    50    69    68    1
    51    16    15    1
    52     1     2    1
    53    15    14    1
    54    15    18    1
    55     2     3    1
    56     2     5    1
    57    19    18    1
    58    12    14   am
    59    12    11    1
    60    10     3   am
    61    10    11    1
    62    68    60   am
    63     3     4    2
    64    61    60    2
    65    18    20    1
    66    60    59    1
    67     5     6    1
    68    62    59    1
    69    62    63    1
    70    59    58    1
    71     6     7    1
    72    63    64   ar
    73    63    65   ar
    74    64    66   ar
    75    65    67   ar
    76     7     9   ar
    77     7     8   ar
    78    66    67   ar
