@<TRIPOS>MOLECULE
tmp/6dqtA00.pdb
 116 116 0 0 0
SMALL
GASTEIGER

@<TRIPOS>ATOM
      1  N         23.0350   13.8100   22.4260 N.3    32  GLU32      -0.1231
      2  CA        21.6450   13.7250   22.8880 C.3    32  GLU32       0.1699
      3  C         21.1470   15.0530   23.4710 C.2    32  GLU32       0.2593
      4  O         20.0460   15.0730   24.0650 O.2    32  GLU32      -0.2718
      5  CB        21.5020   12.6170   23.9350 C.3    32  GLU32       0.0402
      6  CG        22.2440   12.8900   25.2310 C.3    32  GLU32       0.1161
      7  CD        22.2700   11.6980   26.1970 C.2    32  GLU32       0.3649
      8  OE1       21.2160   11.3600   26.7800 O.co2  32  GLU32      -0.2457
      9  OE2       23.3540   11.0850   26.3610 O.co2  32  GLU32      -0.2457
     10  N         21.8890   16.1440   23.2730 N.am   33  GLY33      -0.1942
     11  CA        21.5520   17.4270   23.9300 C.3    33  GLY33       0.2014
     12  C         21.2050   18.5460   22.9610 C.2    33  GLY33       0.2638
     13  O         21.5600   18.5220   21.7850 O.2    33  GLY33      -0.2714
     14  N         20.5250   19.5680   23.4960 N.am   34  VAL34      -0.1977
     15  CA        20.1890   20.7860   22.7530 C.3    34  VAL34       0.1596
     16  C         21.4450   21.5050   22.2400 C.2    34  VAL34       0.2287
     17  O         21.4970   21.8440   21.0540 O.2    34  VAL34      -0.2864
     18  CB        19.2730   21.6980   23.5930 C.3    34  VAL34       0.0276
     19  CG1       19.0590   23.0780   22.9760 C.3    34  VAL34       0.0022
     20  CG2       17.9220   21.0390   23.8110 C.3    34  VAL34       0.0022
     21  N         22.6310   19.5860   19.1660 N.3    37  SER37      -0.1217
     22  CA        21.7130   19.6240   18.0500 C.3    37  SER37       0.1889
     23  C         21.7170   21.0240   17.4130 C.2    37  SER37       0.2288
     24  O         21.6150   21.1010   16.2250 O.2    37  SER37      -0.2866
     25  CB        20.3120   19.2050   18.4180 C.3    37  SER37       0.2089
     26  OG        19.6220   20.2730   19.0320 O.3    37  SER37      -0.2183
     27  N         22.3530   21.2370   13.3710 N.3    41  TYR41      -0.1241
     28  CA        21.3220   21.7130   12.4790 C.3    41  TYR41       0.1605
     29  C         21.8410   22.7950   11.5250 C.2    41  TYR41       0.2264
     30  O         21.2060   23.0690   10.5180 O.2    41  TYR41      -0.2867
     31  CB        20.1620   22.2840   13.2880 C.3    41  TYR41       0.0534
     32  CG        19.1440   21.2870   13.7790 C.ar   41  TYR41      -0.0201
     33  CD1       18.7910   20.1870   13.0180 C.ar   41  TYR41      -0.0009
     34  CD2       18.5120   21.4560   15.0060 C.ar   41  TYR41      -0.0009
     35  CE1       17.8230   19.2930   13.4420 C.ar   41  TYR41       0.0417
     36  CE2       17.5730   20.5480   15.4720 C.ar   41  TYR41       0.0417
     37  CZ        17.2100   19.4790   14.6680 C.ar   41  TYR41       0.1957
     38  OH        16.2730   18.5810   15.0690 O.3    41  TYR41      -0.2866
     39  N         21.0040    7.9650   20.9170 N.3   110  TYR110     -0.1241
     40  CA        19.6510    7.9750   20.3000 C.3   110  TYR110      0.1605
     41  C         19.4230    6.7680   19.3710 C.2   110  TYR110      0.2264
     42  O         18.5830    6.7890   18.4560 O.2   110  TYR110     -0.2867
     43  CB        19.4730    9.2700   19.5160 C.3   110  TYR110      0.0534
     44  CG        18.6320   10.3130   20.1900 C.ar  110  TYR110     -0.0201
     45  CD1       17.2660   10.2880   20.0760 C.ar  110  TYR110     -0.0009
     46  CD2       19.2040   11.3410   20.9120 C.ar  110  TYR110     -0.0009
     47  CE1       16.4700   11.2430   20.6860 C.ar  110  TYR110      0.0417
     48  CE2       18.4250   12.3040   21.5310 C.ar  110  TYR110      0.0417
     49  CZ        17.0540   12.2640   21.4000 C.ar  110  TYR110      0.1957
     50  OH        16.2750   13.2500   21.9130 O.3   110  TYR110     -0.2866
     51  N         14.6540   15.3130   13.3290 N.3   162  HIS162     -0.1226
     52  CA        15.5340   15.2300   14.5160 C.3   162  HIS162      0.1752
     53  C         16.9950   15.1160   14.0800 C.2   162  HIS162      0.2595
     54  O         17.2730   14.5420   13.0130 O.2   162  HIS162     -0.2718
     55  CB        15.1500   13.9700   15.3220 C.3   162  HIS162      0.0759
     56  CG        15.8800   13.8360   16.6060 C.ar  162  HIS162      0.0818
     57  ND1       15.6070   14.6350   17.7090 N.ar  162  HIS162     -0.2268
     58  CD2       16.8650   13.0110   16.9730 C.ar  162  HIS162      0.1154
     59  CE1       16.3930   14.2780   18.7030 C.ar  162  HIS162      0.1986
     60  NE2       17.1740   13.2860   18.2750 N.ar  162  HIS162     -0.2212
     61  N         17.9190   15.5380   14.9530 N.am  163  GLN163     -0.1979
     62  CA        19.3690   15.5010   14.6460 C.3   163  GLN163      0.1601
     63  C         19.8760   14.0790   14.4020 C.2   163  GLN163      0.2287
     64  O         20.7710   13.8940   13.6100 O.2   163  GLN163     -0.2864
     65  CB        20.1850   16.1790   15.7430 C.3   163  GLN163      0.0394
     66  CG        20.2130   15.4520   17.0870 C.3   163  GLN163      0.0908
     67  CD        21.4960   15.7670   17.8310 C.2   163  GLN163      0.2608
     68  OE1       22.4190   16.3850   17.2850 O.2   163  GLN163     -0.2717
     69  NE2       21.5720   15.3420   19.0840 N.am  163  GLN163     -0.0878
     70  N         13.5400   17.4940   29.3490 N.3   420  TRP420     -0.1227
     71  CA        13.2820   16.8130   28.0670 C.3   420  TRP420      0.1737
     72  C         12.4610   17.7450   27.1860 C.2   420  TRP420      0.2595
     73  O         11.4130   18.2240   27.6110 O.2   420  TRP420     -0.2718
     74  CB        12.5780   15.4720   28.2640 C.3   420  TRP420      0.0564
     75  CG        12.5450   14.6080   27.0430 C.ar  420  TRP420      0.0003
     76  CD1       11.4500   14.2710   26.2980 C.ar  420  TRP420      0.0946
     77  CD2       13.6650   13.9650   26.4280 C.ar  420  TRP420      0.0152
     78  NE1       11.8120   13.4410   25.2780 N.ar  420  TRP420     -0.2442
     79  CE2       13.1690   13.2650   25.3090 C.ar  420  TRP420      0.0810
     80  CE3       15.0420   13.9620   26.6870 C.ar  420  TRP420      0.0012
     81  CZ2       13.9940   12.5070   24.4850 C.ar  420  TRP420      0.0191
     82  CZ3       15.8560   13.2080   25.8730 C.ar  420  TRP420      0.0001
     83  CH2       15.3350   12.4900   24.7950 C.ar  420  TRP420      0.0015
     84  N         13.0110   18.0230   26.0010 N.am  421  HIS421     -0.1961
     85  CA        12.3890   18.8350   24.9720 C.3   421  HIS421      0.1787
     86  C         11.9660   17.9100   23.8260 C.2   421  HIS421      0.2620
     87  O         12.7350   17.0280   23.3970 O.2   421  HIS421     -0.2715
     88  CB        13.3620   19.9300   24.4980 C.3   421  HIS421      0.0785
     89  CG        13.8610   20.7820   25.6090 C.ar  421  HIS421      0.0821
     90  ND1       13.2360   21.9480   25.9780 N.ar  421  HIS421     -0.2267
     91  CD2       14.9030   20.6240   26.4550 C.ar  421  HIS421      0.1154
     92  CE1       13.8670   22.4810   27.0040 C.ar  421  HIS421      0.1986
     93  NE2       14.8890   21.6810   27.3270 N.ar  421  HIS421     -0.2212
     94  N         10.7370   18.1100   23.3630 N.am  422  ALA422     -0.1963
     95  CA        10.1320   17.2970   22.3280 C.3   422  ALA422      0.1728
     96  C         11.0370   17.2070   21.0930 C.2   422  ALA422      0.2616
     97  O         11.5930   18.2260   20.6050 O.2   422  ALA422     -0.2715
     98  CB         8.8140   17.8880   21.9610 C.3   422  ALA422      0.0334
     99  N         11.1890   15.9780   20.5890 N.am  423  ASP423     -0.1971
    100  CA        11.9070   15.6980   19.3410 C.3   423  ASP423      0.1709
    101  C         10.9850   15.8730   18.1290 C.2   423  ASP423      0.2293
    102  O         11.4520   16.0510   17.0190 O.2   423  ASP423     -0.2864
    103  CB        12.5600   14.3170   19.3920 C.3   423  ASP423      0.1436
    104  CG        13.6340   14.2470   20.4630 C.2   423  ASP423      0.3671
    105  OD1       14.2570   15.3120   20.7410 O.co2 423  ASP423     -0.2456
    106  OD2       13.8750   13.1490   20.9890 O.co2 423  ASP423     -0.2456
    107  N         13.6680   25.8720   18.0320 N.3   510  HIS510     -0.1241
    108  CA        14.9060   25.6330   17.2900 C.3   510  HIS510      0.1621
    109  C         15.4010   26.9700   16.7830 C.2   510  HIS510      0.2264
    110  O         14.5690   27.8170   16.4240 O.2   510  HIS510     -0.2867
    111  CB        14.6560   24.7330   16.0750 C.3   510  HIS510      0.0745
    112  CG        14.4220   23.3060   16.4150 C.ar  510  HIS510      0.0817
    113  ND1       15.0510   22.7020   17.5010 N.ar  510  HIS510     -0.2268
    114  CD2       13.6660   22.3570   15.8110 C.ar  510  HIS510      0.1154
    115  CE1       14.6580   21.4350   17.5770 C.ar  510  HIS510      0.1986
    116  NE2       13.8180   21.1920   16.5360 N.ar  510  HIS510     -0.2212
@<TRIPOS>BOND
     1    30    29    2
     2    29    28    1
     3    28    31    1
     4    28    27    1
     5    54    53    2
     6    33    35   ar
     7    33    32   ar
     8    31    32    1
     9    51    52    1
    10    35    37   ar
    11    64    63    2
    12    32    34   ar
    13    53    52    1
    14    53    61   am
    15    63    62    1
    16    52    55    1
    17    62    61    1
    18    62    65    1
    19    37    38    1
    20    37    36   ar
    21    34    36   ar
    22    55    56    1
    23    65    66    1
    24   114   112   ar
    25   114   116   ar
    26   111   112    1
    27   111   108    1
    28    24    23    2
    29   112   113   ar
    30   110   109    2
    31   116   115   ar
    32    56    58   ar
    33    56    57   ar
    34   109   108    1
    35    58    60   ar
    36   102   101    2
    37    66    67    1
    38    68    67    2
    39   108   107    1
    40    23    22    1
    41   113   115   ar
    42    57    59   ar
    43    67    69   am
    44    22    25    1
    45    22    21    1
    46   101   100    1
    47    60    59   ar
    48    25    26    1
    49    42    41    2
    50   100   103    1
    51   100    99    1
    52    41    40    1
    53   103   104    1
    54    43    44    1
    55    43    40    1
    56    45    44   ar
    57    45    47   ar
    58    44    46   ar
    59    40    39    1
    60   104   105   ar
    61   104   106   ar
    62    99    96   am
    63    97    96    2
    64    47    49   ar
    65    46    48   ar
    66    17    16    2
    67    96    95    1
    68    49    48   ar
    69    49    50    1
    70    13    12    2
    71    98    95    1
    72    16    15    1
    73    95    94    1
    74     1     2    1
    75    15    14    1
    76    15    18    1
    77     2     3    1
    78     2     5    1
    79    12    14   am
    80    12    11    1
    81    19    18    1
    82    10     3   am
    83    10    11    1
    84    94    86   am
    85    87    86    2
    86     3     4    2
    87    18    20    1
    88    86    85    1
    89     5     6    1
    90    81    83   ar
    91    81    79   ar
    92    88    85    1
    93    88    89    1
    94    83    82   ar
    95    85    84    1
    96     6     7    1
    97    78    79   ar
    98    78    76   ar
    99    79    77   ar
   100    89    90   ar
   101    89    91   ar
   102    82    80   ar
   103    90    92   ar
   104    84    72   am
   105     7     9   ar
   106     7     8   ar
   107    76    75   ar
   108    77    80   ar
   109    77    75   ar
   110    91    93   ar
   111    92    93   ar
   112    75    74    1
   113    72    73    2
   114    72    71    1
   115    71    74    1
   116    71    70    1
