@<TRIPOS>MOLECULE
tmp/6drtB00.pdb
 48 43 0 0 0
SMALL
GASTEIGER

@<TRIPOS>ATOM
      1  N          4.6450   -2.6350  -25.2560 N.3    36  GLY36      -0.1210
      2  CA         3.8610   -2.1690  -26.3830 C.3    36  GLY36       0.1956
      3  C          2.9670   -3.1970  -27.0360 C.2    36  GLY36       0.2612
      4  O          2.4160   -2.9200  -28.1050 O.2    36  GLY36      -0.2717
      5  N          2.7960   -4.3710  -26.4310 N.am   37  THR37      -0.1952
      6  CA         1.9620   -5.4150  -27.0100 C.3    37  THR37       0.1897
      7  C          0.4890   -5.2770  -26.6480 C.2    37  THR37       0.2313
      8  O         -0.3470   -5.9580  -27.2530 O.2    37  THR37      -0.2863
      9  CB         2.4580   -6.7980  -26.5720 C.3    37  THR37       0.1794
     10  OG1        2.3630   -6.9120  -25.1470 O.3    37  THR37      -0.2208
     11  CG2        3.9030   -7.0030  -26.9970 C.3    37  THR37       0.0378
     12  N         -2.7260   -2.3810  -25.6200 N.3    39  TYR39      -0.1241
     13  CA        -3.1880   -1.0020  -25.6080 C.3    39  TYR39       0.1605
     14  C         -4.6270   -0.9620  -25.1180 C.2    39  TYR39       0.2264
     15  O         -5.4010   -1.8960  -25.3430 O.2    39  TYR39      -0.2867
     16  CB        -3.0750   -0.3670  -27.0070 C.3    39  TYR39       0.0534
     17  CG        -3.7590    0.9760  -27.1590 C.ar   39  TYR39      -0.0201
     18  CD1       -3.1250    2.1510  -26.7720 C.ar   39  TYR39      -0.0009
     19  CD2       -5.0310    1.0710  -27.7110 C.ar   39  TYR39      -0.0009
     20  CE1       -3.7460    3.3810  -26.9180 C.ar   39  TYR39       0.0417
     21  CE2       -5.6590    2.2940  -27.8600 C.ar   39  TYR39       0.0417
     22  CZ        -5.0130    3.4460  -27.4620 C.ar   39  TYR39       0.1957
     23  OH        -5.6380    4.6640  -27.6110 O.3    39  TYR39      -0.2866
     24  N         -4.6380    4.9920  -30.9260 N.3   107  ILE107     -0.1245
     25  CA        -4.4170    4.0860  -32.0510 C.3   107  ILE107      0.1561
     26  C         -5.5500    4.2180  -33.0630 C.2   107  ILE107      0.2260
     27  O         -6.7170    3.9700  -32.7230 O.2   107  ILE107     -0.2867
     28  CB        -4.2850    2.6300  -31.5770 C.3   107  ILE107      0.0252
     29  CG1       -2.9310    2.4010  -30.9040 C.3   107  ILE107      0.0019
     30  CG2       -4.4750    1.6690  -32.7430 C.3   107  ILE107      0.0019
     31  CD1       -2.6760    0.9540  -30.5400 C.3   107  ILE107      0.0001
     32  N         -3.0510   -7.1830  -35.6700 N.3   206  ALA206     -0.1245
     33  CA        -3.5030   -6.8540  -34.3260 C.3   206  ALA206      0.1562
     34  C         -4.9720   -7.2260  -34.1980 C.2   206  ALA206      0.2260
     35  O         -5.6740   -7.4110  -35.1950 O.2   206  ALA206     -0.2867
     36  CB        -3.2900   -5.3700  -34.0060 C.3   206  ALA206      0.0290
     37  N         -6.5220   -3.1940  -27.6700 N.3   217  VAL217     -0.1245
     38  CA        -5.8000   -3.5930  -28.8710 C.3   217  VAL217      0.1561
     39  C         -4.6330   -4.4720  -28.4480 C.2   217  VAL217      0.2260
     40  O         -3.8190   -4.0720  -27.6080 O.2   217  VAL217     -0.2867
     41  CB        -5.3090   -2.3760  -29.6750 C.3   217  VAL217      0.0252
     42  CG1       -4.5920   -2.8320  -30.9350 C.3   217  VAL217      0.0019
     43  CG2       -6.4770   -1.4650  -30.0230 C.3   217  VAL217      0.0019
     44  N         -1.4380   -7.0250  -29.7940 N.3   219  ALA219     -0.1245
     45  CA        -0.5860   -7.4290  -30.9010 C.3   219  ALA219      0.1562
     46  C         -0.6480   -8.9390  -31.1000 C.2   219  ALA219      0.2260
     47  O         -0.9080   -9.7040  -30.1680 O.2   219  ALA219     -0.2867
     48  CB         0.8570   -6.9930  -30.6530 C.3   219  ALA219      0.0290
@<TRIPOS>BOND
     1    32    33    1
     2    35    34    2
     3    33    34    1
     4    33    36    1
     5    26    27    2
     6    26    25    1
     7    30    28    1
     8    25    28    1
     9    25    24    1
    10    28    29    1
    11    46    45    1
    12    46    47    2
    13    42    41    1
    14    29    31    1
    15    45    48    1
    16    45    44    1
    17    43    41    1
    18    41    38    1
    19    38    39    1
    20    38    37    1
    21    39    40    2
    22     4     3    2
    23    21    19   ar
    24    21    22   ar
    25    19    17   ar
    26    23    22    1
    27    22    20   ar
    28     8     7    2
    29    17    16    1
    30    17    18   ar
    31     3     5   am
    32     3     2    1
    33     6     7    1
    34     6     9    1
    35     6     5    1
    36    16    13    1
    37    11     9    1
    38    20    18   ar
    39     9    10    1
    40     2     1    1
    41    12    13    1
    42    13    14    1
    43    15    14    2
