@<TRIPOS>MOLECULE
tmp/6drtC00.pdb
 55 51 0 0 0
SMALL
GASTEIGER

@<TRIPOS>ATOM
      1  N         -1.8490  -45.9970    2.7740 N.3    36  GLY36      -0.1210
      2  CA        -2.8900  -46.9060    3.2090 C.3    36  GLY36       0.1956
      3  C         -3.4050  -46.6970    4.6140 C.2    36  GLY36       0.2613
      4  O         -4.1020  -47.5720    5.1350 O.2    36  GLY36      -0.2717
      5  N         -3.0910  -45.5670    5.2470 N.am   37  THR37      -0.1938
      6  CA        -3.5620  -45.3180    6.6040 C.3    37  THR37       0.2028
      7  C         -4.9640  -44.7250    6.6420 C.2    37  THR37       0.2643
      8  O         -5.6010  -44.7470    7.7010 O.2    37  THR37      -0.2714
      9  CB        -2.5960  -44.3860    7.3380 C.3    37  THR37       0.1808
     10  OG1       -2.4600  -43.1610    6.6060 O.3    37  THR37      -0.2208
     11  CG2       -1.2300  -45.0410    7.4830 C.3    37  THR37       0.0379
     12  N         -5.4580  -44.2030    5.5210 N.am   38  THR38      -0.1936
     13  CA        -6.7520  -43.5410    5.4640 C.3    38  THR38       0.2028
     14  C         -7.5470  -44.0700    4.2800 C.2    38  THR38       0.2642
     15  O         -6.9960  -44.2850    3.1970 O.2    38  THR38      -0.2714
     16  CB        -6.5900  -42.0170    5.3500 C.3    38  THR38       0.1808
     17  OG1       -5.7520  -41.5460    6.4120 O.3    38  THR38      -0.2208
     18  CG2       -7.9390  -41.3220    5.4360 C.3    38  THR38       0.0379
     19  N         -8.8450  -44.2780    4.4950 N.am   39  TYR39      -0.1973
     20  CA        -9.7550  -44.7520    3.4640 C.3    39  TYR39       0.1639
     21  C        -11.0520  -43.9650    3.5500 C.2    39  TYR39       0.2290
     22  O        -11.5090  -43.6270    4.6450 O.2    39  TYR39      -0.2864
     23  CB       -10.0280  -46.2550    3.6160 C.3    39  TYR39       0.0560
     24  CG       -11.2240  -46.7740    2.8470 C.ar   39  TYR39      -0.0198
     25  CD1      -11.1050  -47.1720    1.5210 C.ar   39  TYR39      -0.0009
     26  CD2      -12.4680  -46.8900    3.4560 C.ar   39  TYR39      -0.0009
     27  CE1      -12.1970  -47.6580    0.8200 C.ar   39  TYR39       0.0417
     28  CE2      -13.5620  -47.3710    2.7640 C.ar   39  TYR39       0.0417
     29  CZ       -13.4220  -47.7540    1.4480 C.ar   39  TYR39       0.1957
     30  OH       -14.5130  -48.2350    0.7620 O.3    39  TYR39      -0.2866
     31  N        -13.9590  -51.2510    2.1890 N.3   107  ILE107     -0.1245
     32  CA       -13.8580  -51.7510    3.5570 C.3   107  ILE107      0.1561
     33  C        -15.2680  -51.8010    4.1380 C.2   107  ILE107      0.2260
     34  O        -15.8510  -50.7390    4.4140 O.2   107  ILE107     -0.2867
     35  CB       -12.9350  -50.8740    4.4140 C.3   107  ILE107      0.0252
     36  CG1      -11.5330  -50.8220    3.8060 C.3   107  ILE107      0.0019
     37  CG2      -12.8780  -51.3990    5.8400 C.3   107  ILE107      0.0019
     38  CD1      -10.5590  -49.9820    4.5990 C.3   107  ILE107      0.0001
     39  N         -8.6860  -50.3480   13.7830 N.3   206  ALA206     -0.1245
     40  CA        -9.1580  -49.3400   12.8470 C.3   206  ALA206      0.1562
     41  C        -10.3660  -48.6420   13.4500 C.2   206  ALA206      0.2260
     42  O        -11.0760  -49.2090   14.2830 O.2   206  ALA206     -0.2867
     43  CB        -9.5150  -49.9510   11.4870 C.3   206  ALA206      0.0290
     44  N        -12.4030  -44.5730    7.1590 N.3   217  VAL217     -0.1245
     45  CA       -11.7630  -45.6090    7.9630 C.3   217  VAL217      0.1561
     46  C        -10.3150  -45.1970    8.1750 C.2   217  VAL217      0.2260
     47  O         -9.5880  -44.9410    7.2070 O.2   217  VAL217     -0.2867
     48  CB       -11.8520  -46.9930    7.3010 C.3   217  VAL217      0.0252
     49  CG1      -11.1230  -48.0280    8.1430 C.3   217  VAL217      0.0019
     50  CG2      -13.3060  -47.3940    7.1000 C.3   217  VAL217      0.0019
     51  N         -6.6120  -46.0530   10.2200 N.3   219  ALA219     -0.1245
     52  CA        -5.8190  -47.0480   10.9230 C.3   219  ALA219      0.1562
     53  C         -5.3530  -46.5070   12.2690 C.2   219  ALA219      0.2260
     54  O         -5.1020  -45.3080   12.4300 O.2   219  ALA219     -0.2867
     55  CB        -4.6110  -47.4660   10.0840 C.3   219  ALA219      0.0290
@<TRIPOS>BOND
     1    30    29    1
     2    27    29   ar
     3    27    25   ar
     4    29    28   ar
     5    25    24   ar
     6    31    32    1
     7    28    26   ar
     8     1     2    1
     9    24    26   ar
    10    24    23    1
    11    15    14    2
    12     2     3    1
    13    20    21    1
    14    20    23    1
    15    20    19    1
    16    21    22    2
    17    32    33    1
    18    32    35    1
    19    36    35    1
    20    36    38    1
    21    33    34    2
    22    14    19   am
    23    14    13    1
    24    35    37    1
    25     3     4    2
    26     3     5   am
    27     5     6    1
    28    16    18    1
    29    16    13    1
    30    16    17    1
    31    13    12    1
    32    12     7   am
    33     6     7    1
    34     6     9    1
    35    10     9    1
    36     7     8    2
    37    50    48    1
    38    44    45    1
    39    47    46    2
    40    48    45    1
    41    48    49    1
    42     9    11    1
    43    45    46    1
    44    55    52    1
    45    51    52    1
    46    52    53    1
    47    43    40    1
    48    53    54    2
    49    40    41    1
    50    40    39    1
    51    41    42    2
