@<TRIPOS>MOLECULE
tmp/6druA01.pdb
 146 141 0 0 0
SMALL
GASTEIGER

@<TRIPOS>ATOM
      1  N        136.2850   88.4100  455.3270 N.3   257  LEU257     -0.1245
      2  CA       135.6410   88.3790  456.6350 C.3   257  LEU257      0.1561
      3  C        134.9610   87.0180  456.7650 C.2   257  LEU257      0.2260
      4  O        133.8720   86.8120  456.2220 O.2   257  LEU257     -0.2867
      5  CB       134.6480   89.5310  456.7870 C.3   257  LEU257      0.0270
      6  CG       134.0930   89.9060  458.1700 C.3   257  LEU257      0.0019
      7  CD1      133.2780   91.1830  458.0720 C.3   257  LEU257      0.0001
      8  CD2      133.2450   88.8100  458.8030 C.3   257  LEU257      0.0001
      9  N        138.7920   90.9490  462.1710 N.3   286  TYR286     -0.1241
     10  CA       138.4680   91.2470  463.5600 C.3   286  TYR286      0.1605
     11  C        137.7640   90.0580  464.2160 C.2   286  TYR286      0.2264
     12  O        137.6720   88.9640  463.6510 O.2   286  TYR286     -0.2867
     13  CB       137.6390   92.5300  463.6450 C.3   286  TYR286      0.0534
     14  CG       136.2150   92.4580  463.1160 C.ar  286  TYR286     -0.0201
     15  CD1      135.8480   91.5680  462.1120 C.ar  286  TYR286     -0.0009
     16  CD2      135.2360   93.3020  463.6210 C.ar  286  TYR286     -0.0009
     17  CE1      134.5480   91.5190  461.6370 C.ar  286  TYR286      0.0417
     18  CE2      133.9370   93.2630  463.1510 C.ar  286  TYR286      0.0417
     19  CZ       133.5960   92.3700  462.1610 C.ar  286  TYR286      0.1957
     20  OH       132.3010   92.3300  461.6950 O.3   286  TYR286     -0.2866
     21  N        140.8440   96.6850  466.9330 N.3   325  TRP325     -0.1241
     22  CA       139.9260   97.7970  467.1050 C.3   325  TRP325      0.1605
     23  C        140.3480   98.6540  468.2950 C.2   325  TRP325      0.2264
     24  O        140.9730   98.1530  469.2350 O.2   325  TRP325     -0.2867
     25  CB       138.4890   97.3090  467.3220 C.3   325  TRP325      0.0550
     26  CG       137.7620   96.9670  466.0610 C.ar  325  TRP325      0.0003
     27  CD1      138.3080   96.5520  464.8830 C.ar  325  TRP325      0.0946
     28  CD2      136.3450   97.0130  465.8530 C.ar  325  TRP325      0.0152
     29  NE1      137.3190   96.3350  463.9540 N.ar  325  TRP325     -0.2442
     30  CE2      136.1040   96.6100  464.5260 C.ar  325  TRP325      0.0810
     31  CE3      135.2570   97.3540  466.6620 C.ar  325  TRP325      0.0012
     32  CZ2      134.8210   96.5380  463.9900 C.ar  325  TRP325      0.0191
     33  CZ3      133.9840   97.2830  466.1280 C.ar  325  TRP325      0.0001
     34  CH2      133.7770   96.8790  464.8040 C.ar  325  TRP325      0.0015
     35  N        129.6060   97.6660  470.9780 N.3   357  TRP357     -0.1241
     36  CA       129.9390   96.6380  470.0020 C.3   357  TRP357      0.1605
     37  C        129.9940   95.3020  470.7250 C.2   357  TRP357      0.2264
     38  O        130.3710   95.2410  471.8990 O.2   357  TRP357     -0.2867
     39  CB       131.2750   96.9170  469.3000 C.3   357  TRP357      0.0550
     40  CG       131.6240   95.8710  468.2910 C.ar  357  TRP357      0.0003
     41  CD1      132.5870   94.9120  468.4010 C.ar  357  TRP357      0.0946
     42  CD2      130.9880   95.6570  467.0240 C.ar  357  TRP357      0.0152
     43  NE1      132.6010   94.1230  467.2760 N.ar  357  TRP357     -0.2442
     44  CE2      131.6280   94.5600  466.4160 C.ar  357  TRP357      0.0810
     45  CE3      129.9450   96.2920  466.3430 C.ar  357  TRP357      0.0012
     46  CZ2      131.2590   94.0840  465.1600 C.ar  357  TRP357      0.0191
     47  CZ3      129.5800   95.8180  465.0960 C.ar  357  TRP357      0.0001
     48  CH2      130.2350   94.7250  464.5180 C.ar  357  TRP357      0.0015
     49  N        141.5440   99.0960  462.1680 N.3   395  ASP395     -0.1225
     50  CA       140.2120   99.2890  461.6270 C.3   395  ASP395      0.1805
     51  C        139.3390  100.0410  462.6250 C.2   395  ASP395      0.2597
     52  O        139.5710   99.9950  463.8360 O.2   395  ASP395     -0.2718
     53  CB       139.5970   97.9280  461.2910 C.3   395  ASP395      0.1424
     54  CG       138.2320   98.0360  460.6540 C.2   395  ASP395      0.3668
     55  OD1      137.3560   97.2220  461.0140 O.co2 395  ASP395     -0.2456
     56  OD2      138.0270   98.9420  459.8190 O.co2 395  ASP395     -0.2456
     57  N        138.3440  100.7560  462.0960 N.am  396  GLN396     -0.1979
     58  CA       137.2770  101.3530  462.9030 C.3   396  GLN396      0.1601
     59  C        137.8120  102.3750  463.9020 C.2   396  GLN396      0.2287
     60  O        137.3320  102.4730  465.0330 O.2   396  GLN396     -0.2864
     61  CB       136.4650  100.2720  463.6180 C.3   396  GLN396      0.0394
     62  CG       135.5500   99.5110  462.6910 C.3   396  GLN396      0.0908
     63  CD       134.1160   99.9700  462.7980 C.2   396  GLN396      0.2608
     64  OE1      133.5640  100.0520  463.8920 O.2   396  GLN396     -0.2717
     65  NE2      133.5040  100.2770  461.6610 N.am  396  GLN396     -0.0878
     66  N        131.3520  104.6350  462.9760 N.3   404  GLU404     -0.1245
     67  CA       130.1680  104.9230  462.1840 C.3   404  GLU404      0.1567
     68  C        129.6160  106.3010  462.5220 C.2   404  GLU404      0.2260
     69  O        129.9670  106.9080  463.5380 O.2   404  GLU404     -0.2867
     70  CB       129.0820  103.8610  462.3990 C.3   404  GLU404      0.0388
     71  CG       129.5520  102.4360  462.1680 C.3   404  GLU404      0.1160
     72  CD       129.6950  102.0990  460.6970 C.2   404  GLU404      0.3649
     73  OE1      129.2690  102.9150  459.8520 O.co2 404  GLU404     -0.2457
     74  OE2      130.2370  101.0180  460.3860 O.co2 404  GLU404     -0.2457
     75  N        126.6430  106.8210  463.3650 N.3   406  TYR406     -0.1241
     76  CA       125.5590  106.6180  464.3100 C.3   406  TYR406      0.1605
     77  C        126.1110  105.9780  465.5740 C.2   406  TYR406      0.2264
     78  O        127.1310  105.2830  465.5430 O.2   406  TYR406     -0.2867
     79  CB       124.4500  105.7400  463.7130 C.3   406  TYR406      0.0534
     80  CG       124.9640  104.5210  462.9770 C.ar  406  TYR406     -0.0201
     81  CD1      125.2630  103.3470  463.6560 C.ar  406  TYR406     -0.0009
     82  CD2      125.1510  104.5450  461.6000 C.ar  406  TYR406     -0.0009
     83  CE1      125.7340  102.2320  462.9840 C.ar  406  TYR406      0.0417
     84  CE2      125.6210  103.4370  460.9200 C.ar  406  TYR406      0.0417
     85  CZ       125.9100  102.2840  461.6170 C.ar  406  TYR406      0.1957
     86  OH       126.3770  101.1790  460.9440 O.3   406  TYR406     -0.2866
     87  N        126.5630  101.1920  467.9760 N.3   409  ASN409     -0.1225
     88  CA       126.9680  100.2600  466.9360 C.3   409  ASN409      0.1785
     89  C        126.7390   98.8210  467.3860 C.2   409  ASN409      0.2597
     90  O        126.7740   98.5030  468.5780 O.2   409  ASN409     -0.2718
     91  CB       128.4390  100.4790  466.5780 C.3   409  ASN409      0.1169
     92  CG       128.8330   99.8010  465.2820 C.2   409  ASN409      0.2627
     93  OD1      127.9840   99.2910  464.5520 O.2   409  ASN409     -0.2716
     94  ND2      130.1290   99.7950  464.9870 N.am  409  ASN409     -0.0877
     95  N        126.5000   97.9440  466.4140 N.am  410  GLY410     -0.1957
     96  CA       126.2450   96.5490  466.6940 C.3   410  GLY410      0.1869
     97  C        124.8270   96.2200  467.0970 C.2   410  GLY410      0.2309
     98  O        124.4760   95.0340  467.1480 O.2   410  GLY410     -0.2863
     99  N        120.0800  102.0480  465.9270 N.3   416  GLU416     -0.1245
    100  CA       121.1540  102.8340  465.3260 C.3   416  GLU416      0.1567
    101  C        120.6220  104.0860  464.6420 C.2   416  GLU416      0.2260
    102  O        121.3090  105.1130  464.6070 O.2   416  GLU416     -0.2867
    103  CB       121.9360  101.9820  464.3250 C.3   416  GLU416      0.0388
    104  CG       122.8270  100.9240  464.9560 C.3   416  GLU416      0.1160
    105  CD       123.3980   99.9620  463.9310 C.2   416  GLU416      0.3649
    106  OE1      122.8460   99.8910  462.8130 O.co2 416  GLU416     -0.2457
    107  OE2      124.3990   99.2800  464.2410 O.co2 416  GLU416     -0.2457
    108  N        141.6440  102.9520  457.9210 N.3   470  ARG470     -0.1245
    109  CA       140.4200  103.3940  457.2650 C.3   470  ARG470      0.1563
    110  C        140.1940  104.8940  457.3840 C.2   470  ARG470      0.2260
    111  O        139.1840  105.3980  456.8850 O.2   470  ARG470     -0.2867
    112  CB       139.2140  102.6490  457.8430 C.3   470  ARG470      0.0307
    113  CG       138.0790  102.4290  456.8580 C.3   470  ARG470      0.0489
    114  CD       136.9430  101.6630  457.5090 C.3   470  ARG470      0.2205
    115  NE       136.3350  102.4100  458.6030 N.pl3 470  ARG470     -0.0865
    116  CZ       135.4680  101.8920  459.4660 C.cat 470  ARG470      0.5346
    117  NH1      135.1120  100.6180  459.3640 N.pl3 470  ARG470      0.1354
    118  NH2      134.9620  102.6450  460.4320 N.pl3 470  ARG470      0.1354
    119  N        133.6540  100.4710  454.1440 N.3   487  ASP487     -0.1239
    120  CA       132.5710   99.5270  453.8880 C.3   487  ASP487      0.1674
    121  C        131.7230   99.9950  452.7110 C.2   487  ASP487      0.2266
    122  O        131.0680  101.0410  452.7830 O.2   487  ASP487     -0.2867
    123  CB       131.7100   99.3630  455.1360 C.3   487  ASP487      0.1410
    124  CG       132.4480   98.6750  456.2630 C.2   487  ASP487      0.3668
    125  OD1      133.5910   98.2260  456.0340 O.co2 487  ASP487     -0.2456
    126  OD2      131.8880   98.5850  457.3750 O.co2 487  ASP487     -0.2456
    127  N        132.2150   95.2290  449.9860 N.3   520  PHE520     -0.1227
    128  CA       132.2410   94.6420  451.3190 C.3   520  PHE520      0.1736
    129  C        130.8790   94.1050  451.7440 C.2   520  PHE520      0.2595
    130  O        130.7510   92.9150  452.0430 O.2   520  PHE520     -0.2718
    131  CB       132.7500   95.6650  452.3430 C.3   520  PHE520      0.0547
    132  CG       132.6800   95.1760  453.7600 C.ar  520  PHE520     -0.0202
    133  CD1      133.5880   94.2410  454.2290 C.ar  520  PHE520     -0.0042
    134  CD2      131.6930   95.6310  454.6160 C.ar  520  PHE520     -0.0042
    135  CE1      133.5200   93.7800  455.5280 C.ar  520  PHE520     -0.0003
    136  CE2      131.6170   95.1740  455.9160 C.ar  520  PHE520     -0.0003
    137  CZ       132.5330   94.2470  456.3730 C.ar  520  PHE520     -0.0000
    138  N        129.8560   94.9540  451.7860 N.am  521  GLU521     -0.1979
    139  CA       128.5480   94.5700  452.2950 C.3   521  GLU521      0.1602
    140  C        127.6420   94.0700  451.1790 C.2   521  GLU521      0.2287
    141  O        127.7590   94.4770  450.0210 O.2   521  GLU521     -0.2864
    142  CB       127.8680   95.7440  453.0030 C.3   521  GLU521      0.0415
    143  CG       128.3360   95.9920  454.4220 C.3   521  GLU521      0.1163
    144  CD       127.4880   97.0250  455.1360 C.2   521  GLU521      0.3649
    145  OE1      126.3850   97.3370  454.6400 O.co2 521  GLU521     -0.2457
    146  OE2      127.9250   97.5270  456.1920 O.co2 521  GLU521     -0.2457
@<TRIPOS>BOND
     1   127   128    1
     2   141   140    2
     3   140   139    1
     4   128   129    1
     5   128   131    1
     6   129   138   am
     7   129   130    2
     8   138   139    1
     9   139   142    1
    10   131   132    1
    11   121   122    2
    12   121   120    1
    13   142   143    1
    14   132   133   ar
    15   132   134   ar
    16   120   119    1
    17   120   123    1
    18   133   135   ar
    19   143   144    1
    20   134   136   ar
    21   145   144   ar
    22   123   124    1
    23   144   146   ar
    24     1     2    1
    25   135   137   ar
    26   136   137   ar
    27   125   124   ar
    28     4     3    2
    29   124   126   ar
    30     2     3    1
    31     2     5    1
    32     5     6    1
    33   113   114    1
    34   113   112    1
    35   111   110    2
    36   109   110    1
    37   109   112    1
    38   109   108    1
    39   114   115    1
    40     7     6    1
    41     6     8    1
    42   115   116    2
    43   117   116    1
    44   116   118    1
    45    56    54   ar
    46    73    72   ar
    47    74    72   ar
    48    54    55   ar
    49    54    53    1
    50    72    71    1
    51    84    82   ar
    52    84    85   ar
    53    86    85    1
    54    53    50    1
    55    82    80   ar
    56    85    83   ar
    57    50    49    1
    58    50    51    1
    59    17    15   ar
    60    17    19   ar
    61    65    63   am
    62    20    19    1
    63    57    51   am
    64    57    58    1
    65    15    14   ar
    66    19    18   ar
    67    71    70    1
    68     9    10    1
    69    67    70    1
    70    67    68    1
    71    67    66    1
    72    68    69    2
    73    51    52    2
    74    62    63    1
    75    62    61    1
    76    63    64    2
    77   106   105   ar
    78    58    61    1
    79    58    59    1
    80    80    81   ar
    81    80    79    1
    82    83    81   ar
    83    14    16   ar
    84    14    13    1
    85    18    16   ar
    86    75    76    1
    87    10    13    1
    88    10    11    1
    89    12    11    2
    90    79    76    1
    91    59    60    2
    92   105   107   ar
    93   105   104    1
    94    29    30   ar
    95    29    27   ar
    96    32    30   ar
    97    32    34   ar
    98    76    77    1
    99   103   104    1
   100   103   100    1
   101    48    47   ar
   102    48    46   ar
   103    30    28   ar
   104    93    92    2
   105   102   101    2
   106   101   100    1
   107    34    33   ar
   108    27    26   ar
   109    94    92   am
   110    47    45   ar
   111    46    44   ar
   112    92    91    1
   113   100    99    1
   114    78    77    2
   115    28    26   ar
   116    28    31   ar
   117    26    25    1
   118    33    31   ar
   119    45    42   ar
   120    95    96    1
   121    95    89   am
   122    44    42   ar
   123    44    43   ar
   124    91    88    1
   125    96    97    1
   126    21    22    1
   127    88    89    1
   128    88    87    1
   129    42    40   ar
   130    97    98    2
   131    22    25    1
   132    22    23    1
   133    43    41   ar
   134    89    90    2
   135    40    41   ar
   136    40    39    1
   137    23    24    2
   138    39    36    1
   139    36    37    1
   140    36    35    1
   141    37    38    2
