@<TRIPOS>MOLECULE
tmp/6druA11.pdb
 84 79 0 0 0
SMALL
GASTEIGER

@<TRIPOS>ATOM
      1  N        131.0310  110.4290  443.9090 N.3   158  HIS158     -0.1241
      2  CA       131.1400  110.2560  442.4590 C.3   158  HIS158      0.1621
      3  C        131.5440  111.5560  441.7660 C.2   158  HIS158      0.2264
      4  O        131.1480  111.8130  440.6260 O.2   158  HIS158     -0.2867
      5  CB       129.8360  109.7090  441.8680 C.3   158  HIS158      0.0745
      6  CG       130.0270  108.8740  440.6410 C.ar  158  HIS158      0.0817
      7  ND1      129.1070  107.9300  440.2350 N.ar  158  HIS158     -0.2268
      8  CD2      131.0290  108.8370  439.7320 C.ar  158  HIS158      0.1154
      9  CE1      129.5350  107.3490  439.1290 C.ar  158  HIS158      0.1986
     10  NE2      130.6990  107.8820  438.8020 N.ar  158  HIS158     -0.2212
     11  N        126.9980  100.0500  440.8150 N.3   493  ASP493     -0.1239
     12  CA       127.1410  101.4900  440.9970 C.3   493  ASP493      0.1674
     13  C        128.2730  101.8250  441.9590 C.2   493  ASP493      0.2266
     14  O        128.9450  102.8500  441.7930 O.2   493  ASP493     -0.2867
     15  CB       125.8250  102.0910  441.4920 C.3   493  ASP493      0.1410
     16  CG       125.8690  103.6060  441.5740 C.2   493  ASP493      0.3668
     17  OD1      126.4260  104.2410  440.6520 O.co2 493  ASP493     -0.2456
     18  OD2      125.3420  104.1640  442.5600 O.co2 493  ASP493     -0.2456
     19  N        131.7540  102.1260  440.3620 N.3   496  ALA496     -0.1245
     20  CA       131.9880  103.3600  439.6210 C.3   496  ALA496      0.1562
     21  C        132.3390  104.5250  440.5390 C.2   496  ALA496      0.2260
     22  O        133.1270  105.3980  440.1550 O.2   496  ALA496     -0.2867
     23  CB       130.7600  103.7050  438.7780 C.3   496  ALA496      0.0290
     24  N        131.9150  116.8680  436.0970 N.3   635  ASN635     -0.1240
     25  CA       132.0760  115.5400  436.6840 C.3   635  ASN635      0.1653
     26  C        131.6120  114.4550  435.7140 C.2   635  ASN635      0.2266
     27  O        130.8300  113.5650  436.0560 O.2   635  ASN635     -0.2867
     28  CB       131.3440  115.4450  438.0240 C.3   635  ASN635      0.1155
     29  CG       131.9390  116.3640  439.0780 C.2   635  ASN635      0.2627
     30  OD1      133.0470  116.1370  439.5680 O.2   635  ASN635     -0.2716
     31  ND2      131.2060  117.4170  439.4230 N.am  635  ASN635     -0.0877
     32  N        131.7730  111.1150  433.4280 N.3   637  ASN637     -0.1240
     33  CA       132.2880  109.7780  433.7060 C.3   637  ASN637      0.1653
     34  C        133.6780  109.5630  433.1240 C.2   637  ASN637      0.2266
     35  O        134.4070  108.6860  433.6000 O.2   637  ASN637     -0.2867
     36  CB       131.3320  108.7110  433.1630 C.3   637  ASN637      0.1155
     37  CG       129.9460  108.7910  433.7820 C.2   637  ASN637      0.2627
     38  OD1      129.1320  109.6310  433.4010 O.2   637  ASN637     -0.2716
     39  ND2      129.6700  107.9080  434.7380 N.am  637  ASN637     -0.0877
     40  N        135.7610  111.1410  436.1580 N.3   640  THR640     -0.1203
     41  CA       135.5340  110.5550  437.4720 C.3   640  THR640      0.1994
     42  C        135.7460  109.0470  437.4980 C.2   640  THR640      0.2617
     43  O        135.7970  108.4650  438.5880 O.2   640  THR640     -0.2717
     44  CB       134.1170  110.8770  437.9670 C.3   640  THR640      0.1784
     45  OG1      133.1520  110.2050  437.1480 O.3   640  THR640     -0.2211
     46  CG2      133.8630  112.3760  437.9230 C.3   640  THR640      0.0376
     47  N        135.8710  108.4010  436.3330 N.am  641  GLN641     -0.1979
     48  CA       136.0470  106.9540  436.2660 C.3   641  GLN641      0.1601
     49  C        137.2250  106.5360  435.3900 C.2   641  GLN641      0.2287
     50  O        137.4080  105.3360  435.1560 O.2   641  GLN641     -0.2864
     51  CB       134.7630  106.2790  435.7670 C.3   641  GLN641      0.0394
     52  CG       133.5310  106.5950  436.6050 C.3   641  GLN641      0.0908
     53  CD       132.2790  105.9140  436.0860 C.2   641  GLN641      0.2608
     54  OE1      131.1630  106.3760  436.3220 O.2   641  GLN641     -0.2717
     55  NE2      132.4600  104.8050  435.3780 N.am  641  GLN641     -0.0878
     56  N        132.0070   99.3910  434.5470 N.3   655  THR655     -0.1203
     57  CA       131.1180   99.5470  435.6900 C.3   655  THR655      0.1994
     58  C        129.6830   99.1340  435.3800 C.2   655  THR655      0.2617
     59  O        128.7570   99.5480  436.0850 O.2   655  THR655     -0.2717
     60  CB       131.1510  100.9930  436.1830 C.3   655  THR655      0.1784
     61  OG1      130.5620  101.8460  435.1930 O.3   655  THR655     -0.2211
     62  CG2      132.5870  101.4320  436.4300 C.3   655  THR655      0.0376
     63  N        129.4780   98.3230  434.3480 N.am  656  LEU656     -0.1979
     64  CA       128.1480   97.8620  433.9830 C.3   656  LEU656      0.1596
     65  C        128.1930   96.3800  433.6480 C.2   656  LEU656      0.2287
     66  O        129.2120   95.8810  433.1550 O.2   656  LEU656     -0.2864
     67  CB       127.5820   98.6430  432.7870 C.3   656  LEU656      0.0297
     68  CG       127.1980  100.0970  433.0520 C.3   656  LEU656      0.0022
     69  CD1      126.7090  100.7540  431.7720 C.3   656  LEU656      0.0001
     70  CD2      126.1360  100.1770  434.1400 C.3   656  LEU656      0.0001
     71  N        133.3930   99.0320  425.5230 N.3   662  TRP662     -0.1241
     72  CA       133.4580  100.0740  426.5350 C.3   662  TRP662      0.1605
     73  C        133.9590  101.3670  425.9050 C.2   662  TRP662      0.2264
     74  O        134.9720  101.3530  425.1830 O.2   662  TRP662     -0.2867
     75  CB       134.3620   99.6590  427.7010 C.3   662  TRP662      0.0550
     76  CG       134.1340  100.4870  428.9200 C.ar  662  TRP662      0.0003
     77  CD1      134.9850  101.4000  429.4650 C.ar  662  TRP662      0.0946
     78  CD2      132.9540  100.4990  429.7330 C.ar  662  TRP662      0.0152
     79  NE1      134.4160  101.9690  430.5790 N.ar  662  TRP662     -0.2442
     80  CE2      133.1680  101.4340  430.7640 C.ar  662  TRP662      0.0810
     81  CE3      131.7410   99.8040  429.6940 C.ar  662  TRP662      0.0012
     82  CZ2      132.2140  101.6920  431.7460 C.ar  662  TRP662      0.0191
     83  CZ3      130.7960  100.0620  430.6700 C.ar  662  TRP662      0.0001
     84  CH2      131.0380  100.9980  431.6820 C.ar  662  TRP662      0.0015
@<TRIPOS>BOND
     1    74    73    2
     2    71    72    1
     3    73    72    1
     4    72    75    1
     5    75    76    1
     6    76    77   ar
     7    76    78   ar
     8    77    79   ar
     9    81    78   ar
    10    81    83   ar
    11    78    80   ar
    12    79    80   ar
    13    83    84   ar
    14    80    82   ar
    15    84    82   ar
    16    69    68    1
    17    67    68    1
    18    67    64    1
    19    68    70    1
    20    34    35    2
    21    34    33    1
    22    66    65    2
    23    36    33    1
    24    36    37    1
    25    38    37    2
    26    32    33    1
    27    65    64    1
    28    37    39   am
    29    64    63    1
    30    63    58   am
    31    56    57    1
    32    50    49    2
    33    61    60    1
    34    55    53   am
    35    58    57    1
    36    58    59    2
    37    49    48    1
    38    57    60    1
    39    26    27    2
    40    26    25    1
    41    51    48    1
    42    51    52    1
    43    53    54    2
    44    53    52    1
    45    24    25    1
    46    40    41    1
    47    60    62    1
    48    48    47    1
    49    47    42   am
    50    25    28    1
    51    45    44    1
    52    41    42    1
    53    41    44    1
    54    42    43    2
    55    46    44    1
    56    28    29    1
    57    23    20    1
    58    10     9   ar
    59    10     8   ar
    60    29    31   am
    61    29    30    2
    62     9     7   ar
    63    20    19    1
    64    20    21    1
    65     8     6   ar
    66    22    21    2
    67     7     6   ar
    68     4     3    2
    69     6     5    1
    70    17    16   ar
    71    11    12    1
    72    12    15    1
    73    12    13    1
    74    15    16    1
    75    16    18   ar
    76     3     2    1
    77    14    13    2
    78     5     2    1
    79     2     1    1
