@<TRIPOS>MOLECULE
tmp/6druA03.pdb
 135 133 0 0 0
SMALL
GASTEIGER

@<TRIPOS>ATOM
      1  N        136.2850   88.4100  455.3270 N.3   257  LEU257     -0.1245
      2  CA       135.6410   88.3790  456.6350 C.3   257  LEU257      0.1561
      3  C        134.9610   87.0180  456.7650 C.2   257  LEU257      0.2260
      4  O        133.8720   86.8120  456.2220 O.2   257  LEU257     -0.2867
      5  CB       134.6480   89.5310  456.7870 C.3   257  LEU257      0.0270
      6  CG       134.0930   89.9060  458.1700 C.3   257  LEU257      0.0019
      7  CD1      133.2780   91.1830  458.0720 C.3   257  LEU257      0.0001
      8  CD2      133.2450   88.8100  458.8030 C.3   257  LEU257      0.0001
      9  N        141.0640   89.0400  460.0410 N.3   285  ASP285     -0.1225
     10  CA       140.1300   90.1260  460.3120 C.3   285  ASP285      0.1805
     11  C        139.8490   90.2220  461.8140 C.2   285  ASP285      0.2597
     12  O        140.5630   89.6590  462.6480 O.2   285  ASP285     -0.2718
     13  CB       138.8540   89.9320  459.4950 C.3   285  ASP285      0.1424
     14  CG       138.0870   91.2280  459.2850 C.2   285  ASP285      0.3668
     15  OD1      138.4460   92.2450  459.9170 O.co2 285  ASP285     -0.2456
     16  OD2      137.1220   91.2280  458.4920 O.co2 285  ASP285     -0.2456
     17  N        138.7920   90.9490  462.1710 N.am  286  TYR286     -0.1976
     18  CA       138.4680   91.2470  463.5600 C.3   286  TYR286      0.1639
     19  C        137.7640   90.0580  464.2160 C.2   286  TYR286      0.2290
     20  O        137.6720   88.9640  463.6510 O.2   286  TYR286     -0.2864
     21  CB       137.6390   92.5300  463.6450 C.3   286  TYR286      0.0560
     22  CG       136.2150   92.4580  463.1160 C.ar  286  TYR286     -0.0198
     23  CD1      135.8480   91.5680  462.1120 C.ar  286  TYR286     -0.0009
     24  CD2      135.2360   93.3020  463.6210 C.ar  286  TYR286     -0.0009
     25  CE1      134.5480   91.5190  461.6370 C.ar  286  TYR286      0.0417
     26  CE2      133.9370   93.2630  463.1510 C.ar  286  TYR286      0.0417
     27  CZ       133.5960   92.3700  462.1610 C.ar  286  TYR286      0.1957
     28  OH       132.3010   92.3300  461.6950 O.3   286  TYR286     -0.2866
     29  N        140.8440   96.6850  466.9330 N.3   325  TRP325     -0.1241
     30  CA       139.9260   97.7970  467.1050 C.3   325  TRP325      0.1605
     31  C        140.3480   98.6540  468.2950 C.2   325  TRP325      0.2264
     32  O        140.9730   98.1530  469.2350 O.2   325  TRP325     -0.2867
     33  CB       138.4890   97.3090  467.3220 C.3   325  TRP325      0.0550
     34  CG       137.7620   96.9670  466.0610 C.ar  325  TRP325      0.0003
     35  CD1      138.3080   96.5520  464.8830 C.ar  325  TRP325      0.0946
     36  CD2      136.3450   97.0130  465.8530 C.ar  325  TRP325      0.0152
     37  NE1      137.3190   96.3350  463.9540 N.ar  325  TRP325     -0.2442
     38  CE2      136.1040   96.6100  464.5260 C.ar  325  TRP325      0.0810
     39  CE3      135.2570   97.3540  466.6620 C.ar  325  TRP325      0.0012
     40  CZ2      134.8210   96.5380  463.9900 C.ar  325  TRP325      0.0191
     41  CZ3      133.9840   97.2830  466.1280 C.ar  325  TRP325      0.0001
     42  CH2      133.7770   96.8790  464.8040 C.ar  325  TRP325      0.0015
     43  N        146.2840   95.8730  460.9460 N.3   393  TRP393     -0.1241
     44  CA       145.0650   96.3990  460.3420 C.3   393  TRP393      0.1605
     45  C        144.3290   97.1960  461.4140 C.2   393  TRP393      0.2264
     46  O        143.6260   96.6250  462.2530 O.2   393  TRP393     -0.2867
     47  CB       144.2110   95.2580  459.7940 C.3   393  TRP393      0.0550
     48  CG       143.0100   95.6930  459.0210 C.ar  393  TRP393      0.0003
     49  CD1      142.6650   96.9680  458.6890 C.ar  393  TRP393      0.0946
     50  CD2      141.9910   94.8460  458.4750 C.ar  393  TRP393      0.0152
     51  NE1      141.4950   96.9680  457.9740 N.ar  393  TRP393     -0.2442
     52  CE2      141.0600   95.6780  457.8280 C.ar  393  TRP393      0.0810
     53  CE3      141.7770   93.4640  458.4740 C.ar  393  TRP393      0.0012
     54  CZ2      139.9310   95.1770  457.1830 C.ar  393  TRP393      0.0191
     55  CZ3      140.6570   92.9670  457.8320 C.ar  393  TRP393      0.0001
     56  CH2      139.7470   93.8220  457.1970 C.ar  393  TRP393      0.0015
     57  N        141.5440   99.0960  462.1680 N.3   395  ASP395     -0.1225
     58  CA       140.2120   99.2890  461.6270 C.3   395  ASP395      0.1805
     59  C        139.3390  100.0410  462.6250 C.2   395  ASP395      0.2597
     60  O        139.5710   99.9950  463.8360 O.2   395  ASP395     -0.2718
     61  CB       139.5970   97.9280  461.2910 C.3   395  ASP395      0.1424
     62  CG       138.2320   98.0360  460.6540 C.2   395  ASP395      0.3668
     63  OD1      137.3560   97.2220  461.0140 O.co2 395  ASP395     -0.2456
     64  OD2      138.0270   98.9420  459.8190 O.co2 395  ASP395     -0.2456
     65  N        138.3440  100.7560  462.0960 N.am  396  GLN396     -0.1979
     66  CA       137.2770  101.3530  462.9030 C.3   396  GLN396      0.1601
     67  C        137.8120  102.3750  463.9020 C.2   396  GLN396      0.2287
     68  O        137.3320  102.4730  465.0330 O.2   396  GLN396     -0.2864
     69  CB       136.4650  100.2720  463.6180 C.3   396  GLN396      0.0394
     70  CG       135.5500   99.5110  462.6910 C.3   396  GLN396      0.0908
     71  CD       134.1160   99.9700  462.7980 C.2   396  GLN396      0.2608
     72  OE1      133.5640  100.0520  463.8920 O.2   396  GLN396     -0.2717
     73  NE2      133.5040  100.2770  461.6610 N.am  396  GLN396     -0.0878
     74  N        141.6440  102.9520  457.9210 N.3   470  ARG470     -0.1245
     75  CA       140.4200  103.3940  457.2650 C.3   470  ARG470      0.1563
     76  C        140.1940  104.8940  457.3840 C.2   470  ARG470      0.2260
     77  O        139.1840  105.3980  456.8850 O.2   470  ARG470     -0.2867
     78  CB       139.2140  102.6490  457.8430 C.3   470  ARG470      0.0307
     79  CG       138.0790  102.4290  456.8580 C.3   470  ARG470      0.0489
     80  CD       136.9430  101.6630  457.5090 C.3   470  ARG470      0.2205
     81  NE       136.3350  102.4100  458.6030 N.pl3 470  ARG470     -0.0865
     82  CZ       135.4680  101.8920  459.4660 C.cat 470  ARG470      0.5346
     83  NH1      135.1120  100.6180  459.3640 N.pl3 470  ARG470      0.1354
     84  NH2      134.9620  102.6450  460.4320 N.pl3 470  ARG470      0.1354
     85  N        142.1040  102.6500  452.8530 N.3   484  TRP484     -0.1241
     86  CA       141.1480  101.9560  452.0050 C.3   484  TRP484      0.1605
     87  C        139.7660  102.5580  452.2180 C.2   484  TRP484      0.2264
     88  O        139.4720  103.1240  453.2740 O.2   484  TRP484     -0.2867
     89  CB       141.1560  100.4310  452.2530 C.3   484  TRP484      0.0550
     90  CG       140.1010   99.8900  453.1710 C.ar  484  TRP484      0.0003
     91  CD1      138.8950   99.3650  452.8060 C.ar  484  TRP484      0.0946
     92  CD2      140.1760   99.7650  454.5960 C.ar  484  TRP484      0.0152
     93  NE1      138.2040   98.9450  453.9150 N.ar  484  TRP484     -0.2442
     94  CE2      138.9680   99.1790  455.0280 C.ar  484  TRP484      0.0810
     95  CE3      141.1390  100.1040  455.5510 C.ar  484  TRP484      0.0012
     96  CZ2      138.6990   98.9230  456.3700 C.ar  484  TRP484      0.0191
     97  CZ3      140.8700   99.8480  456.8840 C.ar  484  TRP484      0.0001
     98  CH2      139.6580   99.2680  457.2810 C.ar  484  TRP484      0.0015
     99  N        133.6540  100.4710  454.1440 N.3   487  ASP487     -0.1239
    100  CA       132.5710   99.5270  453.8880 C.3   487  ASP487      0.1674
    101  C        131.7230   99.9950  452.7110 C.2   487  ASP487      0.2266
    102  O        131.0680  101.0410  452.7830 O.2   487  ASP487     -0.2867
    103  CB       131.7100   99.3630  455.1360 C.3   487  ASP487      0.1410
    104  CG       132.4480   98.6750  456.2630 C.2   487  ASP487      0.3668
    105  OD1      133.5910   98.2260  456.0340 O.co2 487  ASP487     -0.2456
    106  OD2      131.8880   98.5850  457.3750 O.co2 487  ASP487     -0.2456
    107  N        138.2620   97.4770  448.6270 N.3   516  ASP516     -0.1239
    108  CA       137.9230   96.0680  448.7990 C.3   516  ASP516      0.1674
    109  C        137.4640   95.5250  447.4510 C.2   516  ASP516      0.2266
    110  O        136.4150   95.9290  446.9370 O.2   516  ASP516     -0.2867
    111  CB       136.8350   95.8920  449.8560 C.3   516  ASP516      0.1410
    112  CG       137.3430   96.1280  451.2610 C.2   516  ASP516      0.3668
    113  OD1      136.5250   96.0550  452.2030 O.co2 516  ASP516     -0.2456
    114  OD2      138.5450   96.4310  451.4180 O.co2 516  ASP516     -0.2456
    115  N        132.2150   95.2290  449.9860 N.3   520  PHE520     -0.1241
    116  CA       132.2410   94.6420  451.3190 C.3   520  PHE520      0.1605
    117  C        130.8790   94.1050  451.7440 C.2   520  PHE520      0.2264
    118  O        130.7510   92.9150  452.0430 O.2   520  PHE520     -0.2867
    119  CB       132.7500   95.6650  452.3430 C.3   520  PHE520      0.0534
    120  CG       132.6800   95.1760  453.7600 C.ar  520  PHE520     -0.0203
    121  CD1      133.5880   94.2410  454.2290 C.ar  520  PHE520     -0.0042
    122  CD2      131.6930   95.6310  454.6160 C.ar  520  PHE520     -0.0042
    123  CE1      133.5200   93.7800  455.5280 C.ar  520  PHE520     -0.0003
    124  CE2      131.6170   95.1740  455.9160 C.ar  520  PHE520     -0.0003
    125  CZ       132.5330   94.2470  456.3730 C.ar  520  PHE520     -0.0000
    126  N        138.8710   91.6810  449.5790 N.3   557  HIS557     -0.1241
    127  CA       138.2710   91.5920  450.9030 C.3   557  HIS557      0.1621
    128  C        136.7700   91.7830  450.7520 C.2   557  HIS557      0.2264
    129  O        136.3030   92.3940  449.7870 O.2   557  HIS557     -0.2867
    130  CB       138.8550   92.6430  451.8580 C.3   557  HIS557      0.0745
    131  CG       138.2280   92.6420  453.2170 C.ar  557  HIS557      0.0817
    132  ND1      138.3040   91.5630  454.0710 N.ar  557  HIS557     -0.2268
    133  CD2      137.5090   93.5860  453.8680 C.ar  557  HIS557      0.1154
    134  CE1      137.6610   91.8430  455.1900 C.ar  557  HIS557      0.1986
    135  NE2      137.1690   93.0650  455.0930 N.ar  557  HIS557     -0.2212
@<TRIPOS>BOND
     1   110   109    2
     2   109   108    1
     3   107   108    1
     4   108   111    1
     5   126   127    1
     6   129   128    2
     7   111   112    1
     8   115   116    1
     9   128   127    1
    10   127   130    1
    11   112   114   ar
    12   112   113   ar
    13   116   117    1
    14   116   119    1
    15   117   118    2
    16   130   131    1
    17    86    87    1
    18    86    89    1
    19    86    85    1
    20    87    88    2
    21    89    90    1
    22   119   120    1
    23   101   102    2
    24   101   100    1
    25    91    90   ar
    26    91    93   ar
    27    90    92   ar
    28   131   133   ar
    29   131   132   ar
    30   120   121   ar
    31   120   122   ar
    32   133   135   ar
    33   100    99    1
    34   100   103    1
    35    93    94   ar
    36   132   134   ar
    37   121   123   ar
    38    92    94   ar
    39    92    95   ar
    40   122   124   ar
    41    94    96   ar
    42   135   134   ar
    43   103   104    1
    44     1     2    1
    45   123   125   ar
    46    95    97   ar
    47   124   125   ar
    48   105   104   ar
    49     4     3    2
    50   104   106   ar
    51    96    98   ar
    52     2     3    1
    53     2     5    1
    54     5     6    1
    55    79    80    1
    56    79    78    1
    57    97    98   ar
    58    77    76    2
    59    54    56   ar
    60    54    52   ar
    61    56    55   ar
    62    75    76    1
    63    75    78    1
    64    75    74    1
    65    80    81    1
    66    52    51   ar
    67    52    50   ar
    68    55    53   ar
    69    51    49   ar
    70     7     6    1
    71     6     8    1
    72    53    50   ar
    73    50    48   ar
    74    16    14   ar
    75    81    82    2
    76    49    48   ar
    77    48    47    1
    78    14    13    1
    79    14    15   ar
    80    83    82    1
    81    82    84    1
    82    13    10    1
    83    47    44    1
    84    64    62   ar
    85     9    10    1
    86    10    11    1
    87    44    43    1
    88    44    45    1
    89    62    63   ar
    90    62    61    1
    91    61    58    1
    92    45    46    2
    93    58    57    1
    94    58    59    1
    95    25    23   ar
    96    25    27   ar
    97    73    71   am
    98    28    27    1
    99    11    17   am
   100    11    12    2
   101    65    59   am
   102    65    66    1
   103    23    22   ar
   104    27    26   ar
   105    17    18    1
   106    59    60    2
   107    70    71    1
   108    70    69    1
   109    71    72    2
   110    66    69    1
   111    66    67    1
   112    22    24   ar
   113    22    21    1
   114    26    24   ar
   115    18    21    1
   116    18    19    1
   117    20    19    2
   118    67    68    2
   119    37    38   ar
   120    37    35   ar
   121    40    38   ar
   122    40    42   ar
   123    38    36   ar
   124    42    41   ar
   125    35    34   ar
   126    36    34   ar
   127    36    39   ar
   128    34    33    1
   129    41    39   ar
   130    29    30    1
   131    30    33    1
   132    30    31    1
   133    31    32    2
