@<TRIPOS>MOLECULE
tmp/6druA09.pdb
 97 94 0 0 0
SMALL
GASTEIGER

@<TRIPOS>ATOM
      1  N        135.5950   86.0850  457.4760 N.3   258  ARG258     -0.1245
      2  CA       136.9200   86.2470  458.0750 C.3   258  ARG258      0.1563
      3  C        137.5480   84.8690  458.2560 C.2   258  ARG258      0.2260
      4  O        136.8370   83.8670  458.3310 O.2   258  ARG258     -0.2867
      5  CB       136.8370   86.9690  459.4270 C.3   258  ARG258      0.0307
      6  CG       135.9850   86.2660  460.4720 C.3   258  ARG258      0.0489
      7  CD       135.8420   87.1210  461.7210 C.3   258  ARG258      0.2205
      8  NE       135.0570   86.4620  462.7610 N.pl3 258  ARG258     -0.0865
      9  CZ       135.5790   85.7180  463.7320 C.cat 258  ARG258      0.5346
     10  NH1      136.8920   85.5340  463.7990 N.pl3 258  ARG258      0.1354
     11  NH2      134.7900   85.1560  464.6380 N.pl3 258  ARG258      0.1354
     12  N        138.8660   82.3370  460.6370 N.3   260  GLU260     -0.1245
     13  CA       138.3710   82.2880  462.0060 C.3   260  GLU260      0.1567
     14  C        139.3220   81.6110  462.9870 C.2   260  GLU260      0.2260
     15  O        139.3770   82.0190  464.1530 O.2   260  GLU260     -0.2867
     16  CB       137.0090   81.5870  462.0230 C.3   260  GLU260      0.0388
     17  CG       136.2090   81.7810  463.2930 C.3   260  GLU260      0.1160
     18  CD       136.3240   80.6010  464.2270 C.2   260  GLU260      0.3649
     19  OE1      137.1410   79.7010  463.9420 O.co2 260  GLU260     -0.2457
     20  OE2      135.6010   80.5720  465.2450 O.co2 260  GLU260     -0.2457
     21  N        137.2710   90.2690  465.4390 N.3   287  GLN287     -0.1245
     22  CA       136.5770   89.2580  466.2380 C.3   287  GLN287      0.1566
     23  C        137.4400   88.0280  466.5040 C.2   287  GLN287      0.2260
     24  O        136.9240   86.9780  466.9010 O.2   287  GLN287     -0.2867
     25  CB       135.2520   88.8470  465.5860 C.3   287  GLN287      0.0367
     26  CG       134.2880   90.0020  465.3540 C.3   287  GLN287      0.0905
     27  CD       133.7760   90.6100  466.6480 C.2   287  GLN287      0.2608
     28  OE1      134.4630   91.4030  467.2920 O.2   287  GLN287     -0.2717
     29  NE2      132.5620   90.2380  467.0350 N.am  287  GLN287     -0.0878
     30  N        139.7910   87.9810  468.8060 N.3   289  TRP289     -0.1227
     31  CA       140.2910   88.1550  470.1600 C.3   289  TRP289      0.1737
     32  C        139.2900   87.6020  471.1650 C.2   289  TRP289      0.2595
     33  O        138.1360   87.3110  470.8400 O.2   289  TRP289     -0.2718
     34  CB       140.5680   89.6350  470.4440 C.3   289  TRP289      0.0564
     35  CG       139.4690   90.5340  469.9630 C.ar  289  TRP289      0.0003
     36  CD1      138.2360   90.7000  470.5270 C.ar  289  TRP289      0.0946
     37  CD2      139.5020   91.3890  468.8130 C.ar  289  TRP289      0.0152
     38  NE1      137.5000   91.6050  469.7990 N.ar  289  TRP289     -0.2442
     39  CE2      138.2550   92.0430  468.7430 C.ar  289  TRP289      0.0810
     40  CE3      140.4650   91.6650  467.8370 C.ar  289  TRP289      0.0012
     41  CZ2      137.9470   92.9560  467.7360 C.ar  289  TRP289      0.0191
     42  CZ3      140.1570   92.5710  466.8390 C.ar  289  TRP289      0.0001
     43  CH2      138.9090   93.2060  466.7970 C.ar  289  TRP289      0.0015
     44  N        139.7490   87.4630  472.4090 N.am  290  ALA290     -0.1966
     45  CA       138.8640   87.0050  473.4730 C.3   290  ALA290      0.1728
     46  C        137.9730   88.1330  473.9800 C.2   290  ALA290      0.2616
     47  O        136.7730   87.9290  474.1940 O.2   290  ALA290     -0.2715
     48  CB       139.6840   86.4110  474.6180 C.3   290  ALA290      0.0334
     49  N        138.5390   89.3230  474.1740 N.am  291  HIS291     -0.1973
     50  CA       137.7880   90.4730  474.6540 C.3   291  HIS291      0.1656
     51  C        138.2500   91.7270  473.9250 C.2   291  HIS291      0.2291
     52  O        139.3890   91.8080  473.4570 O.2   291  HIS291     -0.2864
     53  CB       137.9510   90.6650  476.1690 C.3   291  HIS291      0.0771
     54  CG       137.7950   89.4040  476.9620 C.ar  291  HIS291      0.0820
     55  ND1      138.8730   88.6790  477.4250 N.ar  291  HIS291     -0.2267
     56  CD2      136.6900   88.7400  477.3750 C.ar  291  HIS291      0.1154
     57  CE1      138.4380   87.6230  478.0890 C.ar  291  HIS291      0.1986
     58  NE2      137.1170   87.6370  478.0740 N.ar  291  HIS291     -0.2212
     59  N        142.7370   85.1760  470.2620 N.3   298  ASP298     -0.1239
     60  CA       142.1530   84.2500  471.2220 C.3   298  ASP298      0.1674
     61  C        142.8860   82.9140  471.1520 C.2   298  ASP298      0.2266
     62  O        142.8530   82.2520  470.1030 O.2   298  ASP298     -0.2867
     63  CB       140.6620   84.0640  470.9360 C.3   298  ASP298      0.1410
     64  CG       139.9610   83.1980  471.9750 C.2   298  ASP298      0.3668
     65  OD1      140.5940   82.8280  472.9880 O.co2 298  ASP298     -0.2456
     66  OD2      138.7640   82.8930  471.7780 O.co2 298  ASP298     -0.2456
     67  N        142.1380   80.0770  472.2420 N.3   300  ARG300     -0.1231
     68  CA       141.2520   78.9460  472.0030 C.3   300  ARG300      0.1694
     69  C        141.0930   78.6460  470.5180 C.2   300  ARG300      0.2591
     70  O        140.7130   77.5270  470.1600 O.2   300  ARG300     -0.2718
     71  CB       139.8810   79.2060  472.6310 C.3   300  ARG300      0.0321
     72  CG       139.9240   79.4640  474.1300 C.3   300  ARG300      0.0489
     73  CD       138.5480   79.7940  474.6950 C.3   300  ARG300      0.2205
     74  NE       137.6840   80.4700  473.7310 N.pl3 300  ARG300     -0.0865
     75  CZ       136.6040   79.9160  473.1890 C.cat 300  ARG300      0.5346
     76  NH1      136.2570   78.6790  473.5190 N.pl3 300  ARG300      0.1354
     77  NH2      135.8710   80.5960  472.3190 N.pl3 300  ARG300      0.1354
     78  N        141.3830   79.6160  469.6500 N.am  301  LEU301     -0.1980
     79  CA       141.3200   79.4230  468.2110 C.3   301  LEU301      0.1596
     80  C        142.6350   79.7060  467.4980 C.2   301  LEU301      0.2287
     81  O        142.7560   79.3760  466.3120 O.2   301  LEU301     -0.2864
     82  CB       140.2190   80.3060  467.6050 C.3   301  LEU301      0.0297
     83  CG       138.8370   80.1040  468.2260 C.3   301  LEU301      0.0022
     84  CD1      137.9810   81.3550  468.0800 C.3   301  LEU301      0.0001
     85  CD2      138.1510   78.9000  467.6000 C.3   301  LEU301      0.0001
     86  N        133.9440   79.0190  458.2540 N.3   568  TYR568     -0.1241
     87  CA       133.1790   79.8810  459.1490 C.3   568  TYR568      0.1605
     88  C        132.3410   80.8850  458.3650 C.2   568  TYR568      0.2264
     89  O        131.2110   81.2010  458.7550 O.2   568  TYR568     -0.2867
     90  CB       134.1320   80.5940  460.1100 C.3   568  TYR568      0.0534
     91  CG       133.4550   81.4330  461.1680 C.ar  568  TYR568     -0.0201
     92  CD1      133.4770   82.8200  461.0980 C.ar  568  TYR568     -0.0009
     93  CD2      132.7950   80.8410  462.2380 C.ar  568  TYR568     -0.0009
     94  CE1      132.8630   83.5950  462.0620 C.ar  568  TYR568      0.0417
     95  CE2      132.1780   81.6090  463.2080 C.ar  568  TYR568      0.0417
     96  CZ       132.2140   82.9850  463.1140 C.ar  568  TYR568      0.1957
     97  OH       131.6020   83.7580  464.0730 O.3   568  TYR568     -0.2866
@<TRIPOS>BOND
     1     1     2    1
     2     2     3    1
     3     2     5    1
     4    86    87    1
     5     3     4    2
     6    88    89    2
     7    88    87    1
     8    87    90    1
     9     5     6    1
    10    90    91    1
    11     6     7    1
    12    12    13    1
    13    92    91   ar
    14    92    94   ar
    15    91    93   ar
    16     7     8    1
    17    13    16    1
    18    13    14    1
    19    16    17    1
    20    94    96   ar
    21    93    95   ar
    22     8     9    2
    23    14    15    2
    24    96    95   ar
    25    96    97    1
    26    17    18    1
    27     9    10    1
    28     9    11    1
    29    19    18   ar
    30    18    20   ar
    31    26    25    1
    32    26    27    1
    33    21    22    1
    34    25    22    1
    35    22    23    1
    36    81    80    2
    37    23    24    2
    38    27    29   am
    39    27    28    2
    40    43    42   ar
    41    43    41   ar
    42    42    40   ar
    43    80    79    1
    44    85    83    1
    45    82    79    1
    46    82    83    1
    47    41    39   ar
    48    40    37   ar
    49    84    83    1
    50    79    78    1
    51    39    37   ar
    52    39    38   ar
    53    30    31    1
    54    37    35   ar
    55    78    69   am
    56    38    36   ar
    57    35    34    1
    58    35    36   ar
    59    62    61    2
    60    31    34    1
    61    31    32    1
    62    70    69    2
    63    59    60    1
    64    69    68    1
    65    33    32    2
    66    63    60    1
    67    63    64    1
    68    61    60    1
    69    32    44   am
    70    66    64   ar
    71    64    65   ar
    72    68    67    1
    73    68    71    1
    74    77    75    1
    75    44    45    1
    76    71    72    1
    77    75    76    1
    78    75    74    2
    79    52    51    2
    80    45    46    1
    81    45    48    1
    82    74    73    1
    83    51    50    1
    84    46    49   am
    85    46    47    2
    86    72    73    1
    87    49    50    1
    88    50    53    1
    89    53    54    1
    90    54    56   ar
    91    54    55   ar
    92    56    58   ar
    93    55    57   ar
    94    58    57   ar
