@<TRIPOS>MOLECULE
tmp/6drxA00.pdb
 203 194 0 0 0
SMALL
GASTEIGER

@<TRIPOS>ATOM
      1  N        -10.7460  -19.4530    3.1390 N.3    61  VAL61      -0.1245
      2  CA       -11.8130  -19.6260    4.1190 C.3    61  VAL61       0.1561
      3  C        -12.0240  -21.0960    4.4730 C.2    61  VAL61       0.2260
      4  O        -12.0340  -21.4640    5.6470 O.2    61  VAL61      -0.2867
      5  CB       -13.1440  -19.0370    3.6150 C.3    61  VAL61       0.0252
      6  CG1      -14.2440  -19.2610    4.6400 C.3    61  VAL61       0.0019
      7  CG2      -12.9880  -17.5560    3.3050 C.3    61  VAL61       0.0019
      8  N        -11.1350  -23.3580    7.8600 N.3    65  ALA65      -0.1245
      9  CA       -12.3590  -23.8620    8.4730 C.3    65  ALA65       0.1562
     10  C        -12.2080  -25.3180    8.9090 C.2    65  ALA65       0.2260
     11  O        -12.9070  -25.7790    9.8110 O.2    65  ALA65      -0.2867
     12  CB       -13.5300  -23.7180    7.5130 C.3    65  ALA65       0.0290
     13  N        -10.9260  -25.7800   12.5490 N.3    68  THR68      -0.1218
     14  CA       -11.9760  -25.7310   13.5580 C.3    68  THR68       0.1862
     15  C        -12.5710  -27.1230   13.7490 C.2    68  THR68       0.2287
     16  O        -12.9260  -27.5160   14.8600 O.2    68  THR68      -0.2866
     17  CB       -13.0900  -24.7380   13.1690 C.3    68  THR68       0.1770
     18  OG1      -12.5130  -23.4580   12.8830 O.3    68  THR68      -0.2211
     19  CG2      -14.1010  -24.5930   14.2970 C.3    68  THR68       0.0375
     20  N        -10.0070  -13.9540    9.1540 N.3    85  TRP85      -0.1227
     21  CA       -10.6180  -15.1580    8.6030 C.3    85  TRP85       0.1737
     22  C        -12.1380  -15.1120    8.7290 C.2    85  TRP85       0.2595
     23  O        -12.8580  -15.5480    7.8300 O.2    85  TRP85      -0.2718
     24  CB       -10.0620  -16.3990    9.3020 C.3    85  TRP85       0.0564
     25  CG       -10.8110  -17.6590    8.9990 C.ar   85  TRP85       0.0003
     26  CD1      -10.8180  -18.3460    7.8210 C.ar   85  TRP85       0.0946
     27  CD2      -11.6510  -18.3930    9.8970 C.ar   85  TRP85       0.0152
     28  NE1      -11.6170  -19.4580    7.9270 N.ar   85  TRP85      -0.2442
     29  CE2      -12.1390  -19.5100    9.1930 C.ar   85  TRP85       0.0810
     30  CE3      -12.0400  -18.2120   11.2280 C.ar   85  TRP85       0.0012
     31  CZ2      -12.9950  -20.4420    9.7730 C.ar   85  TRP85       0.0191
     32  CZ3      -12.8910  -19.1380   11.8020 C.ar   85  TRP85       0.0001
     33  CH2      -13.3590  -20.2390   11.0750 C.ar   85  TRP85       0.0015
     34  N        -12.6190  -14.5820    9.8480 N.am   86  LEU86      -0.1980
     35  CA       -14.0490  -14.3940   10.0530 C.3    86  LEU86       0.1596
     36  C        -14.5980  -13.3750    9.0630 C.2    86  LEU86       0.2287
     37  O        -15.6900  -13.5450    8.5220 O.2    86  LEU86      -0.2864
     38  CB       -14.3380  -13.9440   11.4860 C.3    86  LEU86       0.0297
     39  CG       -14.1910  -14.9820   12.5980 C.3    86  LEU86       0.0022
     40  CD1      -14.3740  -14.3330   13.9590 C.3    86  LEU86       0.0001
     41  CD2      -15.1920  -16.1060   12.4040 C.3    86  LEU86       0.0001
     42  N        -14.6660  -14.7750    5.4460 N.3    89  ASP89      -0.1225
     43  CA       -15.7620  -15.7270    5.3230 C.3    89  ASP89       0.1805
     44  C        -17.0670  -15.0160    4.9880 C.2    89  ASP89       0.2597
     45  O        -17.7460  -15.3690    4.0270 O.2    89  ASP89      -0.2718
     46  CB       -15.9300  -16.5350    6.6100 C.3    89  ASP89       0.1424
     47  CG       -17.1660  -17.4130    6.5860 C.2    89  ASP89       0.3668
     48  OD1      -17.4000  -18.0830    5.5580 O.co2  89  ASP89      -0.2456
     49  OD2      -17.9120  -17.4220    7.5870 O.co2  89  ASP89      -0.2456
     50  N        -17.4070  -14.0100    5.7870 N.am   90  VAL90      -0.1980
     51  CA       -18.6420  -13.2620    5.5930 C.3    90  VAL90       0.1595
     52  C        -18.5960  -12.4520    4.2990 C.2    90  VAL90       0.2287
     53  O        -19.5920  -12.3530    3.5840 O.2    90  VAL90      -0.2864
     54  CB       -18.9210  -12.3170    6.7800 C.3    90  VAL90       0.0276
     55  CG1      -20.2730  -11.6420    6.6180 C.3    90  VAL90       0.0022
     56  CG2      -18.8650  -13.0850    8.0900 C.3    90  VAL90       0.0022
     57  N        -18.7150  -14.9720    1.0960 N.3    93  SER93      -0.1202
     58  CA       -19.9810  -15.6990    1.0760 C.3    93  SER93       0.2020
     59  C        -21.1420  -14.7740    0.7250 C.2    93  SER93       0.2619
     60  O        -22.0990  -15.1850    0.0710 O.2    93  SER93      -0.2717
     61  CB       -20.2390  -16.3750    2.4230 C.3    93  SER93       0.2103
     62  OG       -19.1900  -17.2660    2.7550 O.3    93  SER93      -0.2182
     63  N        -21.0530  -13.5240    1.1690 N.am   94  THR94      -0.1952
     64  CA       -22.0660  -12.5250    0.8520 C.3    94  THR94       0.1897
     65  C        -21.9250  -12.0760   -0.5990 C.2    94  THR94       0.2313
     66  O        -22.9160  -11.8140   -1.2820 O.2    94  THR94      -0.2863
     67  CB       -21.9630  -11.3010    1.7830 C.3    94  THR94       0.1794
     68  OG1      -22.0070  -11.7320    3.1480 O.3    94  THR94      -0.2208
     69  CG2      -23.1010  -10.3270    1.5250 C.3    94  THR94       0.0378
     70  N        -23.7420  -14.4610   -3.0530 N.3    97  ILE97      -0.1245
     71  CA       -25.1940  -14.3530   -3.0990 C.3    97  ILE97       0.1561
     72  C        -25.6340  -13.0680   -3.7960 C.2    97  ILE97       0.2260
     73  O        -26.6070  -13.0640   -4.5500 O.2    97  ILE97      -0.2867
     74  CB       -25.8030  -14.4040   -1.6840 C.3    97  ILE97       0.0252
     75  CG1      -25.2240  -15.5820   -0.8980 C.3    97  ILE97       0.0019
     76  CG2      -27.3170  -14.5070   -1.7550 C.3    97  ILE97       0.0019
     77  CD1      -25.7660  -15.7060    0.5100 C.3    97  ILE97       0.0001
     78  N        -21.3730   -5.4070    5.0340 N.3   140  ILE140     -0.1245
     79  CA       -22.0690   -6.4500    5.7760 C.3   140  ILE140      0.1561
     80  C        -21.0760   -7.2850    6.5800 C.2   140  ILE140      0.2260
     81  O        -21.3900   -7.7690    7.6660 O.2   140  ILE140     -0.2867
     82  CB       -22.8830   -7.3640    4.8300 C.3   140  ILE140      0.0252
     83  CG1      -23.9300   -6.5450    4.0740 C.3   140  ILE140      0.0019
     84  CG2      -23.5620   -8.4870    5.5990 C.3   140  ILE140      0.0019
     85  CD1      -24.7850   -7.3650    3.1340 C.3   140  ILE140      0.0001
     86  N        -11.9900  -18.5980   18.1720 N.3   158  CYS158     -0.1221
     87  CA       -12.4300  -17.8370   17.0090 C.3   158  CYS158      0.1808
     88  C        -13.7990  -18.3000   16.5280 C.2   158  CYS158      0.2601
     89  O        -13.9040  -19.1830   15.6760 O.2   158  CYS158     -0.2717
     90  CB       -11.4090  -17.9520   15.8770 C.3   158  CYS158      0.0970
     91  SG       -11.6570  -16.7780   14.5300 S.3   158  CYS158     -0.0800
     92  N        -14.8450  -17.6970   17.0820 N.am  159  VAL159     -0.1965
     93  CA       -16.2110  -18.0460   16.7180 C.3   159  VAL159      0.1727
     94  C        -17.1840  -16.9160   17.0340 C.2   159  VAL159      0.2616
     95  O        -17.0600  -16.2490   18.0610 O.2   159  VAL159     -0.2715
     96  CB       -16.6770  -19.3230   17.4420 C.3   159  VAL159      0.0290
     97  CG1      -16.7750  -19.2010   18.9410 C.3   159  VAL159      0.0023
     98  CG2      -17.9530  -19.8780   16.8290 C.3   159  VAL159      0.0023
     99  N        -18.1490  -16.7020   16.1460 N.am  160  LEU160     -0.1977
    100  CA       -19.1810  -15.6990   16.3760 C.3   160  LEU160      0.1596
    101  C        -20.0900  -16.1410   17.5160 C.2   160  LEU160      0.2287
    102  O        -20.7160  -17.1980   17.4490 O.2   160  LEU160     -0.2864
    103  CB       -20.0000  -15.4530   15.1070 C.3   160  LEU160      0.0297
    104  CG       -19.2720  -14.8380   13.9110 C.3   160  LEU160      0.0022
    105  CD1      -20.2480  -14.5670   12.7750 C.3   160  LEU160      0.0001
    106  CD2      -18.5510  -13.5640   14.3170 C.3   160  LEU160      0.0001
    107  N        -25.8240   -8.9370   14.6750 N.3   168  PHE168     -0.1227
    108  CA       -25.1790   -9.2370   13.4050 C.3   168  PHE168      0.1736
    109  C        -25.6520  -10.5700   12.8310 C.2   168  PHE168      0.2595
    110  O        -25.7720  -10.7210   11.6160 O.2   168  PHE168     -0.2718
    111  CB       -23.6580   -9.2460   13.5640 C.3   168  PHE168      0.0547
    112  CG       -22.9300   -9.7590   12.3570 C.ar  168  PHE168     -0.0202
    113  CD1      -22.8410   -8.9920   11.2080 C.ar  168  PHE168     -0.0042
    114  CD2      -22.3410  -11.0120   12.3690 C.ar  168  PHE168     -0.0042
    115  CE1      -22.1760   -9.4650   10.0930 C.ar  168  PHE168     -0.0003
    116  CE2      -21.6730  -11.4890   11.2580 C.ar  168  PHE168     -0.0003
    117  CZ       -21.5920  -10.7150   10.1180 C.ar  168  PHE168     -0.0000
    118  N        -25.8590  -11.5420   13.6820 N.am  169  MET169     -0.1979
    119  CA       -26.2990  -12.7980   13.1690 C.3   169  MET169      0.1605
    120  C        -27.6660  -12.6160   12.5700 C.2   169  MET169      0.2287
    121  O        -27.9410  -13.1260   11.5130 O.2   169  MET169     -0.2864
    122  CB       -26.3090  -13.8460   14.2670 C.3   169  MET169      0.0413
    123  CG       -24.9260  -14.2290   14.7690 C.3   169  MET169      0.0598
    124  SD       -24.9600  -15.5600   15.9750 S.3   169  MET169     -0.1393
    125  CE       -23.2260  -15.9200   16.1550 C.3   169  MET169      0.0692
    126  N        -27.2800   -9.3800    9.7440 N.3   172  GLY172     -0.1210
    127  CA       -26.3570   -9.6920    8.6950 C.3   172  GLY172      0.1956
    128  C        -26.9900  -10.7460    7.8440 C.2   172  GLY172      0.2612
    129  O        -26.8870  -10.7170    6.6460 O.2   172  GLY172     -0.2717
    130  N        -27.6590  -11.6910    8.4650 N.am  173  SER173     -0.1952
    131  CA       -28.2940  -12.7530    7.7290 C.3   173  SER173      0.1924
    132  C        -29.3460  -12.1910    6.8390 C.2   173  SER173      0.2314
    133  O        -29.5080  -12.6100    5.7330 O.2   173  SER173     -0.2863
    134  CB       -28.9160  -13.7470    8.6810 C.3   173  SER173      0.2116
    135  OG       -27.9170  -14.3850    9.4380 O.3   173  SER173     -0.2180
    136  N        -27.5770  -10.3080    3.9370 N.3   176  ALA176     -0.1245
    137  CA       -26.6800  -11.0890    3.0920 C.3   176  ALA176      0.1562
    138  C        -27.4070  -12.1570    2.2820 C.2   176  ALA176      0.2260
    139  O        -26.9680  -12.5200    1.1900 O.2   176  ALA176     -0.2867
    140  CB       -25.5930  -11.7290    3.9360 C.3   176  ALA176      0.0290
    141  N        -28.2750  -22.6510    0.8010 N.3   305  TRP305     -0.1241
    142  CA       -27.8650  -21.6870    1.8160 C.3   305  TRP305      0.1605
    143  C        -28.9760  -21.4740    2.8380 C.2   305  TRP305      0.2264
    144  O        -28.7470  -20.9110    3.9090 O.2   305  TRP305     -0.2867
    145  CB       -27.4770  -20.3490    1.1810 C.3   305  TRP305      0.0550
    146  CG       -26.0320  -20.2470    0.7940 C.ar  305  TRP305      0.0003
    147  CD1      -25.5260  -20.1440   -0.4700 C.ar  305  TRP305      0.0946
    148  CD2      -24.9040  -20.2350    1.6790 C.ar  305  TRP305      0.0152
    149  NE1      -24.1540  -20.0680   -0.4260 N.ar  305  TRP305     -0.2442
    150  CE2      -23.7480  -20.1220    0.8810 C.ar  305  TRP305      0.0810
    151  CE3      -24.7590  -20.3090    3.0680 C.ar  305  TRP305      0.0012
    152  CZ2      -22.4660  -20.0810    1.4250 C.ar  305  TRP305      0.0191
    153  CZ3      -23.4860  -20.2690    3.6060 C.ar  305  TRP305      0.0001
    154  CH2      -22.3560  -20.1580    2.7860 C.ar  305  TRP305      0.0015
    155  N        -28.7430  -22.9050    6.6430 N.3   308  PHE308     -0.1227
    156  CA       -27.8650  -22.1540    7.5320 C.3   308  PHE308      0.1736
    157  C        -28.5170  -20.8780    8.0550 C.2   308  PHE308      0.2595
    158  O        -28.6640  -20.6970    9.2640 O.2   308  PHE308     -0.2718
    159  CB       -26.5580  -21.7990    6.8260 C.3   308  PHE308      0.0547
    160  CG       -25.7350  -20.7810    7.5620 C.ar  308  PHE308     -0.0202
    161  CD1      -25.0540  -21.1270    8.7170 C.ar  308  PHE308     -0.0042
    162  CD2      -25.6450  -19.4770    7.1020 C.ar  308  PHE308     -0.0042
    163  CE1      -24.2990  -20.1930    9.4000 C.ar  308  PHE308     -0.0003
    164  CE2      -24.8900  -18.5380    7.7810 C.ar  308  PHE308     -0.0003
    165  CZ       -24.2170  -18.8970    8.9310 C.ar  308  PHE308     -0.0000
    166  N        -28.8980  -19.9960    7.1350 N.am  309  PHE309     -0.1976
    167  CA       -29.4210  -18.6820    7.4940 C.3   309  PHE309      0.1639
    168  C        -30.7480  -18.7560    8.2470 C.2   309  PHE309      0.2290
    169  O        -31.0530  -17.8830    9.0590 O.2   309  PHE309     -0.2864
    170  CB       -29.5810  -17.8150    6.2420 C.3   309  PHE309      0.0560
    171  CG       -28.2760  -17.3560    5.6510 C.ar  309  PHE309     -0.0200
    172  CD1      -27.5480  -16.3430    6.2510 C.ar  309  PHE309     -0.0042
    173  CD2      -27.7820  -17.9330    4.4930 C.ar  309  PHE309     -0.0042
    174  CE1      -26.3490  -15.9160    5.7110 C.ar  309  PHE309     -0.0003
    175  CE2      -26.5840  -17.5090    3.9480 C.ar  309  PHE309     -0.0003
    176  CZ       -25.8670  -16.5000    4.5580 C.ar  309  PHE309     -0.0000
    177  N        -29.5000  -19.8440   11.6030 N.3   312  ASN312     -0.1240
    178  CA       -28.6950  -18.7920   12.2140 C.3   312  ASN312      0.1653
    179  C        -29.5520  -17.7400   12.9130 C.2   312  ASN312      0.2266
    180  O        -29.2100  -17.2720   13.9990 O.2   312  ASN312     -0.2867
    181  CB       -27.8050  -18.1260   11.1640 C.3   312  ASN312      0.1155
    182  CG       -26.7020  -17.2880   11.7800 C.2   312  ASN312      0.2627
    183  OD1      -26.3160  -17.4980   12.9300 O.2   312  ASN312     -0.2716
    184  ND2      -26.1870  -16.3320   11.0160 N.am  312  ASN312     -0.0877
    185  N        -23.1030  -24.8450    7.2020 N.3   334  VAL334     -0.1245
    186  CA       -22.1840  -23.9190    6.5500 C.3   334  VAL334      0.1561
    187  C        -21.5280  -24.5800    5.3400 C.2   334  VAL334      0.2260
    188  O        -21.4010  -23.9700    4.2760 O.2   334  VAL334     -0.2867
    189  CB       -21.0940  -23.4220    7.5260 C.3   334  VAL334      0.0252
    190  CG1      -19.9560  -22.7620    6.7730 C.3   334  VAL334      0.0019
    191  CG2      -21.6850  -22.4570    8.5370 C.3   334  VAL334      0.0019
    192  N        -21.1960  -23.9670    1.4810 N.3   338  TYR338     -0.1241
    193  CA       -19.8700  -23.9580    0.8740 C.3   338  TYR338      0.1605
    194  C        -19.8470  -24.7890   -0.4050 C.2   338  TYR338      0.2264
    195  O        -19.1930  -24.4200   -1.3800 O.2   338  TYR338     -0.2867
    196  CB       -18.8210  -24.4750    1.8610 C.3   338  TYR338      0.0534
    197  CG       -18.3660  -23.4400    2.8660 C.ar  338  TYR338     -0.0201
    198  CD1      -18.7960  -22.1220    2.7770 C.ar  338  TYR338     -0.0009
    199  CD2      -17.4990  -23.7780    3.8970 C.ar  338  TYR338     -0.0009
    200  CE1      -18.3830  -21.1720    3.6910 C.ar  338  TYR338      0.0417
    201  CE2      -17.0780  -22.8340    4.8140 C.ar  338  TYR338      0.0417
    202  CZ       -17.5220  -21.5330    4.7060 C.ar  338  TYR338      0.1957
    203  OH       -17.1080  -20.5910    5.6190 O.3   338  TYR338     -0.2866
@<TRIPOS>BOND
     1    73    72    2
     2    72    71    1
     3    71    70    1
     4    71    74    1
     5    76    74    1
     6    74    75    1
     7   195   194    2
     8    66    65    2
     9    75    77    1
    10    65    64    1
    11   147   149   ar
    12   147   146   ar
    13   149   150   ar
    14   194   193    1
    15    60    59    2
    16    59    58    1
    17    59    63   am
    18   146   145    1
    19   146   148   ar
    20   141   142    1
    21    64    63    1
    22    64    67    1
    23   193   192    1
    24   193   196    1
    25   150   152   ar
    26   150   148   ar
    27    58    57    1
    28    58    61    1
    29   145   142    1
    30   139   138    2
    31   152   154   ar
    32    69    67    1
    33   148   151   ar
    34    67    68    1
    35   142   143    1
    36   196   197    1
    37   138   137    1
    38    61    62    1
    39   198   197   ar
    40   198   200   ar
    41   154   153   ar
    42   143   144    2
    43   197   199   ar
    44   151   153   ar
    45   137   140    1
    46   137   136    1
    47    85    83    1
    48     1     2    1
    49     7     5    1
    50    53    52    2
    51     5     2    1
    52     5     6    1
    53   200   202   ar
    54   199   201   ar
    55   175   173   ar
    56   175   176   ar
    57    45    44    2
    58    83    82    1
    59     2     3    1
    60   188   187    2
    61    52    51    1
    62     3     4    2
    63   173   171   ar
    64   176   174   ar
    65   202   201   ar
    66   202   203    1
    67    82    84    1
    68    82    79    1
    69    44    43    1
    70    44    50   am
    71    78    79    1
    72    43    42    1
    73    43    46    1
    74   187   186    1
    75    48    47   ar
    76    51    50    1
    77    51    54    1
    78   171   170    1
    79   171   172   ar
    80   174   172   ar
    81   133   132    2
    82    79    80    1
    83   170   167    1
    84   186   185    1
    85   186   189    1
    86    80    81    2
    87    47    46    1
    88    47    49   ar
    89    55    54    1
    90   155   156    1
    91   129   128    2
    92   190   189    1
    93    54    56    1
    94   159   156    1
    95   159   160    1
    96   132   131    1
    97   162   160   ar
    98   162   164   ar
    99   166   167    1
   100   166   157   am
   101   167   168    1
   102    12     9    1
   103   189   191    1
   104   156   157    1
   105   160   161   ar
   106   131   130    1
   107   131   134    1
   108   164   165   ar
   109    26    28   ar
   110    26    25   ar
   111    23    22    2
   112   128   130   am
   113   128   127    1
   114     8     9    1
   115    28    29   ar
   116   157   158    2
   117   168   169    2
   118     9    10    1
   119    37    36    2
   120    21    22    1
   121    21    20    1
   122    21    24    1
   123   134   135    1
   124   127   126    1
   125   161   163   ar
   126    22    34   am
   127    10    11    2
   128   165   163   ar
   129    25    24    1
   130    25    27   ar
   131    36    35    1
   132    29    31   ar
   133    29    27   ar
   134    31    33   ar
   135    34    35    1
   136    27    30   ar
   137    35    38    1
   138   115   117   ar
   139   115   113   ar
   140   117   116   ar
   141   184   182   am
   142    33    32   ar
   143   181   182    1
   144   181   178    1
   145   113   112   ar
   146    30    32   ar
   147   116   114   ar
   148    38    39    1
   149   121   120    2
   150   177   178    1
   151   110   109    2
   152   182   183    2
   153   178   179    1
   154   112   114   ar
   155   112   111    1
   156    41    39    1
   157    13    14    1
   158   120   119    1
   159    39    40    1
   160   105   104    1
   161   109   108    1
   162   109   118   am
   163    18    17    1
   164   179   180    2
   165   119   118    1
   166   119   122    1
   167    17    14    1
   168    17    19    1
   169   108   111    1
   170   108   107    1
   171    14    15    1
   172    15    16    2
   173   104   106    1
   174   104   103    1
   175   122   123    1
   176    91    90    1
   177   123   124    1
   178   103   100    1
   179    89    88    2
   180    90    87    1
   181   124   125    1
   182    99   100    1
   183    99    94   am
   184   100   101    1
   185    88    87    1
   186    88    92   am
   187    93    94    1
   188    93    92    1
   189    93    96    1
   190    98    96    1
   191    87    86    1
   192    94    95    2
   193    96    97    1
   194   102   101    2
