@<TRIPOS>MOLECULE
tmp/6drzA04.pdb
 209 201 0 0 0
SMALL
GASTEIGER

@<TRIPOS>ATOM
      1  N         11.9310   14.7740    9.4500 N.3    93  TRP93      -0.1227
      2  CA        12.6550   15.8480    8.7760 C.3    93  TRP93       0.1737
      3  C         14.1610   15.6140    8.8010 C.2    93  TRP93       0.2595
      4  O         14.8490   15.8620    7.8040 O.2    93  TRP93      -0.2718
      5  CB        12.3030   17.1880    9.4200 C.3    93  TRP93       0.0564
      6  CG        13.2180   18.3000    9.0490 C.ar   93  TRP93       0.0003
      7  CD1       13.3050   18.9190    7.8370 C.ar   93  TRP93       0.0946
      8  CD2       14.1700   18.9460    9.9010 C.ar   93  TRP93       0.0152
      9  NE1       14.2590   19.9060    7.8790 N.ar   93  TRP93      -0.2442
     10  CE2       14.8040   19.9430    9.1360 C.ar   93  TRP93       0.0810
     11  CE3       14.5490   18.7750   11.2360 C.ar   93  TRP93       0.0012
     12  CZ2       15.7970   20.7680    9.6610 C.ar   93  TRP93       0.0191
     13  CZ3       15.5360   19.5950   11.7550 C.ar   93  TRP93       0.0001
     14  CH2       16.1480   20.5780   10.9680 C.ar   93  TRP93       0.0015
     15  N         14.6920   15.1380    9.9290 N.am   94  LEU94      -0.1980
     16  CA        16.1230   14.8610   10.0130 C.3    94  LEU94       0.1596
     17  C         16.5230   13.7550    9.0450 C.2    94  LEU94       0.2287
     18  O         17.5370   13.8630    8.3430 O.2    94  LEU94      -0.2864
     19  CB        16.5020   14.4890   11.4460 C.3    94  LEU94       0.0297
     20  CG        16.5310   15.6330   12.4620 C.3    94  LEU94       0.0022
     21  CD1       16.8050   15.0960   13.8550 C.3    94  LEU94       0.0001
     22  CD2       17.5680   16.6720   12.0730 C.3    94  LEU94       0.0001
     23  N         16.5390   15.0580    5.5910 N.3    97  ASP97      -0.1225
     24  CA        17.6790   15.9530    5.4330 C.3    97  ASP97       0.1805
     25  C         18.9470   15.1800    5.0870 C.2    97  ASP97       0.2597
     26  O         19.5570   15.4000    4.0350 O.2    97  ASP97      -0.2718
     27  CB        17.8560   16.7750    6.7140 C.3    97  ASP97       0.1424
     28  CG        19.1790   17.5040    6.7650 C.2    97  ASP97       0.3668
     29  OD1       20.1800   16.8880    7.1870 O.co2  97  ASP97      -0.2456
     30  OD2       19.2200   18.6900    6.3800 O.co2  97  ASP97      -0.2456
     31  N         19.3530   14.2590    5.9650 N.am   98  VAL98      -0.1980
     32  CA        20.5610   13.4700    5.7290 C.3    98  VAL98       0.1595
     33  C         20.4520   12.7020    4.4190 C.2    98  VAL98       0.2287
     34  O         21.4070   12.6420    3.6340 O.2    98  VAL98      -0.2864
     35  CB        20.8200   12.5250    6.9160 C.3    98  VAL98       0.0276
     36  CG1       22.1270   11.7700    6.7230 C.3    98  VAL98       0.0022
     37  CG2       20.8250   13.3040    8.2220 C.3    98  VAL98       0.0022
     38  N         20.7500   15.1320    1.3360 N.3   101  SER101     -0.1202
     39  CA        22.0710   15.7560    1.3390 C.3   101  SER101      0.2020
     40  C         23.1480   14.7670    0.9170 C.2   101  SER101      0.2619
     41  O         24.1040   15.1350    0.2250 O.2   101  SER101     -0.2717
     42  CB        22.3820   16.3270    2.7230 C.3   101  SER101      0.2103
     43  OG        21.3920   17.2560    3.1230 O.3   101  SER101     -0.2182
     44  N         23.0060   13.5030    1.3200 N.am  102  THR102     -0.1952
     45  CA        23.9340   12.4740    0.8690 C.3   102  THR102      0.1897
     46  C         23.6910   12.1220   -0.5930 C.2   102  THR102      0.2313
     47  O         24.6430   11.9060   -1.3520 O.2   102  THR102     -0.2863
     48  CB        23.8010   11.2310    1.7470 C.3   102  THR102      0.1794
     49  OG1       23.8030   11.6200    3.1260 O.3   102  THR102     -0.2208
     50  CG2       24.9520   10.2730    1.4970 C.3   102  THR102      0.0378
     51  N         25.5650   14.3260   -3.1410 N.3   105  ILE105     -0.1245
     52  CA        27.0070   14.0920   -3.1900 C.3   105  ILE105      0.1561
     53  C         27.3160   12.8260   -3.9760 C.2   105  ILE105      0.2260
     54  O         28.1400   12.8300   -4.8990 O.2   105  ILE105     -0.2867
     55  CB        27.5900   14.0180   -1.7670 C.3   105  ILE105      0.0252
     56  CG1       27.2380   15.2760   -0.9740 C.3   105  ILE105      0.0019
     57  CG2       29.0970   13.8090   -1.8210 C.3   105  ILE105      0.0019
     58  CD1       27.6890   15.2140    0.4650 C.3   105  ILE105      0.0001
     59  N         22.9590    5.3450    4.6600 N.3   145  ILE145     -0.1245
     60  CA        23.6560    6.2870    5.5260 C.3   145  ILE145      0.1561
     61  C         22.6670    7.0760    6.3790 C.2   145  ILE145      0.2260
     62  O         23.0030    7.5030    7.4880 O.2   145  ILE145     -0.2867
     63  CB        24.5490    7.2150    4.6830 C.3   145  ILE145      0.0252
     64  CG1       25.5290    6.3970    3.8390 C.3   145  ILE145      0.0019
     65  CG2       25.3170    8.1830    5.5680 C.3   145  ILE145      0.0019
     66  CD1       26.5300    7.2420    3.0800 C.3   145  ILE145      0.0001
     67  N         15.0530   19.4130   18.5020 N.3   166  CYS166     -0.1221
     68  CA        15.7760   18.6170   17.5130 C.3   166  CYS166      0.1808
     69  C         17.2280   19.0390   17.3840 C.2   166  CYS166      0.2601
     70  O         17.5290   20.1920   17.0570 O.2   166  CYS166     -0.2717
     71  CB        15.0790   18.7230   16.1630 C.3   166  CYS166      0.0970
     72  SG        13.4330   18.1270   16.3610 S.3   166  CYS166     -0.0800
     73  N         18.1270   18.0890   17.6260 N.am  167  VAL167     -0.1965
     74  CA        19.5540   18.3020   17.4190 C.3   167  VAL167      0.1727
     75  C         20.2750   16.9610   17.5070 C.2   167  VAL167      0.2616
     76  O         19.9000   16.0910   18.3010 O.2   167  VAL167     -0.2715
     77  CB        20.1210   19.3200   18.4320 C.3   167  VAL167      0.0290
     78  CG1       19.9880   18.8020   19.8510 C.3   167  VAL167      0.0023
     79  CG2       21.5670   19.6640   18.0990 C.3   167  VAL167      0.0023
     80  N         21.2980   16.7760   16.6770 N.am  168  LEU168     -0.1977
     81  CA        22.1050   15.5580   16.7120 C.3   168  LEU168      0.1596
     82  C         23.1220   15.7040   17.8340 C.2   168  LEU168      0.2287
     83  O         24.2110   16.2520   17.6530 O.2   168  LEU168     -0.2864
     84  CB        22.7770   15.3040   15.3670 C.3   168  LEU168      0.0297
     85  CG        21.8550   14.8900   14.2170 C.3   168  LEU168      0.0022
     86  CD1       22.6620   14.3600   13.0390 C.3   168  LEU168      0.0001
     87  CD2       20.8320   13.8610   14.6780 C.3   168  LEU168      0.0001
     88  N         27.6820    8.4580   14.7820 N.3   176  PHE176     -0.1227
     89  CA        27.0270    8.7300   13.5080 C.3   176  PHE176      0.1736
     90  C         27.5380   10.0240   12.8870 C.2   176  PHE176      0.2595
     91  O         27.6920   10.1130   11.6640 O.2   176  PHE176     -0.2718
     92  CB        25.5110    8.7880   13.6880 C.3   176  PHE176      0.0547
     93  CG        24.7910    9.3440   12.4970 C.ar  176  PHE176     -0.0202
     94  CD1       24.5800    8.5620   11.3730 C.ar  176  PHE176     -0.0042
     95  CD2       24.3410   10.6530   12.4920 C.ar  176  PHE176     -0.0042
     96  CE1       23.9270    9.0720   10.2710 C.ar  176  PHE176     -0.0003
     97  CE2       23.6890   11.1700   11.3930 C.ar  176  PHE176     -0.0003
     98  CZ        23.4820   10.3780   10.2800 C.ar  176  PHE176     -0.0000
     99  N         27.7940   11.0450   13.7080 N.am  177  MET177     -0.1979
    100  CA        28.3610   12.2810   13.1840 C.3   177  MET177      0.1605
    101  C         29.7840   12.0850   12.6820 C.2   177  MET177      0.2287
    102  O         30.2920   12.9340   11.9410 O.2   177  MET177     -0.2864
    103  CB        28.3260   13.3770   14.2480 C.3   177  MET177      0.0413
    104  CG        26.9220   13.7710   14.6780 C.3   177  MET177      0.0598
    105  SD        26.9020   15.1690   15.8130 S.3   177  MET177     -0.1393
    106  CE        28.1700   14.6750   16.9720 C.3   177  MET177      0.0692
    107  N         29.1270    8.6270    9.7150 N.3   180  GLY180     -0.1210
    108  CA        28.1930    9.0940    8.7030 C.3   180  GLY180      0.1956
    109  C         28.8080   10.1380    7.7920 C.2   180  GLY180      0.2612
    110  O         28.5090   10.1880    6.5950 O.2   180  GLY180     -0.2717
    111  N         29.6840   10.9800    8.3430 N.am  181  SER181     -0.1952
    112  CA        30.4190   11.9370    7.5250 C.3   181  SER181      0.1924
    113  C         31.5140   11.2480    6.7210 C.2   181  SER181      0.2314
    114  O         31.8050   11.6560    5.5910 O.2   181  SER181     -0.2863
    115  CB        31.0180   13.0360    8.4010 C.3   181  SER181      0.2116
    116  OG        30.0120   13.7290    9.1200 O.3   181  SER181     -0.2180
    117  N         29.6100    9.4320    4.0300 N.3   184  GLY184     -0.1225
    118  CA        28.7460   10.2990    3.2530 C.3   184  GLY184      0.1811
    119  C         29.4330   11.4190    2.5000 C.2   184  GLY184      0.2280
    120  O         28.8780   11.9360    1.5250 O.2   184  GLY184     -0.2866
    121  N         30.8610   22.3830    1.0150 N.3   325  TRP325     -0.1241
    122  CA        30.5050   21.4360    2.0700 C.3   325  TRP325      0.1605
    123  C         31.6030   21.2440    3.1070 C.2   325  TRP325      0.2264
    124  O         31.3060   20.8130    4.2260 O.2   325  TRP325     -0.2867
    125  CB        30.1620   20.0670    1.4780 C.3   325  TRP325      0.0550
    126  CG        28.7780   19.9850    1.0030 C.ar  325  TRP325      0.0003
    127  CD1       28.3670   19.9430   -0.2870 C.ar  325  TRP325      0.0946
    128  CD2       27.5950   19.9460    1.8060 C.ar  325  TRP325      0.0152
    129  NE1       27.0010   19.8750   -0.3480 N.ar  325  TRP325     -0.2442
    130  CE2       26.5020   19.8760    0.9260 C.ar  325  TRP325      0.0810
    131  CE3       27.3540   19.9620    3.1810 C.ar  325  TRP325      0.0012
    132  CZ2       25.1930   19.8220    1.3710 C.ar  325  TRP325      0.0191
    133  CZ3       26.0580   19.9080    3.6190 C.ar  325  TRP325      0.0001
    134  CH2       24.9910   19.8390    2.7180 C.ar  325  TRP325      0.0015
    135  N         31.0580   22.5120    6.8760 N.3   328  PHE328     -0.1227
    136  CA        30.0960   21.7250    7.6520 C.3   328  PHE328      0.1736
    137  C         30.7200   20.4420    8.1900 C.2   328  PHE328      0.2595
    138  O         30.5870   20.1230    9.3770 O.2   328  PHE328     -0.2718
    139  CB        28.8490   21.3710    6.8330 C.3   328  PHE328      0.0547
    140  CG        27.8760   20.5260    7.6080 C.ar  328  PHE328     -0.0202
    141  CD1       26.9630   21.1090    8.4640 C.ar  328  PHE328     -0.0042
    142  CD2       27.9290   19.1480    7.5490 C.ar  328  PHE328     -0.0042
    143  CE1       26.0940   20.3150    9.2180 C.ar  328  PHE328     -0.0003
    144  CE2       27.0630   18.3710    8.3010 C.ar  328  PHE328     -0.0003
    145  CZ        26.1520   18.9550    9.1280 C.ar  328  PHE328     -0.0000
    146  N         31.3970   19.6830    7.3290 N.am  329  PHE329     -0.1976
    147  CA        31.8310   18.3530    7.7370 C.3   329  PHE329      0.1639
    148  C         33.1060   18.3960    8.5700 C.2   329  PHE329      0.2290
    149  O         33.2970   17.5510    9.4500 O.2   329  PHE329     -0.2864
    150  CB        31.9880   17.4580    6.5110 C.3   329  PHE329      0.0560
    151  CG        30.6880   16.9750    5.9700 C.ar  329  PHE329     -0.0200
    152  CD1       29.9490   16.0490    6.6770 C.ar  329  PHE329     -0.0042
    153  CD2       30.1540   17.4970    4.8110 C.ar  329  PHE329     -0.0042
    154  CE1       28.7170   15.6170    6.2110 C.ar  329  PHE329     -0.0003
    155  CE2       28.9180   17.0600    4.3450 C.ar  329  PHE329     -0.0003
    156  CZ        28.2080   16.1230    5.0480 C.ar  329  PHE329     -0.0000
    157  N         31.6950   19.2900   11.8330 N.3   332  ASN332     -0.1240
    158  CA        30.9690   18.1490   12.3790 C.3   332  ASN332      0.1653
    159  C         31.9240   17.0630   12.8640 C.2   332  ASN332      0.2266
    160  O         31.6620   16.4050   13.8780 O.2   332  ASN332     -0.2867
    161  CB        30.0150   17.6040   11.3170 C.3   332  ASN332      0.1155
    162  CG        28.8740   16.8090   11.9050 C.2   332  ASN332      0.2627
    163  OD1       28.3940   17.1000   13.0000 O.2   332  ASN332     -0.2716
    164  ND2       28.4310   15.7930   11.1750 N.am  332  ASN332     -0.0877
    165  N         28.4700   24.5220   17.7620 N.3   347  GLN347     -0.1245
    166  CA        27.1470   24.2070   17.2390 C.3   347  GLN347      0.1566
    167  C         26.5900   25.3650   16.4220 C.2   347  GLN347      0.2260
    168  O         25.9400   25.1450   15.3930 O.2   347  GLN347     -0.2867
    169  CB        26.1980   23.8480   18.3800 C.3   347  GLN347      0.0367
    170  CG        24.9180   23.1770   17.9260 C.3   347  GLN347      0.0905
    171  CD        25.1770   21.8450   17.2550 C.2   347  GLN347      0.2608
    172  OE1       26.1030   21.1210   17.6230 O.2   347  GLN347     -0.2717
    173  NE2       24.3640   21.5160   16.2590 N.am  347  GLN347     -0.0878
    174  N         27.9990   25.1810   12.9230 N.3   350  LEU350     -0.1231
    175  CA        27.2210   24.2510   12.1120 C.3   350  LEU350      0.1693
    176  C         25.9190   24.8930   11.6530 C.2   350  LEU350      0.2591
    177  O         25.5690   24.8360   10.4690 O.2   350  LEU350     -0.2718
    178  CB        26.9370   22.9710   12.8950 C.3   350  LEU350      0.0284
    179  CG        28.0910   21.9940   13.0950 C.3   350  LEU350      0.0019
    180  CD1       27.6370   20.8330   13.9580 C.3   350  LEU350      0.0001
    181  CD2       28.5930   21.5000   11.7510 C.3   350  LEU350      0.0001
    182  N         25.1990   25.5330   12.5800 N.am  351  GLU351     -0.1979
    183  CA        23.9280   26.1710   12.2520 C.3   351  GLU351      0.1602
    184  C         24.0710   27.2430   11.1790 C.2   351  GLU351      0.2287
    185  O         23.0660   27.6380   10.5800 O.2   351  GLU351     -0.2864
    186  CB        23.3060   26.7770   13.5120 C.3   351  GLU351      0.0415
    187  CG        22.7440   25.7670   14.5070 C.3   351  GLU351      0.1163
    188  CD        21.3950   25.2010   14.0830 C.2   351  GLU351      0.3649
    189  OE1       20.5000   25.9890   13.7150 O.co2 351  GLU351     -0.2457
    190  OE2       21.2230   23.9670   14.1370 O.co2 351  GLU351     -0.2457
    191  N         25.4100   24.9910    7.5080 N.3   354  VAL354     -0.1245
    192  CA        24.3920   24.1540    6.8730 C.3   354  VAL354      0.1561
    193  C         23.8080   24.8340    5.6460 C.2   354  VAL354      0.2260
    194  O         23.4010   24.1660    4.6890 O.2   354  VAL354     -0.2867
    195  CB        23.2830   23.7940    7.8850 C.3   354  VAL354      0.0252
    196  CG1       23.7700   22.7490    8.8600 C.3   354  VAL354      0.0019
    197  CG2       22.8230   25.0340    8.6200 C.3   354  VAL354      0.0019
    198  N         23.7270   23.8510    1.8920 N.3   358  TYR358     -0.1241
    199  CA        22.4020   23.8190    1.2770 C.3   358  TYR358      0.1605
    200  C         22.4010   24.5320   -0.0680 C.2   358  TYR358      0.2264
    201  O         21.9030   23.9980   -1.0660 O.2   358  TYR358     -0.2867
    202  CB        21.3710   24.4470    2.2140 C.3   358  TYR358      0.0534
    203  CG        20.8240   23.5150    3.2710 C.ar  358  TYR358     -0.0201
    204  CD1       20.8950   22.1350    3.1220 C.ar  358  TYR358     -0.0009
    205  CD2       20.2300   24.0200    4.4190 C.ar  358  TYR358     -0.0009
    206  CE1       20.3910   21.2860    4.0930 C.ar  358  TYR358      0.0417
    207  CE2       19.7260   23.1830    5.3910 C.ar  358  TYR358      0.0417
    208  CZ        19.8080   21.8180    5.2240 C.ar  358  TYR358      0.1957
    209  OH        19.3060   20.9810    6.1920 O.3   358  TYR358     -0.2866
@<TRIPOS>BOND
     1    54    53    2
     2    53    52    1
     3    52    51    1
     4    52    55    1
     5    57    55    1
     6    55    56    1
     7    47    46    2
     8   201   200    2
     9    56    58    1
    10    46    45    1
    11   129   127   ar
    12   129   130   ar
    13   127   126   ar
    14   200   199    1
    15    41    40    2
    16    45    44    1
    17    45    48    1
    18    40    44   am
    19    40    39    1
    20   130   132   ar
    21   130   128   ar
    22   126   125    1
    23   126   128   ar
    24   121   122    1
    25   199   198    1
    26   199   202    1
    27    38    39    1
    28    39    42    1
    29   132   134   ar
    30   125   122    1
    31    50    48    1
    32   120   119    2
    33    48    49    1
    34   128   131   ar
    35   122   123    1
    36   202   203    1
    37   119   118    1
    38   134   133   ar
    39    42    43    1
    40    66    64    1
    41   123   124    2
    42   204   203   ar
    43   204   206   ar
    44   131   133   ar
    45   118   117    1
    46   203   205   ar
    47    34    33    2
    48    64    63    1
    49    26    25    2
    50   206   208   ar
    51   155   153   ar
    52   155   156   ar
    53   205   207   ar
    54    33    32    1
    55    59    60    1
    56    63    60    1
    57    63    65    1
    58   194   193    2
    59   153   151   ar
    60   156   154   ar
    61    25    24    1
    62    25    31   am
    63   208   207   ar
    64   208   209    1
    65    24    23    1
    66    24    27    1
    67    60    61    1
    68   114   113    2
    69   193   192    1
    70    32    31    1
    71    32    35    1
    72   151   150    1
    73   151   152   ar
    74   154   152   ar
    75    61    62    2
    76    30    28   ar
    77   150   147    1
    78   110   109    2
    79    27    28    1
    80   113   112    1
    81    36    35    1
    82    28    29   ar
    83   139   140    1
    84   139   136    1
    85   192   191    1
    86   192   195    1
    87   135   136    1
    88    35    37    1
    89   146   147    1
    90   146   137   am
    91   112   111    1
    92   112   115    1
    93   142   140   ar
    94   142   144   ar
    95   140   141   ar
    96   136   137    1
    97   147   148    1
    98   109   111   am
    99   109   108    1
   100     4     3    2
   101     7     9   ar
   102     7     6   ar
   103     9    10   ar
   104   195   197    1
   105   195   196    1
   106   137   138    2
   107   144   145   ar
   108    18    17    2
   109   115   116    1
   110   141   143   ar
   111   148   149    2
   112   108   107    1
   113     2     3    1
   114     2     5    1
   115     2     1    1
   116     3    15   am
   117    17    16    1
   118     6     5    1
   119     6     8   ar
   120   145   143   ar
   121    10    12   ar
   122    10     8   ar
   123    12    14   ar
   124     8    11   ar
   125    15    16    1
   126    16    19    1
   127    96    98   ar
   128    96    94   ar
   129    98    97   ar
   130   177   176    2
   131   185   184    2
   132    14    13   ar
   133   164   162   am
   134   184   183    1
   135    11    13   ar
   136   161   162    1
   137   161   158    1
   138    94    93   ar
   139    97    95   ar
   140    19    20    1
   141   176   175    1
   142   176   182   am
   143    91    90    2
   144   181   179    1
   145   157   158    1
   146   162   163    2
   147   102   101    2
   148    22    20    1
   149   175   178    1
   150   175   174    1
   151   183   182    1
   152   183   186    1
   153   158   159    1
   154    20    21    1
   155    95    93   ar
   156    93    92    1
   157   101   100    1
   158   159   160    2
   159    90    89    1
   160    90    99   am
   161   178   179    1
   162    86    85    1
   163   179   180    1
   164   100    99    1
   165   100   103    1
   166    89    92    1
   167    89    88    1
   168   186   187    1
   169   189   188   ar
   170   188   190   ar
   171   188   187    1
   172    85    87    1
   173    85    84    1
   174   103   104    1
   175   104   105    1
   176    84    81    1
   177   168   167    2
   178   105   106    1
   179    71    72    1
   180    71    68    1
   181   173   171   am
   182   167   166    1
   183    80    81    1
   184    80    75   am
   185    81    82    1
   186    70    69    2
   187   166   165    1
   188   166   169    1
   189   171   172    2
   190   171   170    1
   191    69    68    1
   192    69    73   am
   193    74    75    1
   194    74    73    1
   195    74    77    1
   196    75    76    2
   197    68    67    1
   198    83    82    2
   199   170   169    1
   200    79    77    1
   201    77    78    1
