@<TRIPOS>MOLECULE
tmp/6drzA01.pdb
 105 101 0 0 0
SMALL
GASTEIGER

@<TRIPOS>ATOM
      1  N         19.9880    3.8360   -2.6840 N.3   140  LEU140     -0.1231
      2  CA        20.1470    2.8340   -1.6350 C.3   140  LEU140      0.1693
      3  C         21.2850    3.2030   -0.6930 C.2   140  LEU140      0.2591
      4  O         21.1660    3.0430    0.5280 O.2   140  LEU140     -0.2718
      5  CB        20.3820    1.4560   -2.2500 C.3   140  LEU140      0.0284
      6  CG        19.1500    0.7800   -2.8520 C.3   140  LEU140      0.0019
      7  CD1       19.5330   -0.5200   -3.5350 C.3   140  LEU140      0.0001
      8  CD2       18.1060    0.5380   -1.7790 C.3   140  LEU140      0.0001
      9  N         22.3960    3.6980   -1.2430 N.am  141  ILE141     -0.1980
     10  CA        23.4980    4.1740   -0.4080 C.3   141  ILE141      0.1595
     11  C         23.0200    5.2950    0.5040 C.2   141  ILE141      0.2287
     12  O         23.2750    5.2890    1.7140 O.2   141  ILE141     -0.2864
     13  CB        24.6810    4.6330   -1.2810 C.3   141  ILE141      0.0276
     14  CG1       25.2230    3.4740   -2.1170 C.3   141  ILE141      0.0022
     15  CG2       25.7830    5.2320   -0.4160 C.3   141  ILE141      0.0022
     16  CD1       26.3550    3.8800   -3.0350 C.3   141  ILE141      0.0001
     17  N         20.9590    4.0280    3.2380 N.3   144  GLY144     -0.1210
     18  CA        21.7660    3.2820    4.1930 C.3   144  GLY144      0.1956
     19  C         22.5330    4.1800    5.1430 C.2   144  GLY144      0.2611
     20  O         22.7340    3.8390    6.3120 O.2   144  GLY144     -0.2717
     21  N         22.9590    5.3450    4.6600 N.am  145  ILE145     -0.1979
     22  CA        23.6560    6.2870    5.5260 C.3   145  ILE145      0.1595
     23  C         22.6670    7.0760    6.3790 C.2   145  ILE145      0.2287
     24  O         23.0030    7.5030    7.4880 O.2   145  ILE145     -0.2864
     25  CB        24.5490    7.2150    4.6830 C.3   145  ILE145      0.0276
     26  CG1       25.5290    6.3970    3.8390 C.3   145  ILE145      0.0022
     27  CG2       25.3170    8.1830    5.5680 C.3   145  ILE145      0.0022
     28  CD1       26.5300    7.2420    3.0800 C.3   145  ILE145      0.0001
     29  N         20.2030    5.5750   10.4180 N.3   148  PRO148     -0.2116
     30  CA        20.4080    5.5730   11.8770 C.3   148  PRO148      0.1372
     31  C         19.6640    6.6800   12.6050 C.2   148  PRO148      0.2244
     32  O         19.3270    6.5050   13.7830 O.2   148  PRO148     -0.2868
     33  CB        21.9290    5.7290   12.0200 C.3   148  PRO148      0.0268
     34  CG        22.4770    5.1880   10.7670 C.3   148  PRO148      0.0207
     35  CD        21.5010    5.6200    9.7180 C.3   148  PRO148      0.0892
     36  N         17.3520    5.4170   15.6220 N.3   152  LYS152     -0.1245
     37  CA        17.7130    5.7080   17.0060 C.3   152  LYS152      0.1561
     38  C         16.6980    6.6410   17.6590 C.2   152  LYS152      0.2260
     39  O         16.2530    6.3960   18.7860 O.2   152  LYS152     -0.2867
     40  CB        19.1190    6.3060   17.0650 C.3   152  LYS152      0.0271
     41  CG        19.7370    6.3130   18.4500 C.3   152  LYS152      0.0035
     42  CD        21.2220    6.6230   18.3800 C.3   152  LYS152      0.0206
     43  CE        21.8870    6.4460   19.7330 C.3   152  LYS152      0.1093
     44  NZ        23.3630    6.6160   19.6470 N.3   152  LYS152     -0.1314
     45  N         24.6880   11.3880   22.0100 N.3   172  ARG172     -0.1231
     46  CA        23.7860   10.3870   21.4570 C.3   172  ARG172      0.1694
     47  C         24.2180    9.9150   20.0710 C.2   172  ARG172      0.2592
     48  O         24.2540    8.7080   19.8100 O.2   172  ARG172     -0.2718
     49  CB        22.3600   10.9460   21.4100 C.3   172  ARG172      0.0321
     50  CG        21.2880    9.9270   21.0580 C.3   172  ARG172      0.0489
     51  CD        19.9010   10.5510   21.1240 C.3   172  ARG172      0.2205
     52  NE        18.8450    9.5830   20.8430 N.pl3 172  ARG172     -0.0865
     53  CZ        18.1730    8.9180   21.7770 C.cat 172  ARG172      0.5346
     54  NH1       18.4460    9.1160   23.0600 N.pl3 172  ARG172      0.1354
     55  NH2       17.2280    8.0560   21.4300 N.pl3 172  ARG172      0.1354
     56  N         24.5570   10.8450   19.1770 N.am  173  PHE173     -0.1976
     57  CA        24.8430   10.5310   17.7810 C.3   173  PHE173      0.1639
     58  C         26.2970   10.7930   17.3990 C.2   173  PHE173      0.2290
     59  O         26.5880   11.0840   16.2380 O.2   173  PHE173     -0.2864
     60  CB        23.9190   11.3210   16.8550 C.3   173  PHE173      0.0560
     61  CG        22.4930   10.8590   16.8740 C.ar  173  PHE173     -0.0200
     62  CD1       22.0880    9.7900   16.0920 C.ar  173  PHE173     -0.0042
     63  CD2       21.5530   11.4990   17.6630 C.ar  173  PHE173     -0.0042
     64  CE1       20.7720    9.3630   16.1020 C.ar  173  PHE173     -0.0003
     65  CE2       20.2350   11.0770   17.6760 C.ar  173  PHE173     -0.0003
     66  CZ        19.8450   10.0070   16.8960 C.ar  173  PHE173     -0.0000
     67  N         29.0770    8.7470   17.1660 N.3   175  ASP175     -0.1225
     68  CA        29.5960    7.8170   16.1680 C.3   175  ASP175      0.1805
     69  C         28.9480    8.0330   14.8070 C.2   175  ASP175      0.2597
     70  O         29.5930    7.8240   13.7730 O.2   175  ASP175     -0.2718
     71  CB        29.3870    6.3760   16.6350 C.3   175  ASP175      0.1424
     72  CG        30.2040    5.9800   17.8060 C.2   175  ASP175      0.3668
     73  OD1       31.2480    6.6380   18.1000 O.co2 175  ASP175     -0.2456
     74  OD2       29.8680    4.9270   18.4440 O.co2 175  ASP175     -0.2456
     75  N         27.6820    8.4580   14.7820 N.am  176  PHE176     -0.1976
     76  CA        27.0270    8.7300   13.5080 C.3   176  PHE176      0.1639
     77  C         27.5380   10.0240   12.8870 C.2   176  PHE176      0.2290
     78  O         27.6920   10.1130   11.6640 O.2   176  PHE176     -0.2864
     79  CB        25.5110    8.7880   13.6880 C.3   176  PHE176      0.0560
     80  CG        24.7910    9.3440   12.4970 C.ar  176  PHE176     -0.0200
     81  CD1       24.5800    8.5620   11.3730 C.ar  176  PHE176     -0.0042
     82  CD2       24.3410   10.6530   12.4920 C.ar  176  PHE176     -0.0042
     83  CE1       23.9270    9.0720   10.2710 C.ar  176  PHE176     -0.0003
     84  CE2       23.6890   11.1700   11.3930 C.ar  176  PHE176     -0.0003
     85  CZ        23.4820   10.3780   10.2800 C.ar  176  PHE176     -0.0000
     86  N         31.2340    8.5370   11.5220 N.3   179  PHE179     -0.1227
     87  CA        31.2250    7.5710   10.4270 C.3   179  PHE179      0.1736
     88  C         30.2040    7.9260    9.3520 C.2   179  PHE179      0.2596
     89  O         30.3800    7.5460    8.1880 O.2   179  PHE179     -0.2718
     90  CB        30.9590    6.1710   10.9730 C.3   179  PHE179      0.0547
     91  CG        32.0770    5.6270   11.8120 C.ar  179  PHE179     -0.0202
     92  CD1       32.1780    5.9580   13.1530 C.ar  179  PHE179     -0.0042
     93  CD2       33.0250    4.7810   11.2620 C.ar  179  PHE179     -0.0042
     94  CE1       33.2020    5.4580   13.9290 C.ar  179  PHE179     -0.0003
     95  CE2       34.0540    4.2760   12.0340 C.ar  179  PHE179     -0.0003
     96  CZ        34.1420    4.6160   13.3700 C.ar  179  PHE179     -0.0000
     97  N         29.1270    8.6270    9.7150 N.am  180  GLY180     -0.1957
     98  CA        28.1930    9.0940    8.7030 C.3   180  GLY180      0.1869
     99  C         28.8080   10.1380    7.7920 C.2   180  GLY180      0.2309
    100  O         28.5090   10.1880    6.5950 O.2   180  GLY180     -0.2863
    101  N         31.4300    8.0550    5.5620 N.3   183  ALA183     -0.1245
    102  CA        30.7900    7.3350    4.4690 C.3   183  ALA183      0.1562
    103  C         30.0240    8.2670    3.5400 C.2   183  ALA183      0.2260
    104  O         29.8140    7.9330    2.3690 O.2   183  ALA183     -0.2867
    105  CB        29.8530    6.2630    5.0220 C.3   183  ALA183      0.0290
@<TRIPOS>BOND
     1     7     6    1
     2    16    14    1
     3     6     5    1
     4     6     8    1
     5     1     2    1
     6     5     2    1
     7    14    13    1
     8     2     3    1
     9    13    15    1
    10    13    10    1
    11     9     3   am
    12     9    10    1
    13     3     4    2
    14    10    11    1
    15    11    12    2
    16   104   103    2
    17    28    26    1
    18    17    18    1
    19   103   102    1
    20    26    25    1
    21    18    19    1
    22   102   105    1
    23   102   101    1
    24    21    19   am
    25    21    22    1
    26    25    22    1
    27    25    27    1
    28    19    20    2
    29    22    23    1
    30    23    24    2
    31   100    99    2
    32    99    98    1
    33    89    88    2
    34    98    97    1
    35    88    97   am
    36    88    87    1
    37    35    29    1
    38    35    34    1
    39    83    85   ar
    40    83    81   ar
    41    85    84   ar
    42    29    30    1
    43    87    90    1
    44    87    86    1
    45    34    33    1
    46    90    91    1
    47    93    91   ar
    48    93    95   ar
    49    81    80   ar
    50    84    82   ar
    51    78    77    2
    52    91    92   ar
    53    30    33    1
    54    30    31    1
    55    95    96   ar
    56    82    80   ar
    57    80    79    1
    58    31    32    2
    59    77    76    1
    60    92    94   ar
    61    96    94   ar
    62    76    79    1
    63    76    75    1
    64    70    69    2
    65    75    69   am
    66    69    68    1
    67    36    37    1
    68    62    64   ar
    69    62    61   ar
    70    64    66   ar
    71    68    71    1
    72    68    67    1
    73    59    58    2
    74    71    72    1
    75    60    61    1
    76    60    57    1
    77    61    63   ar
    78    66    65   ar
    79    37    40    1
    80    37    38    1
    81    40    41    1
    82    58    57    1
    83    38    39    2
    84    63    65   ar
    85    57    56    1
    86    72    73   ar
    87    72    74   ar
    88    42    41    1
    89    42    43    1
    90    56    47   am
    91    44    43    1
    92    48    47    2
    93    47    46    1
    94    52    51    1
    95    52    53    2
    96    50    51    1
    97    50    49    1
    98    49    46    1
    99    55    53    1
   100    46    45    1
   101    53    54    1
