@<TRIPOS>MOLECULE
tmp/6ds0A03.pdb
 222 215 0 0 0
SMALL
GASTEIGER

@<TRIPOS>ATOM
      1  N         11.6910   23.5900    8.0350 N.3    64  ALA64      -0.1245
      2  CA        12.9100   24.1680    8.5860 C.3    64  ALA64       0.1562
      3  C         12.7520   25.6490    8.8970 C.2    64  ALA64       0.2260
      4  O         13.4970   26.1790    9.7290 O.2    64  ALA64      -0.2867
      5  CB        14.0750   23.9500    7.6210 C.3    64  ALA64       0.0290
      6  N         11.6210   26.3610   12.6770 N.3    67  THR67      -0.1218
      7  CA        12.6600   26.5100   13.6880 C.3    67  THR67       0.1862
      8  C         13.1590   27.9470   13.7770 C.2    67  THR67       0.2287
      9  O         13.7140   28.3380   14.8100 O.2    67  THR67      -0.2866
     10  CB        13.8250   25.5660   13.3840 C.3    67  THR67       0.1770
     11  OG1       13.3140   24.2950   12.9650 O.3    67  THR67      -0.2211
     12  CG2       14.6950   25.3660   14.6190 C.3    67  THR67       0.0375
     13  N         10.0650   14.1950    9.3430 N.3    84  TRP84      -0.1227
     14  CA        10.7270   15.3350    8.7160 C.3    84  TRP84       0.1737
     15  C         12.2400   15.1870    8.7770 C.2    84  TRP84       0.2595
     16  O         12.9400   15.4120    7.7830 O.2    84  TRP84      -0.2718
     17  CB        10.2910   16.6340    9.3910 C.3    84  TRP84       0.0564
     18  CG        11.0990   17.8160    8.9620 C.ar   84  TRP84       0.0003
     19  CD1       11.0140   18.4750    7.7720 C.ar   84  TRP84       0.0946
     20  CD2       12.1210   18.4820    9.7170 C.ar   84  TRP84       0.0152
     21  NE1       11.9170   19.5090    7.7360 N.ar   84  TRP84      -0.2442
     22  CE2       12.6080   19.5360    8.9190 C.ar   84  TRP84       0.0810
     23  CE3       12.6700   18.2900   10.9880 C.ar   84  TRP84       0.0012
     24  CZ2       13.6190   20.3960    9.3510 C.ar   84  TRP84       0.0191
     25  CZ3       13.6720   19.1450   11.4160 C.ar   84  TRP84       0.0001
     26  CH2       14.1360   20.1840   10.5990 C.ar   84  TRP84       0.0015
     27  N         12.7640   14.8100    9.9460 N.am   85  LEU85      -0.1980
     28  CA        14.2000   14.6000   10.0830 C.3    85  LEU85       0.1596
     29  C         14.6870   13.4600    9.2010 C.2    85  LEU85       0.2287
     30  O         15.8110   13.5100    8.6890 O.2    85  LEU85      -0.2864
     31  CB        14.5500   14.3310   11.5440 C.3    85  LEU85       0.0297
     32  CG        14.6830   15.5730   12.4210 C.3    85  LEU85       0.0022
     33  CD1       14.8870   15.1790   13.8720 C.3    85  LEU85       0.0001
     34  CD2       15.8390   16.4250   11.9230 C.3    85  LEU85       0.0001
     35  N         14.7020   14.8490    5.7080 N.3    88  ASP88      -0.1225
     36  CA        15.7730   15.8300    5.5740 C.3    88  ASP88       0.1805
     37  C         17.0980   15.1510    5.2500 C.2    88  ASP88       0.2597
     38  O         17.7610   15.4920    4.2630 O.2    88  ASP88      -0.2718
     39  CB        15.8770   16.6590    6.8550 C.3    88  ASP88       0.1424
     40  CG        17.0200   17.6550    6.8220 C.2    88  ASP88       0.3668
     41  OD1       18.1920   17.2310    6.8640 O.co2  88  ASP88      -0.2456
     42  OD2       16.7490   18.8700    6.7530 O.co2  88  ASP88      -0.2456
     43  N         17.5020   14.1840    6.0760 N.am   89  VAL89      -0.1980
     44  CA        18.7680   13.4980    5.8460 C.3    89  VAL89       0.1595
     45  C         18.7100   12.6670    4.5710 C.2    89  VAL89       0.2287
     46  O         19.7170   12.5270    3.8650 O.2    89  VAL89      -0.2864
     47  CB        19.1320   12.6360    7.0700 C.3    89  VAL89       0.0276
     48  CG1       20.5220   12.0390    6.9140 C.3    89  VAL89       0.0022
     49  CG2       19.0480   13.4610    8.3430 C.3    89  VAL89       0.0022
     50  N         18.8650   15.1430    1.3830 N.3    92  SER92      -0.1202
     51  CA        20.1540   15.8260    1.3650 C.3    92  SER92       0.2020
     52  C         21.2880   14.8720    1.0190 C.2    92  SER92       0.2619
     53  O         22.2810   15.2870    0.4100 O.2    92  SER92      -0.2717
     54  CB        20.4140   16.5000    2.7100 C.3    92  SER92       0.2103
     55  OG        19.5250   17.5840    2.9100 O.3    92  SER92      -0.2182
     56  N         21.1610   13.5960    1.3910 N.am   93  THR93      -0.1952
     57  CA        22.1730   12.6120    1.0300 C.3    93  THR93       0.1897
     58  C         22.0240   12.1490   -0.4130 C.2    93  THR93       0.2313
     59  O         23.0290   11.8600   -1.0740 O.2    93  THR93      -0.2863
     60  CB        22.1040   11.4130    1.9770 C.3    93  THR93       0.1794
     61  OG1       22.1660   11.8710    3.3330 O.3    93  THR93      -0.2208
     62  CG2       23.2630   10.4630    1.7250 C.3    93  THR93       0.0378
     63  N         21.3680    5.4450    5.0720 N.3   137  ILE137     -0.1245
     64  CA        22.0480    6.4900    5.8280 C.3   137  ILE137      0.1561
     65  C         21.0540    7.2710    6.6780 C.2   137  ILE137      0.2260
     66  O         21.3660    7.6760    7.8020 O.2   137  ILE137     -0.2867
     67  CB        22.8360    7.4080    4.8750 C.3   137  ILE137      0.0252
     68  CG1       23.9760    6.6350    4.2090 C.3   137  ILE137      0.0019
     69  CG2       23.3970    8.6050    5.6230 C.3   137  ILE137      0.0019
     70  CD1       24.8980    7.4980    3.3830 C.3   137  ILE137      0.0001
     71  N         15.4660   18.0890   17.2140 N.3   156  VAL156     -0.1231
     72  CA        16.8030   18.2860   16.6650 C.3   156  VAL156      0.1692
     73  C         17.6740   17.1310   17.1330 C.2   156  VAL156      0.2591
     74  O         17.4720   16.5830   18.2200 O.2   156  VAL156     -0.2718
     75  CB        17.3880   19.6610   17.0810 C.3   156  VAL156      0.0266
     76  CG1       17.7480   19.6720   18.5580 C.3   156  VAL156      0.0020
     77  CG2       18.5900   20.0190   16.2150 C.3   156  VAL156      0.0020
     78  N         18.6360   16.7480   16.2970 N.am  157  LEU157     -0.1980
     79  CA        19.5720   15.6960   16.6670 C.3   157  LEU157      0.1596
     80  C         20.5570   16.2240   17.7020 C.2   157  LEU157      0.2287
     81  O         21.1490   17.2910   17.5200 O.2   157  LEU157     -0.2864
     82  CB        20.3190   15.1880   15.4340 C.3   157  LEU157      0.0297
     83  CG        19.5020   14.7760   14.2080 C.3   157  LEU157      0.0022
     84  CD1       20.4230   14.3190   13.0850 C.3   157  LEU157      0.0001
     85  CD2       18.5010   13.6880   14.5620 C.3   157  LEU157      0.0001
     86  N         26.1210    8.7700   14.9120 N.3   165  PHE165     -0.1227
     87  CA        25.4560    8.9520   13.6270 C.3   165  PHE165      0.1736
     88  C         25.8290   10.2850   12.9910 C.2   165  PHE165      0.2595
     89  O         25.9480   10.3800   11.7660 O.2   165  PHE165     -0.2718
     90  CB        23.9450    8.8460   13.7980 C.3   165  PHE165      0.0547
     91  CG        23.1750    9.2790   12.5880 C.ar  165  PHE165     -0.0202
     92  CD1       23.2540    8.5580   11.4100 C.ar  165  PHE165     -0.0042
     93  CD2       22.3770   10.4080   12.6240 C.ar  165  PHE165     -0.0042
     94  CE1       22.5510    8.9530   10.2940 C.ar  165  PHE165     -0.0003
     95  CE2       21.6690   10.8080   11.5110 C.ar  165  PHE165     -0.0003
     96  CZ        21.7550   10.0780   10.3430 C.ar  165  PHE165     -0.0000
     97  N         26.0040   11.3290   13.8050 N.am  166  MET166     -0.1979
     98  CA        26.4500   12.6120   13.2730 C.3   166  MET166      0.1605
     99  C         27.8410   12.5130   12.6610 C.2   166  MET166      0.2287
    100  O         28.1800   13.2940   11.7650 O.2   166  MET166     -0.2864
    101  CB        26.4380   13.6700   14.3730 C.3   166  MET166      0.0413
    102  CG        25.0680   14.2310   14.7000 C.3   166  MET166      0.0598
    103  SD        25.1180   15.2510   16.1860 S.3   166  MET166     -0.1393
    104  CE        23.6620   16.2540   15.9480 C.3   166  MET166      0.0692
    105  N         27.7500    8.9690    9.9270 N.3   169  GLY169     -0.1210
    106  CA        26.8150    9.3650    8.8870 C.3   169  GLY169      0.1956
    107  C         27.3850   10.4370    7.9800 C.2   169  GLY169      0.2612
    108  O         27.2600   10.3620    6.7560 O.2   169  GLY169     -0.2717
    109  N         28.0220   11.4520    8.5720 N.am  170  SER170     -0.1952
    110  CA        28.6890   12.4720    7.7690 C.3   170  SER170      0.1924
    111  C         29.7730   11.8590    6.8920 C.2   170  SER170      0.2314
    112  O         29.9530   12.2660    5.7390 O.2   170  SER170     -0.2863
    113  CB        29.2860   13.5500    8.6730 C.3   170  SER170      0.2116
    114  OG        28.2730   14.2730    9.3500 O.3   170  SER170     -0.2180
    115  N         27.8210   10.0810    4.0610 N.3   173  ALA173     -0.1245
    116  CA        26.9240   10.9000    3.2570 C.3   173  ALA173      0.1562
    117  C         27.6460   11.9640    2.4430 C.2   173  ALA173      0.2260
    118  O         27.1610   12.3410    1.3700 O.2   173  ALA173     -0.2867
    119  CB        25.8780   11.5720    4.1520 C.3   173  ALA173      0.0290
    120  N         28.6430   22.5930    0.9790 N.3   305  TRP305     -0.1241
    121  CA        28.2930   21.6590    2.0400 C.3   305  TRP305      0.1605
    122  C         29.4380   21.4080    3.0120 C.2   305  TRP305      0.2264
    123  O         29.2150   20.7960    4.0620 O.2   305  TRP305     -0.2867
    124  CB        27.8360   20.3180    1.4520 C.3   305  TRP305      0.0550
    125  CG        26.3760   20.2520    1.1190 C.ar  305  TRP305      0.0003
    126  CD1       25.8190   20.2100   -0.1260 C.ar  305  TRP305      0.0946
    127  CD2       25.2850   20.2110    2.0470 C.ar  305  TRP305      0.0152
    128  NE1       24.4500   20.1460   -0.0320 N.ar  305  TRP305     -0.2442
    129  CE2       24.0960   20.1450    1.2910 C.ar  305  TRP305      0.0810
    130  CE3       25.1960   20.2250    3.4420 C.ar  305  TRP305      0.0012
    131  CZ2       22.8360   20.0940    1.8830 C.ar  305  TRP305      0.0191
    132  CZ3       23.9430   20.1740    4.0280 C.ar  305  TRP305      0.0001
    133  CH2       22.7810   20.1100    3.2500 C.ar  305  TRP305      0.0015
    134  N         28.8530   22.7590    6.7550 N.3   308  PHE308     -0.1227
    135  CA        27.9630   22.0020    7.6300 C.3   308  PHE308      0.1736
    136  C         28.6260   20.7270    8.1360 C.2   308  PHE308      0.2595
    137  O         28.6550   20.4710    9.3440 O.2   308  PHE308     -0.2718
    138  CB        26.6600   21.6690    6.9070 C.3   308  PHE308      0.0547
    139  CG        25.8360   20.6290    7.6100 C.ar  308  PHE308     -0.0202
    140  CD1       25.0700   20.9620    8.7120 C.ar  308  PHE308     -0.0042
    141  CD2       25.8390   19.3150    7.1770 C.ar  308  PHE308     -0.0042
    142  CE1       24.3150   20.0040    9.3660 C.ar  308  PHE308     -0.0003
    143  CE2       25.0860   18.3540    7.8280 C.ar  308  PHE308     -0.0003
    144  CZ        24.3230   18.7010    8.9220 C.ar  308  PHE308     -0.0000
    145  N         29.1570   19.9080    7.2260 N.am  309  PHE309     -0.1976
    146  CA        29.6680   18.6020    7.6260 C.3   309  PHE309      0.1639
    147  C         30.9910   18.6900    8.3710 C.2   309  PHE309      0.2290
    148  O         31.3400   17.7500    9.0940 O.2   309  PHE309     -0.2864
    149  CB        29.8040   17.6910    6.4060 C.3   309  PHE309      0.0560
    150  CG        28.4910   17.1760    5.8990 C.ar  309  PHE309     -0.0200
    151  CD1       27.8010   16.2000    6.6000 C.ar  309  PHE309     -0.0042
    152  CD2       27.9370   17.6750    4.7320 C.ar  309  PHE309     -0.0042
    153  CE1       26.5880   15.7270    6.1440 C.ar  309  PHE309     -0.0003
    154  CE2       26.7240   17.2050    4.2730 C.ar  309  PHE309     -0.0003
    155  CZ        26.0490   16.2310    4.9810 C.ar  309  PHE309     -0.0000
    156  N         29.4500   19.7180   11.6600 N.3   312  ASN312     -0.1240
    157  CA        28.7090   18.5670   12.1670 C.3   312  ASN312      0.1653
    158  C         29.6370   17.5440   12.8080 C.2   312  ASN312      0.2266
    159  O         29.2500   16.8650   13.7650 O.2   312  ASN312     -0.2867
    160  CB        27.9130   17.9240   11.0310 C.3   312  ASN312      0.1155
    161  CG        26.6800   17.1970   11.5190 C.2   312  ASN312      0.2627
    162  OD1       26.0690   17.5840   12.5150 O.2   312  ASN312     -0.2716
    163  ND2       26.3030   16.1370   10.8150 N.am  312  ASN312     -0.0877
    164  N         25.8960   25.1150   17.5110 N.3   327  GLN327     -0.1245
    165  CA        24.5850   24.8000   16.9560 C.3   327  GLN327      0.1566
    166  C         23.9670   26.0150   16.2770 C.2   327  GLN327      0.2260
    167  O         23.1370   25.8650   15.3730 O.2   327  GLN327     -0.2867
    168  CB        23.6690   24.2670   18.0570 C.3   327  GLN327      0.0367
    169  CG        24.2360   23.0550   18.7810 C.3   327  GLN327      0.0905
    170  CD        23.7870   22.9720   20.2290 C.2   327  GLN327      0.2608
    171  OE1       22.7380   23.5000   20.5980 O.2   327  GLN327     -0.2717
    172  NE2       24.5890   22.3140   21.0610 N.am  327  GLN327     -0.0878
    173  N         25.2600   25.4960   12.7880 N.3   330  LEU330     -0.1231
    174  CA        24.4980   24.4820   12.0660 C.3   330  LEU330      0.1693
    175  C         23.1470   25.0240   11.6210 C.2   330  LEU330      0.2591
    176  O         22.6850   24.7250   10.5140 O.2   330  LEU330     -0.2718
    177  CB        24.3120   23.2400   12.9380 C.3   330  LEU330      0.0284
    178  CG        25.5560   22.4090   13.2500 C.3   330  LEU330      0.0019
    179  CD1       25.1660   21.1140   13.9430 C.3   330  LEU330      0.0001
    180  CD2       26.3340   22.1250   11.9790 C.3   330  LEU330      0.0001
    181  N         22.5000   25.8260   12.4730 N.am  331  GLU331     -0.1979
    182  CA        21.2420   26.4670   12.1010 C.3   331  GLU331      0.1602
    183  C         21.3900   27.3000   10.8330 C.2   331  GLU331      0.2287
    184  O         20.4390   27.4170   10.0510 O.2   331  GLU331     -0.2864
    185  CB        20.7480   27.3350   13.2620 C.3   331  GLU331      0.0415
    186  CG        19.5350   28.2050   12.9600 C.3   331  GLU331      0.1163
    187  CD        18.2300   27.5610   13.3790 C.2   331  GLU331      0.3649
    188  OE1       17.3410   27.3960   12.5170 O.co2 331  GLU331     -0.2457
    189  OE2       18.0940   27.2180   14.5730 O.co2 331  GLU331     -0.2457
    190  N         23.2600   24.8260    7.5000 N.3   334  VAL334     -0.1231
    191  CA        22.3270   23.9410    6.8110 C.3   334  VAL334      0.1692
    192  C         21.6900   24.6550    5.6270 C.2   334  VAL334      0.2592
    193  O         21.5670   24.0900    4.5340 O.2   334  VAL334     -0.2718
    194  CB        21.2680   23.4150    7.7970 C.3   334  VAL334      0.0266
    195  CG1       20.0480   22.9360    7.0560 C.3   334  VAL334      0.0020
    196  CG2       21.8400   22.2860    8.6220 C.3   334  VAL334      0.0020
    197  N         21.2900   25.9140    5.8200 N.am  335  TRP335     -0.1976
    198  CA        20.6580   26.6690    4.7460 C.3   335  TRP335      0.1640
    199  C         21.6130   26.9620    3.5960 C.2   335  TRP335      0.2290
    200  O         21.1510   27.1750    2.4700 O.2   335  TRP335     -0.2864
    201  CB        20.0670   27.9680    5.2970 C.3   335  TRP335      0.0576
    202  CG        18.8360   27.7370    6.1200 C.ar  335  TRP335      0.0006
    203  CD1       18.7510   27.7130    7.4810 C.ar  335  TRP335      0.0946
    204  CD2       17.5150   27.4800    5.6300 C.ar  335  TRP335      0.0152
    205  NE1       17.4560   27.4620    7.8690 N.ar  335  TRP335     -0.2442
    206  CE2       16.6780   27.3160    6.7510 C.ar  335  TRP335      0.0810
    207  CE3       16.9570   27.3770    4.3520 C.ar  335  TRP335      0.0012
    208  CZ2       15.3140   27.0560    6.6330 C.ar  335  TRP335      0.0191
    209  CZ3       15.6030   27.1150    4.2370 C.ar  335  TRP335      0.0001
    210  CH2       14.7980   26.9580    5.3700 C.ar  335  TRP335      0.0015
    211  N         21.3110   23.8320    1.7430 N.3   338  TYR338     -0.1241
    212  CA        19.9840   23.8780    1.1350 C.3   338  TYR338      0.1605
    213  C         20.0050   24.6660   -0.1690 C.2   338  TYR338      0.2264
    214  O         19.3670   24.2710   -1.1530 O.2   338  TYR338     -0.2867
    215  CB        18.9810   24.4950    2.1080 C.3   338  TYR338      0.0534
    216  CG        18.4840   23.5530    3.1780 C.ar  338  TYR338     -0.0201
    217  CD1       18.8550   22.2150    3.1850 C.ar  338  TYR338     -0.0009
    218  CD2       17.6270   24.0010    4.1740 C.ar  338  TYR338     -0.0009
    219  CE1       18.3950   21.3520    4.1610 C.ar  338  TYR338      0.0417
    220  CE2       17.1600   23.1470    5.1520 C.ar  338  TYR338      0.0417
    221  CZ        17.5450   21.8240    5.1410 C.ar  338  TYR338      0.1957
    222  OH        17.0810   20.9770    6.1200 O.3   338  TYR338     -0.2866
@<TRIPOS>BOND
     1   214   213    2
     2    59    58    2
     3    58    57    1
     4   213   212    1
     5   126   128   ar
     6   126   125   ar
     7   128   129   ar
     8    53    52    2
     9   120   121    1
    10    52    51    1
    11    52    56   am
    12    57    56    1
    13    57    60    1
    14   125   124    1
    15   125   127   ar
    16   212   211    1
    17   212   215    1
    18   129   131   ar
    19   129   127   ar
    20    51    50    1
    21    51    54    1
    22   118   117    2
    23   124   121    1
    24    62    60    1
    25   131   133   ar
    26    60    61    1
    27   121   122    1
    28   127   130   ar
    29   215   216    1
    30   117   116    1
    31   200   199    2
    32    54    55    1
    33   122   123    2
    34   216   217   ar
    35   216   218   ar
    36   217   219   ar
    37   133   132   ar
    38   116   115    1
    39   116   119    1
    40    70    68    1
    41   130   132   ar
    42   199   198    1
    43    46    45    2
    44   219   221   ar
    45   218   220   ar
    46    68    67    1
    47   209   207   ar
    48   209   210   ar
    49    38    37    2
    50   154   152   ar
    51   154   155   ar
    52   207   204   ar
    53   193   192    2
    54    45    44    1
    55   152   150   ar
    56   198   201    1
    57   198   197    1
    58    67    69    1
    59    67    64    1
    60   155   153   ar
    61    63    64    1
    62   221   220   ar
    63   221   222    1
    64    37    36    1
    65    37    43   am
    66   201   202    1
    67   210   208   ar
    68    36    35    1
    69    36    39    1
    70   192   197   am
    71   192   191    1
    72   204   202   ar
    73   204   206   ar
    74   112   111    2
    75    64    65    1
    76    44    43    1
    77    44    47    1
    78   150   149    1
    79   150   151   ar
    80   202   203   ar
    81   153   151   ar
    82   149   146    1
    83   208   206   ar
    84    65    66    2
    85   206   205   ar
    86    42    40   ar
    87   134   135    1
    88   108   107    2
    89   191   190    1
    90   191   194    1
    91    40    39    1
    92    40    41   ar
    93   111   110    1
    94   138   139    1
    95   138   135    1
    96    48    47    1
    97   195   194    1
    98    47    49    1
    99   141   139   ar
   100   141   143   ar
   101   145   146    1
   102   145   136   am
   103   203   205   ar
   104   139   140   ar
   105     5     2    1
   106   146   147    1
   107   135   136    1
   108    21    19   ar
   109    21    22   ar
   110   110   109    1
   111   110   113    1
   112    19    18   ar
   113    16    15    2
   114   194   196    1
   115   143   144   ar
   116   107   109   am
   117   107   106    1
   118     1     2    1
   119   136   137    2
   120   147   148    2
   121     2     3    1
   122   113   114    1
   123    30    29    2
   124   140   142   ar
   125    14    15    1
   126    14    13    1
   127    14    17    1
   128    15    27   am
   129   106   105    1
   130     3     4    2
   131    22    24   ar
   132    22    20   ar
   133   144   142   ar
   134    18    17    1
   135    18    20   ar
   136    29    28    1
   137    24    26   ar
   138    20    23   ar
   139    27    28    1
   140   184   183    2
   141    28    31    1
   142    94    96   ar
   143    94    92   ar
   144    96    95   ar
   145   176   175    2
   146    26    25   ar
   147   163   161   am
   148   183   182    1
   149    23    25   ar
   150   160   161    1
   151   160   157    1
   152    92    91   ar
   153    95    93   ar
   154   161   162    2
   155    31    32    1
   156   175   174    1
   157   175   181   am
   158   156   157    1
   159   100    99    2
   160    89    88    2
   161    34    32    1
   162   180   178    1
   163   174   173    1
   164   174   177    1
   165   182   181    1
   166   182   185    1
   167   157   158    1
   168    32    33    1
   169   188   187   ar
   170    91    93   ar
   171    91    90    1
   172    99    98    1
   173     6     7    1
   174   158   159    2
   175   177   178    1
   176   186   185    1
   177   186   187    1
   178    11    10    1
   179    88    87    1
   180    88    97   am
   181    84    83    1
   182   178   179    1
   183    98    97    1
   184    98   101    1
   185   187   189   ar
   186    10     7    1
   187    10    12    1
   188    87    90    1
   189    87    86    1
   190     7     8    1
   191     8     9    2
   192    83    85    1
   193    83    82    1
   194   101   102    1
   195   102   103    1
   196   167   166    2
   197    82    79    1
   198   104   103    1
   199    77    75    1
   200   166   165    1
   201    78    79    1
   202    78    73   am
   203    72    75    1
   204    72    73    1
   205    72    71    1
   206    79    80    1
   207   165   164    1
   208   165   168    1
   209    75    76    1
   210    73    74    2
   211    81    80    2
   212   168   169    1
   213   169   170    1
   214   170   171    2
   215   170   172   am
