@<TRIPOS>MOLECULE
tmp/6dspB00.pdb
 143 140 0 0 0
SMALL
GASTEIGER

@<TRIPOS>ATOM
      1  N         32.4680   95.2080   94.0170 N.3     8  LYS8       -0.1245
      2  CA        31.9700   93.8340   94.1010 C.3     8  LYS8        0.1561
      3  C         33.1200   92.8430   94.2010 C.2     8  LYS8        0.2260
      4  O         32.9820   91.7990   94.8430 O.2     8  LYS8       -0.2867
      5  CB        31.1080   93.4760   92.8910 C.3     8  LYS8        0.0271
      6  CG        29.7590   94.1830   92.8650 C.3     8  LYS8        0.0035
      7  CD        28.9910   93.7250   91.6460 C.3     8  LYS8        0.0206
      8  CE        27.5910   94.3200   91.5540 C.3     8  LYS8        0.1093
      9  NZ        26.9570   93.9080   90.2570 N.3     8  LYS8       -0.1314
     10  N         36.2820   96.6970   85.4540 N.3    14  PHE14      -0.1227
     11  CA        35.2830   97.7160   85.7780 C.3    14  PHE14       0.1736
     12  C         35.6060   98.3750   87.1150 C.2    14  PHE14       0.2595
     13  O         35.5340   99.6070   87.2550 O.2    14  PHE14      -0.2718
     14  CB        33.9010   97.0730   85.8140 C.3    14  PHE14       0.0547
     15  CG        32.8010   98.0070   86.2240 C.ar   14  PHE14      -0.0202
     16  CD1       32.1550   98.7970   85.2910 C.ar   14  PHE14      -0.0042
     17  CD2       32.4270   98.1040   87.5620 C.ar   14  PHE14      -0.0042
     18  CE1       31.1150   99.6650   85.6740 C.ar   14  PHE14      -0.0003
     19  CE2       31.4010   98.9550   87.9610 C.ar   14  PHE14      -0.0003
     20  CZ        30.7520   99.7540   87.0340 C.ar   14  PHE14      -0.0000
     21  N         35.9610   97.5620   88.1080 N.am   15  PHE15      -0.1976
     22  CA        36.1760   98.0910   89.4450 C.3    15  PHE15       0.1639
     23  C         37.5420   98.7380   89.5850 C.2    15  PHE15       0.2290
     24  O         37.6710   99.7640   90.2610 O.2    15  PHE15      -0.2864
     25  CB        35.9500   96.9670   90.4440 C.3    15  PHE15       0.0560
     26  CG        34.5400   96.5270   90.4640 C.ar   15  PHE15      -0.0200
     27  CD1       33.5860   97.3320   91.0620 C.ar   15  PHE15      -0.0042
     28  CD2       34.1260   95.3850   89.7870 C.ar   15  PHE15      -0.0042
     29  CE1       32.2510   97.0030   91.0040 C.ar   15  PHE15      -0.0003
     30  CE2       32.7670   95.0280   89.7290 C.ar   15  PHE15      -0.0003
     31  CZ        31.8370   95.8300   90.3650 C.ar   15  PHE15      -0.0000
     32  N         26.7620  101.7140   91.8100 N.3    89  ASP89      -0.1239
     33  CA        26.7410  100.5690   90.8930 C.3    89  ASP89       0.1674
     34  C         25.6130   99.5840   91.1910 C.2    89  ASP89       0.2266
     35  O         24.6630   99.4880   90.4050 O.2    89  ASP89      -0.2867
     36  CB        28.1270   99.8970   90.8570 C.3    89  ASP89       0.1410
     37  CG        28.2000   98.6890   89.9250 C.2    89  ASP89       0.3668
     38  OD1       27.6640   98.7840   88.7980 O.co2  89  ASP89      -0.2456
     39  OD2       28.8180   97.6890   90.3250 O.co2  89  ASP89      -0.2456
     40  N         24.1650  104.1430   87.5610 N.3   103  GLN103     -0.1245
     41  CA        24.4590  104.3210   86.1450 C.3   103  GLN103      0.1566
     42  C         23.2120  104.5040   85.2850 C.2   103  GLN103      0.2260
     43  O         23.3420  104.8630   84.1060 O.2   103  GLN103     -0.2867
     44  CB        25.3290  103.1630   85.6510 C.3   103  GLN103      0.0367
     45  CG        24.7240  101.7810   85.8730 C.3   103  GLN103      0.0905
     46  CD        25.1930  101.1360   87.1710 C.2   103  GLN103      0.2608
     47  OE1       25.2810  101.7950   88.2080 O.2   103  GLN103     -0.2717
     48  NE2       25.5090   99.8570   87.1220 N.am  103  GLN103     -0.0878
     49  N         21.6200   95.2130   90.8990 N.3   146  ASP146     -0.1225
     50  CA        21.6750   95.9030   89.6110 C.3   146  ASP146      0.1805
     51  C         21.3390   94.9760   88.4380 C.2   146  ASP146      0.2597
     52  O         20.4000   95.2480   87.6610 O.2   146  ASP146     -0.2718
     53  CB        22.9780   96.6830   89.4090 C.3   146  ASP146      0.1424
     54  CG        24.2300   95.8230   89.2820 C.2   146  ASP146      0.3668
     55  OD1       24.2780   94.6650   89.7050 O.co2 146  ASP146     -0.2456
     56  OD2       25.2290   96.3840   88.7910 O.co2 146  ASP146     -0.2456
     57  N         22.0780   93.8690   88.2930 N.am  147  GLN147     -0.1979
     58  CA        21.9810   93.1000   87.0540 C.3   147  GLN147      0.1601
     59  C         20.6360   92.4140   86.9470 C.2   147  GLN147      0.2287
     60  O         20.0920   92.2960   85.8420 O.2   147  GLN147     -0.2864
     61  CB        23.1350   92.1150   86.9580 C.3   147  GLN147      0.0394
     62  CG        24.4740   92.8170   86.8570 C.3   147  GLN147      0.0908
     63  CD        25.6460   91.8450   86.8620 C.2   147  GLN147      0.2608
     64  OE1       25.4400   90.6210   86.8010 O.2   147  GLN147     -0.2717
     65  NE2       26.8740   92.3800   86.9650 N.am  147  GLN147     -0.0878
     66  N         17.9610   94.8070   85.6200 N.3   150  TRP150     -0.1241
     67  CA        18.0450   94.9930   84.1760 C.3   150  TRP150      0.1605
     68  C         17.4590   93.7990   83.4430 C.2   150  TRP150      0.2264
     69  O         16.8000   93.9740   82.3970 O.2   150  TRP150     -0.2867
     70  CB        19.5000   95.1840   83.7420 C.3   150  TRP150      0.0550
     71  CG        20.2320   96.2420   84.4830 C.ar  150  TRP150      0.0003
     72  CD1       19.6930   97.2940   85.1720 C.ar  150  TRP150      0.0946
     73  CD2       21.6370   96.3010   84.6850 C.ar  150  TRP150      0.0152
     74  NE1       20.7000   98.0260   85.7810 N.ar  150  TRP150     -0.2442
     75  CE2       21.9040   97.4260   85.5050 C.ar  150  TRP150      0.0810
     76  CE3       22.7080   95.5000   84.2620 C.ar  150  TRP150      0.0012
     77  CZ2       23.2070   97.7720   85.9030 C.ar  150  TRP150      0.0191
     78  CZ3       24.0030   95.8350   84.6790 C.ar  150  TRP150      0.0001
     79  CH2       24.2400   96.9670   85.4830 C.ar  150  TRP150      0.0015
     80  N         31.0720   86.2460   88.5120 N.3   177  GLN177     -0.1245
     81  CA        32.1670   87.2060   88.3720 C.3   177  GLN177      0.1566
     82  C         33.5400   86.5620   88.4190 C.2   177  GLN177      0.2260
     83  O         34.5410   87.2170   88.7480 O.2   177  GLN177     -0.2867
     84  CB        32.0250   88.3940   89.3170 C.3   177  GLN177      0.0367
     85  CG        30.7110   89.1060   89.0440 C.3   177  GLN177      0.0905
     86  CD        30.4720   90.2460   90.0080 C.2   177  GLN177      0.2608
     87  OE1       29.8640   90.0770   91.0690 O.2   177  GLN177     -0.2717
     88  NE2       30.9370   91.4290   89.6310 N.am  177  GLN177     -0.0878
     89  N         25.1010   90.9840   80.6580 N.3   202  ASN202     -0.1225
     90  CA        24.9840   92.2080   81.4600 C.3   202  ASN202      0.1785
     91  C         25.8680   92.1590   82.7120 C.2   202  ASN202      0.2597
     92  O         25.3980   92.3910   83.8250 O.2   202  ASN202     -0.2718
     93  CB        23.5200   92.5010   81.8010 C.3   202  ASN202      0.1169
     94  CG        22.8030   91.3110   82.4180 C.2   202  ASN202      0.2627
     95  OD1       22.8600   90.1990   81.8730 O.2   202  ASN202     -0.2716
     96  ND2       21.9990   91.5640   83.4750 N.am  202  ASN202     -0.0877
     97  N         27.1560   91.8700   82.5230 N.am  203  ASP203     -0.1960
     98  CA        28.1100   91.7660   83.6100 C.3   203  ASP203      0.1840
     99  C         29.5080   91.8630   83.0150 C.2   203  ASP203      0.2622
    100  O         29.7790   91.2620   81.9650 O.2   203  ASP203     -0.2715
    101  CB        27.9440   90.4320   84.3500 C.3   203  ASP203      0.1450
    102  CG        29.0970   90.1680   85.3010 C.2   203  ASP203      0.3671
    103  OD1       29.1590   90.8450   86.3620 O.co2 203  ASP203     -0.2456
    104  OD2       29.9770   89.3430   84.9810 O.co2 203  ASP203     -0.2456
    105  N         30.4190   92.5300   83.7340 N.am  204  SER204     -0.1950
    106  CA        31.7230   92.8680   83.1860 C.3   204  SER204      0.1924
    107  C         32.6780   91.6820   83.1370 C.2   204  SER204      0.2314
    108  O         33.7580   91.7980   82.5450 O.2   204  SER204     -0.2863
    109  CB        32.3650   94.0180   83.9470 C.3   204  SER204      0.2116
    110  OG        32.6660   93.6020   85.2780 O.3   204  SER204     -0.2180
    111  N         27.7150   94.5810   78.9840 N.3   229  PHE229     -0.1241
    112  CA        28.3520   95.7300   79.6230 C.3   229  PHE229      0.1605
    113  C         29.7670   95.3750   80.0850 C.2   229  PHE229      0.2264
    114  O         29.9590   94.3930   80.8190 O.2   229  PHE229     -0.2867
    115  CB        27.5580   96.1830   80.8730 C.3   229  PHE229      0.0534
    116  CG        26.2030   96.8050   80.5730 C.ar  229  PHE229     -0.0203
    117  CD1       25.9800   97.5780   79.4270 C.ar  229  PHE229     -0.0042
    118  CD2       25.1610   96.6440   81.4760 C.ar  229  PHE229     -0.0042
    119  CE1       24.7170   98.1670   79.2210 C.ar  229  PHE229     -0.0003
    120  CE2       23.9170   97.2250   81.2780 C.ar  229  PHE229     -0.0003
    121  CZ        23.6970   97.9780   80.1410 C.ar  229  PHE229     -0.0000
    122  N         28.7080  100.6880   78.2280 N.3   249  LEU249     -0.1231
    123  CA        28.9440  100.9780   79.6360 C.3   249  LEU249      0.1693
    124  C         28.5660  102.4300   79.8740 C.2   249  LEU249      0.2592
    125  O         27.5390  102.8950   79.3760 O.2   249  LEU249     -0.2718
    126  CB        30.3920  100.6720   80.0310 C.3   249  LEU249      0.0284
    127  CG        30.5540  100.4360   81.5500 C.3   249  LEU249      0.0019
    128  CD1       30.0990   99.0220   81.9300 C.3   249  LEU249      0.0001
    129  CD2       31.9790  100.6800   82.0020 C.3   249  LEU249      0.0001
    130  N         29.4090  103.1420   80.6240 N.am  250  TRP250     -0.1976
    131  CA        29.1770  104.4930   81.1330 C.3   250  TRP250      0.1640
    132  C         30.4880  104.8800   81.8140 C.2   250  TRP250      0.2290
    133  O         31.4000  104.0410   81.9300 O.2   250  TRP250     -0.2864
    134  CB        27.9930  104.5110   82.1210 C.3   250  TRP250      0.0576
    135  CG        28.1410  103.4680   83.2010 C.ar  250  TRP250      0.0006
    136  CD1       28.8290  103.5880   84.3740 C.ar  250  TRP250      0.0946
    137  CD2       27.6020  102.1330   83.1900 C.ar  250  TRP250      0.0152
    138  NE1       28.7720  102.4060   85.0810 N.ar  250  TRP250     -0.2442
    139  CE2       28.0120  101.5020   84.3840 C.ar  250  TRP250      0.0810
    140  CE3       26.7940  101.4210   82.3010 C.ar  250  TRP250      0.0012
    141  CZ2       27.6670  100.1750   84.6870 C.ar  250  TRP250      0.0191
    142  CZ3       26.4490  100.1180   82.6040 C.ar  250  TRP250      0.0001
    143  CH2       26.8920   99.5090   83.7870 C.ar  250  TRP250      0.0015
@<TRIPOS>BOND
     1   122   123    1
     2   111   112    1
     3   119   117   ar
     4   119   121   ar
     5   125   124    2
     6   117   116   ar
     7   112   113    1
     8   112   115    1
     9   123   124    1
    10   123   126    1
    11   124   130   am
    12   126   127    1
    13   113   114    2
    14   121   120   ar
    15   116   115    1
    16   116   118   ar
    17   130   131    1
    18    89    90    1
    19   131   132    1
    20   131   134    1
    21   120   118   ar
    22    90    93    1
    23    90    91    1
    24   127   128    1
    25   127   129    1
    26    93    94    1
    27   132   133    2
    28    95    94    2
    29   100    99    2
    30   134   135    1
    31   140   142   ar
    32   140   137   ar
    33    69    68    2
    34    94    96   am
    35    97    91   am
    36    97    98    1
    37   108   107    2
    38   142   143   ar
    39    91    92    2
    40    99    98    1
    41    99   105   am
    42   107   106    1
    43   106   105    1
    44   106   109    1
    45   137   135   ar
    46   137   139   ar
    47   135   136   ar
    48    68    67    1
    49    98   101    1
    50    70    67    1
    51    70    71    1
    52   143   141   ar
    53   109   110    1
    54    43    42    2
    55    67    66    1
    56    76    78   ar
    57    76    73   ar
    58   101   102    1
    59   136   138   ar
    60   139   141   ar
    61   139   138   ar
    62    71    73   ar
    63    71    72   ar
    64    78    79   ar
    65    73    75   ar
    66   104   102   ar
    67    72    74   ar
    68    42    41    1
    69    16    18   ar
    70    16    15   ar
    71   102   103   ar
    72    10    11    1
    73    79    77   ar
    74    75    74   ar
    75    75    77   ar
    76    44    45    1
    77    44    41    1
    78    18    20   ar
    79    11    14    1
    80    11    12    1
    81    14    15    1
    82    60    59    2
    83    45    46    1
    84    41    40    1
    85    15    17   ar
    86    64    63    2
    87    62    63    1
    88    62    61    1
    89    63    65   am
    90    59    58    1
    91    61    58    1
    92    20    19   ar
    93    58    57    1
    94    12    13    2
    95    12    21   am
    96    48    46   am
    97    46    47    2
    98    17    19   ar
    99    52    51    2
   100    21    22    1
   101    57    51   am
   102    81    82    1
   103    81    80    1
   104    81    84    1
   105    82    83    2
   106    51    50    1
   107    56    54   ar
   108    38    37   ar
   109    85    84    1
   110    85    86    1
   111    54    53    1
   112    54    55   ar
   113    53    50    1
   114    22    23    1
   115    22    25    1
   116    23    24    2
   117    50    49    1
   118    88    86   am
   119    30    28   ar
   120    30    31   ar
   121    28    26   ar
   122    37    39   ar
   123    37    36    1
   124    86    87    2
   125     9     8    1
   126    31    29   ar
   127    35    34    2
   128    25    26    1
   129    26    27   ar
   130    36    33    1
   131    33    34    1
   132    33    32    1
   133    29    27   ar
   134     8     7    1
   135     7     6    1
   136     6     5    1
   137     5     2    1
   138     1     2    1
   139     2     3    1
   140     3     4    2
