@<TRIPOS>MOLECULE
tmp/6dsuC00.pdb
 150 144 0 0 0
SMALL
GASTEIGER

@<TRIPOS>ATOM
      1  N          8.1490   36.4530   28.0400 N.3   316  ARG316     -0.1245
      2  CA         9.1140   37.5180   27.8100 C.3   316  ARG316      0.1563
      3  C         10.0170   37.1730   26.6290 C.2   316  ARG316      0.2260
      4  O         10.3150   36.0050   26.3660 O.2   316  ARG316     -0.2867
      5  CB         9.9570   37.7690   29.0610 C.3   316  ARG316      0.0307
      6  CG         9.1580   38.3490   30.2230 C.3   316  ARG316      0.0489
      7  CD        10.0500   39.0730   31.2150 C.3   316  ARG316      0.2205
      8  NE         9.2910   39.6660   32.3150 N.pl3 316  ARG316     -0.0865
      9  CZ         8.7540   40.8830   32.2880 C.cat 316  ARG316      0.5346
     10  NH1        8.8850   41.6470   31.2110 N.pl3 316  ARG316      0.1354
     11  NH2        8.0840   41.3380   33.3400 N.pl3 316  ARG316      0.1354
     12  N          9.9710   53.2770   29.4890 N.3   354  ASP354     -0.1225
     13  CA         9.8820   52.0790   30.3060 C.3   354  ASP354      0.1805
     14  C          8.6450   52.1560   31.1800 C.2   354  ASP354      0.2598
     15  O          8.3300   53.2110   31.7380 O.2   354  ASP354     -0.2718
     16  CB        11.1250   51.8970   31.1860 C.3   354  ASP354      0.1424
     17  CG        11.2490   52.9700   32.2480 C.2   354  ASP354      0.3668
     18  OD1       11.2540   54.1680   31.8940 O.co2 354  ASP354     -0.2456
     19  OD2       11.3280   52.6150   33.4430 O.co2 354  ASP354     -0.2456
     20  N          7.9370   51.0370   31.2780 N.am  355  TYR355     -0.1962
     21  CA         6.8700   50.9350   32.2550 C.3   355  TYR355      0.1771
     22  C          7.4400   51.0740   33.6560 C.2   355  TYR355      0.2620
     23  O          8.5010   50.5280   33.9730 O.2   355  TYR355     -0.2715
     24  CB         6.1350   49.6050   32.1170 C.3   355  TYR355      0.0574
     25  CG         5.2530   49.5410   30.9040 C.ar  355  TYR355     -0.0198
     26  CD1        5.5910   48.7420   29.8240 C.ar  355  TYR355     -0.0009
     27  CD2        4.0910   50.3000   30.8260 C.ar  355  TYR355     -0.0009
     28  CE1        4.7940   48.6830   28.7040 C.ar  355  TYR355      0.0417
     29  CE2        3.2790   50.2460   29.7000 C.ar  355  TYR355      0.0417
     30  CZ         3.6440   49.4340   28.6440 C.ar  355  TYR355      0.1957
     31  OH         2.8640   49.3530   27.5160 O.3   355  TYR355     -0.2866
     32  N          6.7380   51.8360   34.4840 N.am  356  SER356     -0.1936
     33  CA         7.0560   51.9550   35.8980 C.3   356  SER356      0.2055
     34  C          6.2510   50.9100   36.6640 C.2   356  SER356      0.2642
     35  O          5.0210   51.0020   36.7550 O.2   356  SER356     -0.2714
     36  CB         6.7600   53.3670   36.3960 C.3   356  SER356      0.2130
     37  OG         7.1610   53.5150   37.7430 O.3   356  SER356     -0.2179
     38  N          6.9600   49.9520   37.2420 N.am  357  GLN357     -0.1976
     39  CA         6.3860   48.9000   38.0770 C.3   357  GLN357      0.1601
     40  C          5.1860   48.2110   37.4700 C.2   357  GLN357      0.2287
     41  O          4.1720   48.0260   38.1150 O.2   357  GLN357     -0.2864
     42  CB         6.0220   49.4830   39.4340 C.3   357  GLN357      0.0394
     43  CG         6.9170   50.6430   39.8070 C.3   357  GLN357      0.0908
     44  CD         6.8590   50.9970   41.2650 C.2   357  GLN357      0.2608
     45  OE1        6.0270   51.7980   41.6890 O.2   357  GLN357     -0.2717
     46  NE2        7.7660   50.4270   42.0450 N.am  357  GLN357     -0.0878
     47  N          4.7960   45.1000   36.6900 N.3   359  GLU359     -0.1245
     48  CA         4.4750   43.8300   37.3410 C.3   359  GLU359      0.1567
     49  C          3.5800   44.0420   38.5590 C.2   359  GLU359      0.2260
     50  O          2.5750   43.3430   38.7360 O.2   359  GLU359     -0.2867
     51  CB         5.7580   43.1040   37.7350 C.3   359  GLU359      0.0388
     52  CG         6.6290   42.6980   36.5510 C.3   359  GLU359      0.1160
     53  CD         7.4610   43.8520   36.0000 C.2   359  GLU359      0.3649
     54  OE1        8.1600   43.6410   34.9880 O.co2 359  GLU359     -0.2457
     55  OE2        7.4300   44.9600   36.5840 O.co2 359  GLU359     -0.2457
     56  N          4.7570   56.1080   45.9550 N.3   381  ASP381     -0.1239
     57  CA         5.9710   55.3080   45.8490 C.3   381  ASP381      0.1674
     58  C          5.6590   53.9530   46.4660 C.2   381  ASP381      0.2266
     59  O          5.4490   53.8520   47.6780 O.2   381  ASP381     -0.2867
     60  CB         7.1440   55.9830   46.5510 C.3   381  ASP381      0.1410
     61  CG         8.4400   55.2130   46.3810 C.2   381  ASP381      0.3668
     62  OD1        9.3710   55.7410   45.7370 O.co2 381  ASP381     -0.2456
     63  OD2        8.5210   54.0680   46.8740 O.co2 381  ASP381     -0.2456
     64  N          7.2300   51.1350   47.0550 N.3   383  HIS383     -0.1241
     65  CA         8.1110   50.5980   48.0850 C.3   383  HIS383      0.1621
     66  C          7.9270   51.3370   49.4020 C.2   383  HIS383      0.2264
     67  O          7.8320   50.7110   50.4630 O.2   383  HIS383     -0.2867
     68  CB         9.5560   50.6570   47.6010 C.3   383  HIS383      0.0745
     69  CG         9.7810   49.8780   46.3440 C.ar  383  HIS383      0.0817
     70  ND1        9.1240   48.6940   46.0860 N.ar  383  HIS383     -0.2268
     71  CD2       10.5630   50.1170   45.2660 C.ar  383  HIS383      0.1154
     72  CE1        9.4960   48.2330   44.9050 C.ar  383  HIS383      0.1986
     73  NE2       10.3730   49.0760   44.3890 N.ar  383  HIS383     -0.2212
     74  N         12.6600   50.9770   53.7140 N.3   403  ARG403     -0.1245
     75  CA        12.2460   50.9720   52.3190 C.3   403  ARG403      0.1563
     76  C         13.0010   49.9110   51.5320 C.2   403  ARG403      0.2260
     77  O         12.4380   49.2870   50.6280 O.2   403  ARG403     -0.2867
     78  CB        12.4490   52.3480   51.6950 C.3   403  ARG403      0.0307
     79  CG        11.8420   52.4550   50.3010 C.3   403  ARG403      0.0489
     80  CD        12.2410   53.7530   49.6270 C.3   403  ARG403      0.2205
     81  NE        11.6450   53.8690   48.3010 N.pl3 403  ARG403     -0.0865
     82  CZ        12.2040   53.4070   47.1880 C.cat 403  ARG403      0.5346
     83  NH1       13.3770   52.7930   47.2370 N.pl3 403  ARG403      0.1354
     84  NH2       11.5880   53.5610   46.0240 N.pl3 403  ARG403      0.1354
     85  N         11.1980   46.9550   49.5660 N.3   407  LYS407     -0.1245
     86  CA        11.4870   46.7670   48.1510 C.3   407  LYS407      0.1561
     87  C         11.8650   45.3220   47.8520 C.2   407  LYS407      0.2260
     88  O         11.5250   44.7910   46.7880 O.2   407  LYS407     -0.2867
     89  CB        12.6040   47.7220   47.7290 C.3   407  LYS407      0.0271
     90  CG        13.0210   47.6050   46.2730 C.3   407  LYS407      0.0035
     91  CD        14.0270   48.6870   45.9280 C.3   407  LYS407      0.0206
     92  CE        14.2670   48.7560   44.4310 C.3   407  LYS407      0.1093
     93  NZ        15.1360   49.9130   44.0850 N.3   407  LYS407     -0.1314
     94  N         10.0430   42.9000   45.3170 N.3   411  PHE411     -0.1241
     95  CA        10.7860   42.1350   44.3220 C.3   411  PHE411      0.1605
     96  C         10.4740   40.6510   44.4430 C.2   411  PHE411      0.2264
     97  O         10.3390   39.9460   43.4350 O.2   411  PHE411     -0.2867
     98  CB        12.2850   42.3910   44.4890 C.3   411  PHE411      0.0534
     99  CG        13.1480   41.7080   43.4620 C.ar  411  PHE411     -0.0203
    100  CD1       13.5230   42.3700   42.3040 C.ar  411  PHE411     -0.0042
    101  CD2       13.6070   40.4140   43.6660 C.ar  411  PHE411     -0.0042
    102  CE1       14.3270   41.7510   41.3610 C.ar  411  PHE411     -0.0003
    103  CE2       14.4110   39.7890   42.7260 C.ar  411  PHE411     -0.0003
    104  CZ        14.7730   40.4610   41.5740 C.ar  411  PHE411     -0.0000
    105  N          6.6440   39.4750   43.3870 N.3   414  VAL414     -0.1231
    106  CA         6.3640   39.3280   41.9650 C.3   414  VAL414      0.1692
    107  C          7.1080   38.1620   41.3350 C.2   414  VAL414      0.2592
    108  O          6.9320   37.9030   40.1360 O.2   414  VAL414     -0.2718
    109  CB         6.7140   40.6270   41.2130 C.3   414  VAL414      0.0266
    110  CG1        5.8240   41.7650   41.6920 C.3   414  VAL414      0.0020
    111  CG2        8.1760   40.9670   41.4230 C.3   414  VAL414      0.0020
    112  N          7.9640   37.4760   42.0770 N.am  415  TYR415     -0.1976
    113  CA         8.8300   36.4610   41.4950 C.3   415  TYR415      0.1639
    114  C          8.5660   35.1080   42.1420 C.2   415  TYR415      0.2290
    115  O          7.7240   34.9670   43.0320 O.2   415  TYR415     -0.2864
    116  CB        10.3020   36.8570   41.6410 C.3   415  TYR415      0.0560
    117  CG        10.8030   37.7860   40.5600 C.ar  415  TYR415     -0.0198
    118  CD1       11.9590   38.5310   40.7400 C.ar  415  TYR415     -0.0009
    119  CD2       10.1270   37.9100   39.3540 C.ar  415  TYR415     -0.0009
    120  CE1       12.4270   39.3770   39.7520 C.ar  415  TYR415      0.0417
    121  CE2       10.5890   38.7560   38.3580 C.ar  415  TYR415      0.0417
    122  CZ        11.7400   39.4870   38.5640 C.ar  415  TYR415      0.1957
    123  OH        12.2080   40.3310   37.5820 O.3   415  TYR415     -0.2866
    124  N          4.2860   38.1550   35.5370 N.3   498  GLN498     -0.1245
    125  CA         5.3370   38.3980   34.5530 C.3   498  GLN498      0.1566
    126  C          4.8250   38.1900   33.1360 C.2   498  GLN498      0.2260
    127  O          5.1380   38.9750   32.2320 O.2   498  GLN498     -0.2867
    128  CB         6.5310   37.4830   34.8240 C.3   498  GLN498      0.0367
    129  CG         7.0850   37.5940   36.2250 C.3   498  GLN498      0.0905
    130  CD         7.7250   38.9330   36.5010 C.2   498  GLN498      0.2608
    131  OE1        8.2780   39.5690   35.6020 O.2   498  GLN498     -0.2717
    132  NE2        7.6470   39.3770   37.7520 N.am  498  GLN498     -0.0878
    133  N         13.3580   44.0830   28.6940 N.3   530  HIS530     -0.1226
    134  CA        12.6630   44.0290   29.9670 C.3   530  HIS530      0.1752
    135  C         11.3050   44.7100   29.8590 C.2   530  HIS530      0.2596
    136  O         10.4060   44.2130   29.1740 O.2   530  HIS530     -0.2718
    137  CB        13.5230   44.6910   31.0450 C.3   530  HIS530      0.0759
    138  CG        14.9330   44.1830   31.0870 C.ar  530  HIS530      0.0818
    139  ND1       16.0160   45.0060   31.3150 N.ar  530  HIS530     -0.2268
    140  CD2       15.4330   42.9310   30.9610 C.ar  530  HIS530      0.1154
    141  CE1       17.1220   44.2840   31.3130 C.ar  530  HIS530      0.1986
    142  NE2       16.7960   43.0210   31.1010 N.ar  530  HIS530     -0.2212
    143  N         11.1460   45.8450   30.5400 N.am  531  ASP531     -0.1974
    144  CA         9.9140   46.6220   30.4990 C.3   531  ASP531      0.1709
    145  C         10.0990   47.9380   29.7580 C.2   531  ASP531      0.2293
    146  O          9.2910   48.8570   29.9210 O.2   531  ASP531     -0.2864
    147  CB         9.4020   46.8920   31.9130 C.3   531  ASP531      0.1436
    148  CG         9.1680   45.6210   32.7050 C.2   531  ASP531      0.3671
    149  OD1        8.8100   44.5880   32.0990 O.co2 531  ASP531     -0.2456
    150  OD2        9.3390   45.6590   33.9430 O.co2 531  ASP531     -0.2456
@<TRIPOS>BOND
     1     4     3    2
     2     3     2    1
     3    31    30    1
     4     2     1    1
     5     2     5    1
     6    30    28   ar
     7    30    29   ar
     8   133   134    1
     9    28    26   ar
    10     5     6    1
    11   136   135    2
    12    12    13    1
    13    29    27   ar
    14   145   146    2
    15   145   144    1
    16    26    25   ar
    17   135   134    1
    18   135   143   am
    19   134   137    1
    20     6     7    1
    21    13    14    1
    22    13    16    1
    23   144   143    1
    24   144   147    1
    25    27    25   ar
    26    25    24    1
    27   140   138   ar
    28   140   142   ar
    29   137   138    1
    30   138   139   ar
    31   142   141   ar
    32    14    20   am
    33    14    15    2
    34    16    17    1
    35    10     9    1
    36     7     8    1
    37    20    21    1
    38   141   139   ar
    39    18    17   ar
    40   147   148    1
    41   149   148   ar
    42    24    21    1
    43   127   126    2
    44    17    19   ar
    45    21    22    1
    46     9     8    2
    47     9    11    1
    48   148   150   ar
    49   126   125    1
    50    22    23    2
    51    22    32   am
    52    32    33    1
    53   125   128    1
    54   125   124    1
    55   128   129    1
    56    54    53   ar
    57   131   130    2
    58    33    36    1
    59    33    34    1
    60    53    52    1
    61    53    55   ar
    62   129   130    1
    63    36    37    1
    64   130   132   am
    65    52    51    1
    66    34    35    2
    67    34    38   am
    68    47    48    1
    69    38    39    1
    70    48    51    1
    71    48    49    1
    72    40    39    1
    73    40    41    2
    74   123   122    1
    75    39    42    1
    76   121   122   ar
    77   121   119   ar
    78    49    50    2
    79   122   120   ar
    80   119   117   ar
    81    42    43    1
    82   120   118   ar
    83    43    44    1
    84   108   107    2
    85   117   118   ar
    86   117   116    1
    87   109   111    1
    88   109   110    1
    89   109   106    1
    90    44    45    2
    91    44    46   am
    92   107   106    1
    93   107   112   am
    94   102   104   ar
    95   102   100   ar
    96   113   116    1
    97   113   112    1
    98   113   114    1
    99   104   103   ar
   100   106   105    1
   101   114   115    2
   102   100    99   ar
   103   103   101   ar
   104    97    96    2
   105    99   101   ar
   106    99    98    1
   107    93    92    1
   108    95    96    1
   109    95    98    1
   110    95    94    1
   111    73    72   ar
   112    73    71   ar
   113    92    91    1
   114    72    70   ar
   115    71    69   ar
   116    62    61   ar
   117    57    56    1
   118    57    58    1
   119    57    60    1
   120    91    90    1
   121    84    82    1
   122    70    69   ar
   123    90    89    1
   124    69    68    1
   125    61    60    1
   126    61    63   ar
   127    58    59    2
   128    88    87    2
   129    64    65    1
   130    82    83    1
   131    82    81    2
   132    68    65    1
   133    89    86    1
   134    87    86    1
   135    65    66    1
   136    86    85    1
   137    81    80    1
   138    66    67    2
   139    80    79    1
   140    79    78    1
   141    77    76    2
   142    76    75    1
   143    78    75    1
   144    75    74    1
