@<TRIPOS>MOLECULE
tmp/6dt3B00.pdb
 158 148 0 0 0
SMALL
GASTEIGER

@<TRIPOS>ATOM
      1  N         19.2760    8.8840    2.6440 N.3     6  ARG6       -0.1245
      2  CA        20.3750    9.3160    1.8720 C.3     6  ARG6        0.1563
      3  C         21.2000   10.2980    2.7020 C.2     6  ARG6        0.2260
      4  O         20.6550   11.1510    3.3730 O.2     6  ARG6       -0.2867
      5  CB        19.8250   10.0260    0.6330 C.3     6  ARG6        0.0307
      6  CG        20.8260   10.3350   -0.4580 C.3     6  ARG6        0.0489
      7  CD        20.0280   10.7590   -1.6770 C.3     6  ARG6        0.2205
      8  NE        20.8460   11.3170   -2.7400 N.pl3   6  ARG6       -0.0865
      9  CZ        21.5640   10.5990   -3.5950 C.cat   6  ARG6        0.5346
     10  NH1       21.6070    9.2850   -3.4760 N.pl3   6  ARG6        0.1354
     11  NH2       22.2480   11.1970   -4.5560 N.pl3   6  ARG6        0.1354
     12  N         23.7050   13.3330    2.2120 N.3     8  ILE8       -0.1245
     13  CA        23.9910   14.3530    1.2240 C.3     8  ILE8        0.1561
     14  C         25.1800   15.2010    1.6630 C.2     8  ILE8        0.2260
     15  O         25.2060   15.6250    2.8190 O.2     8  ILE8       -0.2867
     16  CB        22.7560   15.2520    1.0570 C.3     8  ILE8        0.0252
     17  CG1       21.4930   14.4510    0.7280 C.3     8  ILE8        0.0019
     18  CG2       23.0080   16.3550    0.0430 C.3     8  ILE8        0.0019
     19  CD1       21.5680   13.7490   -0.5870 C.3     8  ILE8        0.0001
     20  N         26.9650   18.7700    0.8690 N.3    10  CYS10      -0.1235
     21  CA        26.5460   20.0510    0.3560 C.3    10  CYS10       0.1677
     22  C         27.6290   21.1030    0.5500 C.2    10  CYS10       0.2270
     23  O         27.9650   21.3940    1.6940 O.2    10  CYS10      -0.2867
     24  CB        25.3110   20.5150    1.1250 C.3    10  CYS10       0.0956
     25  SG        24.7980   22.2030    0.7090 S.3    10  CYS10      -0.0801
     26  N         14.2360   17.1370   -8.8470 N.3    28  GLY28      -0.1210
     27  CA        14.9830   17.5080   -7.6510 C.3    28  GLY28       0.1956
     28  C         14.0870   17.6420   -6.4430 C.2    28  GLY28       0.2612
     29  O         12.8460   17.5570   -6.5240 O.2    28  GLY28      -0.2717
     30  N         14.7230   17.8980   -5.3090 N.am   29  VAL29      -0.1965
     31  CA        13.9920   18.1020   -4.0990 C.3    29  VAL29       0.1727
     32  C         13.2860   19.4720   -4.1500 C.2    29  VAL29       0.2616
     33  O         12.2190   19.6110   -3.6310 O.2    29  VAL29      -0.2715
     34  CB        14.9370   17.9810   -2.8900 C.3    29  VAL29       0.0290
     35  CG1       14.2410   18.3050   -1.5850 C.3    29  VAL29       0.0023
     36  CG2       15.5860   16.6060   -2.8480 C.3    29  VAL29       0.0023
     37  N         13.8970   20.4500   -4.8290 N.am   30  PHE30      -0.1974
     38  CA        13.4110   21.8310   -4.8460 C.3    30  PHE30       0.1639
     39  C         13.4100   22.4180   -6.2550 C.2    30  PHE30       0.2290
     40  O         14.1360   23.3750   -6.5590 O.2    30  PHE30      -0.2864
     41  CB        14.2630   22.6990   -3.9250 C.3    30  PHE30       0.0560
     42  CG        14.1920   22.3220   -2.4670 C.ar   30  PHE30      -0.0200
     43  CD1       13.0440   22.5630   -1.7280 C.ar   30  PHE30      -0.0042
     44  CD2       15.2850   21.7580   -1.8320 C.ar   30  PHE30      -0.0042
     45  CE1       13.0030   22.2660   -0.3720 C.ar   30  PHE30      -0.0003
     46  CE2       15.2360   21.4500   -0.4780 C.ar   30  PHE30      -0.0003
     47  CZ        14.0960   21.7080    0.2480 C.ar   30  PHE30      -0.0000
     48  N         19.5070   27.2670   -5.2090 N.3    35  ALA35      -0.1231
     49  CA        19.9720   26.2190   -4.3220 C.3    35  ALA35       0.1694
     50  C         21.4830   26.1810   -4.1410 C.2    35  ALA35       0.2592
     51  O         22.2400   26.5500   -5.0220 O.2    35  ALA35      -0.2718
     52  CB        19.6200   24.8920   -4.9540 C.3    35  ALA35       0.0304
     53  N         21.8700   25.6790   -2.9750 N.am   36  LEU36      -0.1966
     54  CA        23.1910   25.0940   -2.8220 C.3    36  LEU36       0.1728
     55  C         23.1160   23.6980   -3.4740 C.2    36  LEU36       0.2617
     56  O         22.0890   23.0210   -3.4350 O.2    36  LEU36      -0.2715
     57  CB        23.5640   25.0050   -1.3430 C.3    36  LEU36       0.0311
     58  CG        23.5980   26.3480   -0.6130 C.3    36  LEU36       0.0022
     59  CD1       23.9320   26.1670    0.8590 C.3    36  LEU36       0.0001
     60  CD2       24.5770   27.2850   -1.2800 C.3    36  LEU36       0.0001
     61  N         24.2060   23.2940   -4.1250 N.am   37  SER37      -0.1936
     62  CA        24.2860   22.0190   -4.8180 C.3    37  SER37       0.2055
     63  C         24.5310   20.9180   -3.7880 C.2    37  SER37       0.2644
     64  O         24.6670   21.1750   -2.5870 O.2    37  SER37      -0.2714
     65  CB        25.3580   22.0610   -5.8850 C.3    37  SER37       0.2130
     66  OG        26.6510   22.2770   -5.3310 O.3    37  SER37      -0.2179
     67  N         24.6360   19.6980   -4.2860 N.am   38  GLY38      -0.1939
     68  CA        24.9760   18.5960   -3.4110 C.3    38  GLY38       0.2014
     69  C         24.4070   17.2940   -3.8880 C.2    38  GLY38       0.2639
     70  O         23.4950   17.2660   -4.6950 O.2    38  GLY38      -0.2714
     71  N         24.9590   16.2150   -3.3490 N.am   39  GLY39      -0.1954
     72  CA        24.5320   14.9040   -3.7460 C.3    39  GLY39       0.1869
     73  C         24.9710   13.8460   -2.7560 C.2    39  GLY39       0.2309
     74  O         25.5340   14.1380   -1.7230 O.2    39  GLY39      -0.2863
     75  N         11.0310   14.1980   -3.0630 N.3    80  LYS80      -0.1245
     76  CA        11.8910   14.4120   -4.2090 C.3    80  LYS80       0.1561
     77  C         11.1020   14.0930   -5.4800 C.2    80  LYS80       0.2260
     78  O         10.3440   13.1080   -5.5430 O.2    80  LYS80      -0.2867
     79  CB        13.1390   13.5310   -4.1080 C.3    80  LYS80       0.0271
     80  CG        14.1460   13.7340   -5.2310 C.3    80  LYS80       0.0035
     81  CD        15.4230   12.9680   -5.0230 C.3    80  LYS80       0.0206
     82  CE        16.4560   13.2580   -6.0890 C.3    80  LYS80       0.1093
     83  NZ        17.6940   12.4770   -5.8740 N.3    80  LYS80      -0.1314
     84  N         12.0940   11.1840    1.0550 N.3    90  ILE90      -0.1245
     85  CA        13.4150   10.7220    1.4340 C.3    90  ILE90       0.1561
     86  C         13.8450   11.4050    2.7310 C.2    90  ILE90       0.2260
     87  O         13.7330   12.6160    2.8760 O.2    90  ILE90      -0.2867
     88  CB        14.4310   11.0080    0.3100 C.3    90  ILE90       0.0252
     89  CG1       13.9250   10.5150   -1.0470 C.3    90  ILE90       0.0019
     90  CG2       15.8060   10.4340    0.6370 C.3    90  ILE90       0.0019
     91  CD1       14.8160   10.8680   -2.1960 C.3    90  ILE90       0.0001
     92  N         22.0640   16.0440    5.9160 N.3    93  TYR93      -0.1241
     93  CA        22.8640   17.0330    5.2200 C.3    93  TYR93       0.1605
     94  C         24.1900   17.2630    5.9370 C.2    93  TYR93       0.2264
     95  O         24.1970   17.6350    7.1160 O.2    93  TYR93      -0.2867
     96  CB        22.1720   18.3920    5.1600 C.3    93  TYR93       0.0534
     97  CG        20.8250   18.4380    4.4970 C.ar   93  TYR93      -0.0201
     98  CD1       20.4950   17.6470    3.4150 C.ar   93  TYR93      -0.0009
     99  CD2       19.9040   19.3910    4.8790 C.ar   93  TYR93      -0.0009
    100  CE1       19.2630   17.7380    2.7870 C.ar   93  TYR93       0.0417
    101  CE2       18.6770   19.5030    4.2650 C.ar   93  TYR93       0.0417
    102  CZ        18.3470   18.6780    3.2070 C.ar   93  TYR93       0.1957
    103  OH        17.1370   18.7730    2.5790 O.3    93  TYR93      -0.2866
    104  N         27.1270   19.6950    5.6010 N.3    95  ILE95      -0.1245
    105  CA        27.3590   20.9570    4.9120 C.3    95  ILE95       0.1561
    106  C         28.7890   21.4180    5.2010 C.2    95  ILE95       0.2260
    107  O         29.2170   21.4780    6.3620 O.2    95  ILE95      -0.2867
    108  CB        26.2950   21.9800    5.3200 C.3    95  ILE95       0.0252
    109  CG1       24.8990   21.3780    5.1280 C.3    95  ILE95       0.0019
    110  CG2       26.5070   23.2650    4.5330 C.3    95  ILE95       0.0019
    111  CD1       23.7690   22.2100    5.6700 C.3    95  ILE95       0.0001
    112  N         20.6430   19.0160  -13.7380 N.3   110  GLU110     -0.1231
    113  CA        19.8860   19.2690  -12.4960 C.3   110  GLU110      0.1699
    114  C         19.5180   20.7580  -12.4190 C.2   110  GLU110      0.2592
    115  O         18.6110   21.0960  -11.6900 O.2   110  GLU110     -0.2718
    116  CB        20.6840   18.9070  -11.2410 C.3   110  GLU110      0.0402
    117  CG        20.9430   17.4180  -11.0760 C.3   110  GLU110      0.1161
    118  CD        21.7410   17.1120   -9.8230 C.2   110  GLU110      0.3649
    119  OE1       21.2630   17.4500   -8.7120 O.co2 110  GLU110     -0.2457
    120  OE2       22.8540   16.5820   -9.9610 O.co2 110  GLU110     -0.2457
    121  N         20.2340   21.6190  -13.1660 N.am  111  PHE111     -0.1976
    122  CA        20.1000   23.0810  -13.0080 C.3   111  PHE111      0.1639
    123  C         19.8600   23.7560  -14.3560 C.2   111  PHE111      0.2290
    124  O         20.2200   23.2070  -15.3830 O.2   111  PHE111     -0.2864
    125  CB        21.3770   23.6460  -12.3730 C.3   111  PHE111      0.0560
    126  CG        21.7270   22.9750  -11.0710 C.ar  111  PHE111     -0.0200
    127  CD1       21.0320   23.2710   -9.9110 C.ar  111  PHE111     -0.0042
    128  CD2       22.7150   22.0110  -11.0180 C.ar  111  PHE111     -0.0042
    129  CE1       21.3370   22.6490   -8.7160 C.ar  111  PHE111     -0.0003
    130  CE2       23.0210   21.3890   -9.8190 C.ar  111  PHE111     -0.0003
    131  CZ        22.3410   21.7160   -8.6740 C.ar  111  PHE111     -0.0000
    132  N         15.5020   28.0040   -2.0670 N.3   128  ASN128     -0.1240
    133  CA        14.7420   26.8860   -1.5530 C.3   128  ASN128      0.1653
    134  C         14.8630   26.8650   -0.0220 C.2   128  ASN128      0.2266
    135  O         15.7290   27.4860    0.5760 O.2   128  ASN128     -0.2867
    136  CB        15.0990   25.5660   -2.2300 C.3   128  ASN128      0.1155
    137  CG        16.4280   24.9570   -1.8340 C.2   128  ASN128      0.2627
    138  OD1       16.7540   24.8860   -0.6610 O.2   128  ASN128     -0.2716
    139  ND2       17.1280   24.4270   -2.8210 N.am  128  ASN128     -0.0877
    140  N         15.7290   24.6720    2.2140 N.3   130  ALA130     -0.1231
    141  CA        16.9350   24.1340    2.8470 C.3   130  ALA130      0.1694
    142  C         18.0830   25.1270    2.7230 C.2   130  ALA130      0.2592
    143  O         18.8370   25.3360    3.6730 O.2   130  ALA130     -0.2718
    144  CB        17.2910   22.8010    2.2380 C.3   130  ALA130      0.0304
    145  N         18.1550   25.7820    1.5550 N.am  131  THR131     -0.1953
    146  CA        19.1850   26.7680    1.3000 C.3   131  THR131      0.1897
    147  C         19.0070   27.9660    2.2370 C.2   131  THR131      0.2313
    148  O         19.9630   28.5030    2.7720 O.2   131  THR131     -0.2863
    149  CB        19.2000   27.1580   -0.1810 C.3   131  THR131      0.1794
    150  OG1       19.6430   26.0110   -0.9070 O.3   131  THR131     -0.2208
    151  CG2       20.1200   28.3190   -0.4710 C.3   131  THR131      0.0378
    152  N         20.1830   27.0170    5.7240 N.3   134  THR134     -0.1218
    153  CA        21.6350   26.9520    5.7440 C.3   134  THR134      0.1862
    154  C         22.2780   28.3520    5.7750 C.2   134  THR134      0.2287
    155  O         23.1800   28.6290    6.5660 O.2   134  THR134     -0.2866
    156  CB        22.1280   26.1210    4.5530 C.3   134  THR134      0.1770
    157  OG1       21.6180   24.7950    4.7120 O.3   134  THR134     -0.2211
    158  CG2       23.6410   26.1200    4.4850 C.3   134  THR134      0.0375
@<TRIPOS>BOND
     1   124   123    2
     2   123   122    1
     3   112   113    1
     4   121   122    1
     5   121   114   am
     6   122   125    1
     7   113   114    1
     8   113   116    1
     9   114   115    2
    10   125   126    1
    11   116   117    1
    12   117   118    1
    13   126   128   ar
    14   126   127   ar
    15   128   130   ar
    16   120   118   ar
    17   127   129   ar
    18   118   119   ar
    19   130   131   ar
    20    26    27    1
    21   129   131   ar
    22    27    28    1
    23    40    39    2
    24    29    28    2
    25    28    30   am
    26    39    38    1
    27    82    83    1
    28    82    81    1
    29    65    66    1
    30    65    62    1
    31    78    77    2
    32    77    76    1
    33    30    31    1
    34    80    81    1
    35    80    79    1
    36    48    49    1
    37    51    50    2
    38    52    49    1
    39    38    37    1
    40    38    41    1
    41    37    32   am
    42    62    61    1
    43    62    63    1
    44    70    69    2
    45    11     9    1
    46    49    50    1
    47    67    63   am
    48    67    68    1
    49    76    79    1
    50    76    75    1
    51    32    31    1
    52    32    33    2
    53    50    53   am
    54    61    55   am
    55    31    34    1
    56    41    42    1
    57    69    68    1
    58    69    71   am
    59    63    64    2
    60    72    71    1
    61    72    73    1
    62     9    10    1
    63     9     8    2
    64    55    56    2
    65    55    54    1
    66    53    54    1
    67    34    36    1
    68    34    35    1
    69    54    57    1
    70   139   137   am
    71    73    74    2
    72     8     7    1
    73    42    44   ar
    74    42    43   ar
    75   136   137    1
    76   136   133    1
    77    91    89    1
    78   132   133    1
    79   137   138    2
    80    44    46   ar
    81    43    45   ar
    82     7     6    1
    83   133   134    1
    84    57    58    1
    85    60    58    1
    86    89    88    1
    87   150   149    1
    88    58    59    1
    89    19    17    1
    90    46    47   ar
    91   151   149    1
    92     6     5    1
    93    45    47   ar
    94   149   146    1
    95   134   135    2
    96    18    16    1
    97    88    90    1
    98    88    85    1
    99    21    22    1
   100    21    20    1
   101    21    24    1
   102    22    23    2
   103     5     2    1
   104    25    24    1
   105    17    16    1
   106    84    85    1
   107    16    13    1
   108    13    14    1
   109    13    12    1
   110   146   145    1
   111   146   147    1
   112    85    86    1
   113   145   142   am
   114    14    15    2
   115     2     1    1
   116     2     3    1
   117   140   141    1
   118   147   148    2
   119   144   141    1
   120   103   102    1
   121     3     4    2
   122   142   141    1
   123   142   143    2
   124    86    87    2
   125   100   102   ar
   126   100    98   ar
   127   102   101   ar
   128    98    97   ar
   129   101    99   ar
   130   158   156    1
   131    97    99   ar
   132    97    96    1
   133   110   108    1
   134   156   157    1
   135   156   153    1
   136   105   106    1
   137   105   108    1
   138   105   104    1
   139   109   108    1
   140   109   111    1
   141    96    93    1
   142   106   107    2
   143    93    92    1
   144    93    94    1
   145   152   153    1
   146   153   154    1
   147   154   155    2
   148    94    95    2
