@<TRIPOS>MOLECULE
tmp/6dtaB00.pdb
 144 136 0 0 0
SMALL
GASTEIGER

@<TRIPOS>ATOM
      1  N        -46.1600  -27.6660   39.6620 N.3    22  LYS22      -0.1245
      2  CA       -45.8700  -28.9360   39.0020 C.3    22  LYS22       0.1561
      3  C        -45.9930  -30.1210   39.9420 C.2    22  LYS22       0.2260
      4  O        -45.8340  -31.2670   39.5080 O.2    22  LYS22      -0.2867
      5  CB       -44.4880  -28.8900   38.3410 C.3    22  LYS22       0.0271
      6  CG       -44.4870  -27.8960   37.1940 C.3    22  LYS22       0.0035
      7  CD       -43.1580  -27.6830   36.5390 C.3    22  LYS22       0.0206
      8  CE       -43.3100  -26.6210   35.4550 C.3    22  LYS22       0.1093
      9  NZ       -43.8690  -25.3470   35.9900 N.3    22  LYS22      -0.1314
     10  N        -54.6650  -23.5270   35.3990 N.3    75  ASP75      -0.1225
     11  CA       -54.0500  -23.3040   34.1010 C.3    75  ASP75       0.1805
     12  C        -53.9910  -24.5730   33.2600 C.2    75  ASP75       0.2598
     13  O        -53.7460  -25.6620   33.7810 O.2    75  ASP75      -0.2718
     14  CB       -52.6470  -22.7320   34.3000 C.3    75  ASP75       0.1424
     15  CG       -52.6720  -21.2510   34.6090 C.2    75  ASP75       0.3668
     16  OD1      -52.6280  -20.4480   33.6520 O.co2  75  ASP75      -0.2456
     17  OD2      -52.7330  -20.8820   35.7970 O.co2  75  ASP75      -0.2456
     18  N        -54.2430  -24.4380   31.9630 N.am   76  ALA76      -0.1966
     19  CA       -53.9550  -25.5250   31.0350 C.3    76  ALA76       0.1728
     20  C        -52.4690  -25.8280   31.0440 C.2    76  ALA76       0.2617
     21  O        -51.6590  -24.9120   31.1430 O.2    76  ALA76      -0.2715
     22  CB       -54.4260  -25.2030   29.6240 C.3    76  ALA76       0.0334
     23  N        -52.1220  -27.1110   31.1400 N.am   77  THR77      -0.1937
     24  CA       -50.7350  -27.5690   31.0260 C.3    77  THR77       0.2028
     25  C        -50.4240  -27.8210   29.5530 C.2    77  THR77       0.2643
     26  O        -50.8290  -28.8480   28.9980 O.2    77  THR77      -0.2714
     27  CB       -50.5290  -28.8400   31.8360 C.3    77  THR77       0.1808
     28  OG1      -51.5320  -29.8160   31.4940 O.3    77  THR77      -0.2208
     29  CG2      -50.6560  -28.4980   33.3190 C.3    77  THR77       0.0379
     30  N        -49.7900  -26.8520   28.8850 N.am   78  SER78      -0.1935
     31  CA       -49.4830  -26.9360   27.4420 C.3    78  SER78       0.2055
     32  C        -50.7650  -27.0280   26.6060 C.2    78  SER78       0.2644
     33  O        -51.0740  -28.0500   25.9930 O.2    78  SER78      -0.2714
     34  CB       -48.5280  -28.0830   27.0920 C.3    78  SER78       0.2130
     35  OG       -47.3410  -27.9510   27.8110 O.3    78  SER78      -0.2179
     36  N        -51.5680  -25.9860   26.7030 N.am   79  SER79      -0.1935
     37  CA       -52.7390  -25.8090   25.8650 C.3    79  SER79       0.2055
     38  C        -52.6000  -26.3590   24.4470 C.2    79  SER79       0.2643
     39  O        -53.4200  -27.1580   23.9870 O.2    79  SER79      -0.2714
     40  CB       -53.0570  -24.3110   25.8040 C.3    79  SER79       0.2130
     41  OG       -54.2820  -24.1200   25.1830 O.3    79  SER79      -0.2179
     42  N        -51.5970  -25.8530   23.7260 N.am   80  GLY80      -0.1954
     43  CA       -51.4280  -26.1900   22.3140 C.3    80  GLY80       0.1869
     44  C        -51.2220  -27.6630   22.0810 C.2    80  GLY80       0.2309
     45  O        -51.7840  -28.2540   21.1550 O.2    80  GLY80      -0.2863
     46  N        -48.8490  -35.3800   37.6460 N.3   111  ARG111     -0.1245
     47  CA       -48.9780  -34.0810   36.9740 C.3   111  ARG111      0.1563
     48  C        -47.7610  -33.9520   36.0600 C.2   111  ARG111      0.2260
     49  O        -46.6570  -33.6320   36.5220 O.2   111  ARG111     -0.2867
     50  CB       -49.0900  -32.9510   37.9960 C.3   111  ARG111      0.0307
     51  CG       -49.5980  -31.5580   37.5090 C.3   111  ARG111      0.0489
     52  CD       -48.6740  -30.9040   36.5320 C.3   111  ARG111      0.2205
     53  NE       -48.8440  -29.4610   36.4490 N.pl3 111  ARG111     -0.0865
     54  CZ       -48.2210  -28.6890   35.5570 C.cat 111  ARG111      0.5346
     55  NH1      -47.4030  -29.2310   34.6610 N.pl3 111  ARG111      0.1354
     56  NH2      -48.4290  -27.3750   35.5480 N.pl3 111  ARG111      0.1354
     57  N        -42.5420  -30.6830   28.5130 N.3   115  TYR115     -0.1241
     58  CA       -41.2180  -30.2230   28.0910 C.3   115  TYR115      0.1605
     59  C        -40.1360  -30.9440   28.8730 C.2   115  TYR115      0.2264
     60  O        -39.0670  -31.2480   28.3360 O.2   115  TYR115     -0.2867
     61  CB       -41.0750  -28.7050   28.2400 C.3   115  TYR115      0.0534
     62  CG       -42.2000  -27.9390   27.5740 C.ar  115  TYR115     -0.0201
     63  CD1      -42.3740  -27.9680   26.1930 C.ar  115  TYR115     -0.0009
     64  CD2      -43.1170  -27.1910   28.3480 C.ar  115  TYR115     -0.0009
     65  CE1      -43.4450  -27.2830   25.5910 C.ar  115  TYR115      0.0417
     66  CE2      -44.1700  -26.5010   27.7620 C.ar  115  TYR115      0.0417
     67  CZ       -44.3340  -26.5470   26.3810 C.ar  115  TYR115      0.1957
     68  OH       -45.3810  -25.8720   25.7930 O.3   115  TYR115     -0.2866
     69  N        -37.3270  -26.3570   25.7100 N.3   138  LYS138     -0.1231
     70  CA       -38.7400  -25.9710   25.7320 C.3   138  LYS138      0.1693
     71  C        -39.0640  -24.9800   24.6250 C.2   138  LYS138      0.2591
     72  O        -40.1390  -25.0520   24.0140 O.2   138  LYS138     -0.2718
     73  CB       -39.1130  -25.3700   27.0810 C.3   138  LYS138      0.0285
     74  CG       -40.4340  -24.5920   27.0800 C.3   138  LYS138      0.0035
     75  CD       -40.6040  -23.9060   28.4220 C.3   138  LYS138      0.0206
     76  CE       -42.0270  -23.5070   28.7380 C.3   138  LYS138      0.1093
     77  NZ       -42.1010  -23.0300   30.1660 N.3   138  LYS138     -0.1314
     78  N        -38.1880  -23.9850   24.4170 N.am  139  GLN139     -0.1979
     79  CA       -38.3840  -23.0590   23.3010 C.3   139  GLN139      0.1601
     80  C        -38.4550  -23.7970   21.9740 C.2   139  GLN139      0.2287
     81  O        -39.3610  -23.5490   21.1710 O.2   139  GLN139     -0.2864
     82  CB       -37.2900  -21.9870   23.2740 C.3   139  GLN139      0.0394
     83  CG       -37.8510  -20.5840   23.4900 C.3   139  GLN139      0.0908
     84  CD       -38.8280  -20.5110   24.6480 C.2   139  GLN139      0.2608
     85  OE1      -38.4350  -20.6580   25.8050 O.2   139  GLN139     -0.2717
     86  NE2      -40.1240  -20.3330   24.3370 N.am  139  GLN139     -0.0878
     87  N        -41.8140  -25.8820   21.8280 N.3   142  MET142     -0.1230
     88  CA       -43.0400  -25.1060   21.6850 C.3   142  MET142      0.1702
     89  C        -43.0710  -24.3140   20.3760 C.2   142  MET142      0.2593
     90  O        -44.1240  -24.2340   19.7370 O.2   142  MET142     -0.2718
     91  CB       -43.1970  -24.1980   22.9100 C.3   142  MET142      0.0401
     92  CG       -42.7360  -22.7690   22.7250 C.3   142  MET142      0.0596
     93  SD       -43.4160  -21.6070   23.9250 S.3   142  MET142     -0.1393
     94  CE       -42.9240  -22.3500   25.4730 C.3   142  MET142      0.0692
     95  N        -41.9290  -23.7980   19.8990 N.am  143  THR143     -0.1953
     96  CA       -41.9700  -23.1200   18.6050 C.3   143  THR143      0.1897
     97  C        -42.1470  -24.1220   17.4770 C.2   143  THR143      0.2313
     98  O        -42.7530  -23.8040   16.4530 O.2   143  THR143     -0.2863
     99  CB       -40.7120  -22.2880   18.3740 C.3   143  THR143      0.1794
    100  OG1      -39.5450  -23.1210   18.4160 O.3   143  THR143     -0.2208
    101  CG2      -40.6000  -21.2310   19.4360 C.3   143  THR143      0.0378
    102  N        -45.6980  -25.1010   16.9120 N.3   146  TYR146     -0.1241
    103  CA       -46.4240  -24.0810   16.1790 C.3   146  TYR146      0.1605
    104  C        -45.8660  -23.8910   14.7740 C.2   146  TYR146      0.2264
    105  O        -46.2640  -22.9420   14.0840 O.2   146  TYR146     -0.2867
    106  CB       -46.4960  -22.7820   16.9460 C.3   146  TYR146      0.0534
    107  CG       -47.4970  -22.9260   18.0610 C.ar  146  TYR146     -0.0201
    108  CD1      -48.8260  -23.2300   17.7890 C.ar  146  TYR146     -0.0009
    109  CD2      -47.1340  -22.7010   19.3760 C.ar  146  TYR146     -0.0009
    110  CE1      -49.7580  -23.3510   18.8060 C.ar  146  TYR146      0.0417
    111  CE2      -48.0520  -22.8140   20.3980 C.ar  146  TYR146      0.0417
    112  CZ       -49.3690  -23.1300   20.1150 C.ar  146  TYR146      0.1957
    113  OH       -50.2770  -23.2360   21.1610 O.3   146  TYR146     -0.2866
    114  N        -50.3220  -22.5090   14.1640 N.3   241  ALA241     -0.1245
    115  CA       -50.5450  -21.6250   15.3110 C.3   241  ALA241      0.1562
    116  C        -51.9450  -21.0290   15.2550 C.2   241  ALA241      0.2260
    117  O        -52.6310  -20.9440   16.2740 O.2   241  ALA241     -0.2867
    118  CB       -49.4910  -20.5270   15.3820 C.3   241  ALA241      0.0290
    119  N        -54.7830  -21.7380   17.8590 N.3   245  HIS245     -0.1241
    120  CA       -55.2490  -20.6370   18.6870 C.3   245  HIS245      0.1621
    121  C        -56.7220  -20.3790   18.4760 C.2   245  HIS245      0.2264
    122  O        -57.4220  -20.0630   19.4400 O.2   245  HIS245     -0.2867
    123  CB       -54.4160  -19.4200   18.3790 C.3   245  HIS245      0.0745
    124  CG       -53.0690  -19.5110   19.0000 C.ar  245  HIS245      0.0817
    125  ND1      -51.9550  -18.9110   18.4560 N.ar  245  HIS245     -0.2268
    126  CD2      -52.6190  -20.2950   20.0030 C.ar  245  HIS245      0.1154
    127  CE1      -50.8910  -19.2460   19.1550 C.ar  245  HIS245      0.1986
    128  NE2      -51.2690  -20.0870   20.0990 N.ar  245  HIS245     -0.2212
    129  N        -58.3340  -22.8920   20.9520 N.3   248  ASP248     -0.1239
    130  CA       -58.3720  -22.5090   22.3560 C.3   248  ASP248      0.1674
    131  C        -59.2700  -21.2850   22.5350 C.2   248  ASP248      0.2266
    132  O        -59.9030  -21.1180   23.5870 O.2   248  ASP248     -0.2867
    133  CB       -56.9600  -22.3160   22.9720 C.3   248  ASP248      0.1410
    134  CG       -56.1890  -21.1690   22.3890 C.2   248  ASP248      0.3668
    135  OD1      -56.6090  -19.9810   22.4730 O.co2 248  ASP248     -0.2456
    136  OD2      -55.0910  -21.4450   21.9030 O.co2 248  ASP248     -0.2456
    137  N        -55.6690  -19.5230   28.2020 N.3   342  ASP342     -0.1239
    138  CA       -55.6950  -20.9090   28.6490 C.3   342  ASP342      0.1674
    139  C        -55.4480  -20.9880   30.1500 C.2   342  ASP342      0.2266
    140  O        -55.1320  -22.0740   30.6620 O.2   342  ASP342     -0.2867
    141  CB       -54.7030  -21.7140   27.8010 C.3   342  ASP342      0.1410
    142  CG       -53.2730  -21.1900   27.8990 C.2   342  ASP342      0.3668
    143  OD1      -53.0230  -20.1930   28.5750 O.co2 342  ASP342     -0.2456
    144  OD2      -52.4200  -21.6450   27.1090 O.co2 342  ASP342     -0.2456
@<TRIPOS>BOND
     1   105   104    2
     2   114   115    1
     3   104   103    1
     4   116   115    1
     5   116   117    2
     6   115   118    1
     7   103   102    1
     8   103   106    1
     9    98    97    2
    10   106   107    1
    11    97    96    1
    12   108   107   ar
    13   108   110   ar
    14   119   120    1
    15   107   109   ar
    16    99   100    1
    17    99    96    1
    18    99   101    1
    19   123   120    1
    20   123   124    1
    21   125   124   ar
    22   125   127   ar
    23   121   120    1
    24   121   122    2
    25    96    95    1
    26   110   112   ar
    27   124   126   ar
    28   127   128   ar
    29   109   111   ar
    30    90    89    2
    31    95    89   am
    32   126   128   ar
    33   112   111   ar
    34   112   113    1
    35    89    88    1
    36   129   130    1
    37    45    44    2
    38    81    80    2
    39    88    87    1
    40    88    91    1
    41   136   134   ar
    42    80    79    1
    43    44    43    1
    44    43    42    1
    45   130   131    1
    46   130   133    1
    47   134   135   ar
    48   134   133    1
    49   131   132    2
    50    92    91    1
    51    92    93    1
    52    82    79    1
    53    82    83    1
    54    79    78    1
    55    83    84    1
    56    42    38   am
    57    93    94    1
    58    39    38    2
    59    72    71    2
    60    86    84   am
    61    78    71   am
    62    38    37    1
    63    71    70    1
    64    84    85    2
    65    41    40    1
    66    65    63   ar
    67    65    67   ar
    68    69    70    1
    69    70    73    1
    70    68    67    1
    71    40    37    1
    72    37    36    1
    73    33    32    2
    74    63    62   ar
    75    67    66   ar
    76    32    36   am
    77    32    31    1
    78    74    73    1
    79    74    75    1
    80    34    31    1
    81    34    35    1
    82   144   142   ar
    83    31    30    1
    84    62    61    1
    85    62    64   ar
    86    66    64   ar
    87   141   142    1
    88   141   138    1
    89   142   143   ar
    90    58    61    1
    91    58    57    1
    92    58    59    1
    93   137   138    1
    94    60    59    2
    95    75    76    1
    96   138   139    1
    97    76    77    1
    98    30    25   am
    99    26    25    2
   100    25    24    1
   101    22    19    1
   102   139   140    2
   103    24    23    1
   104    24    27    1
   105    19    20    1
   106    19    18    1
   107    20    23   am
   108    20    21    2
   109    28    27    1
   110    27    29    1
   111    18    12   am
   112    12    13    2
   113    12    11    1
   114    16    15   ar
   115    11    14    1
   116    11    10    1
   117    14    15    1
   118    15    17   ar
   119    55    54    1
   120     8     9    1
   121     8     7    1
   122    56    54    1
   123    54    53    2
   124    48    49    2
   125    48    47    1
   126    53    52    1
   127    52    51    1
   128     7     6    1
   129    47    46    1
   130    47    50    1
   131     6     5    1
   132    51    50    1
   133     5     2    1
   134     2     1    1
   135     2     3    1
   136     4     3    2
