@<TRIPOS>MOLECULE
tmp/6dthA00.pdb
 98 97 0 0 0
SMALL
GASTEIGER

@<TRIPOS>ATOM
      1  N        -19.6980  -20.2110   23.8180 N.3    27  VAL27      -0.1245
      2  CA       -19.3000  -21.3920   23.0460 C.3    27  VAL27       0.1561
      3  C        -20.5220  -22.1530   22.5180 C.2    27  VAL27       0.2260
      4  O        -20.5280  -22.5490   21.3660 O.2    27  VAL27      -0.2867
      5  CB       -18.3550  -22.3110   23.8370 C.3    27  VAL27       0.0252
      6  CG1      -18.2160  -23.6680   23.1740 C.3    27  VAL27       0.0019
      7  CG2      -16.9870  -21.6770   24.0030 C.3    27  VAL27       0.0019
      8  N        -21.5910  -20.1340   19.3370 N.3    30  SER30      -0.1217
      9  CA       -20.6750  -20.1890   18.2230 C.3    30  SER30       0.1889
     10  C        -20.6790  -21.5800   17.5900 C.2    30  SER30       0.2288
     11  O        -20.5990  -21.7140   16.3810 O.2    30  SER30      -0.2866
     12  CB       -19.2850  -19.7880   18.6290 C.3    30  SER30       0.2089
     13  OG       -18.6500  -20.8450   19.3080 O.3    30  SER30      -0.2183
     14  N        -21.4660  -21.7390   13.6780 N.3    34  TYR34      -0.1241
     15  CA       -20.3700  -22.2260   12.8080 C.3    34  TYR34       0.1605
     16  C        -20.8030  -23.3480   11.8460 C.2    34  TYR34       0.2264
     17  O        -20.0930  -23.6090   10.8530 O.2    34  TYR34      -0.2867
     18  CB       -19.2180  -22.7350   13.6710 C.3    34  TYR34       0.0534
     19  CG       -18.2030  -21.7110   14.1040 C.ar   34  TYR34      -0.0201
     20  CD1      -17.9190  -20.5880   13.3430 C.ar   34  TYR34      -0.0009
     21  CD2      -17.4510  -21.9220   15.2430 C.ar   34  TYR34      -0.0009
     22  CE1      -16.9440  -19.6810   13.7190 C.ar   34  TYR34       0.0417
     23  CE2      -16.4680  -21.0310   15.6370 C.ar   34  TYR34       0.0417
     24  CZ       -16.2030  -19.9130   14.8650 C.ar   34  TYR34       0.1957
     25  OH       -15.2050  -19.0580   15.2280 O.3    34  TYR34      -0.2866
     26  N        -20.1860   -8.5060   21.2660 N.3   103  TYR103     -0.1241
     27  CA       -18.8870   -8.5330   20.6310 C.3   103  TYR103      0.1605
     28  C        -18.6790   -7.2760   19.7740 C.2   103  TYR103      0.2264
     29  O        -17.7650   -7.2230   18.9400 O.2   103  TYR103     -0.2867
     30  CB       -18.7620   -9.8370   19.8500 C.3   103  TYR103      0.0534
     31  CG       -17.8800  -10.8720   20.4980 C.ar  103  TYR103     -0.0201
     32  CD1      -16.5090  -10.7080   20.4930 C.ar  103  TYR103     -0.0009
     33  CD2      -18.3970  -11.9980   21.1240 C.ar  103  TYR103     -0.0009
     34  CE1      -15.6720  -11.6490   21.0660 C.ar  103  TYR103      0.0417
     35  CE2      -17.5680  -12.9480   21.7050 C.ar  103  TYR103      0.0417
     36  CZ       -16.1970  -12.7740   21.6570 C.ar  103  TYR103      0.1957
     37  OH       -15.3340  -13.6840   22.1810 O.3   103  TYR103     -0.2866
     38  N        -13.7840  -15.6370   13.5810 N.3   155  HIS155     -0.1226
     39  CA       -14.6080  -15.5320   14.7750 C.3   155  HIS155      0.1752
     40  C        -16.1010  -15.4470   14.4010 C.2   155  HIS155      0.2595
     41  O        -16.4570  -14.9460   13.3680 O.2   155  HIS155     -0.2718
     42  CB       -14.1090  -14.3350   15.6000 C.3   155  HIS155      0.0759
     43  CG       -14.8460  -14.1770   16.8770 C.ar  155  HIS155      0.0818
     44  ND1      -14.4880  -14.8550   18.0180 N.ar  155  HIS155     -0.2268
     45  CD2      -15.9630  -13.4820   17.1650 C.ar  155  HIS155      0.1154
     46  CE1      -15.3470  -14.5590   18.9700 C.ar  155  HIS155      0.1986
     47  NE2      -16.2690  -13.7220   18.4640 N.ar  155  HIS155     -0.2212
     48  N        -16.9740  -15.9270   15.2810 N.am  156  GLN156     -0.1979
     49  CA       -18.4240  -16.0020   15.0200 C.3   156  GLN156      0.1601
     50  C        -19.0180  -14.6100   14.7910 C.2   156  GLN156      0.2287
     51  O        -19.9930  -14.4880   14.0880 O.2   156  GLN156     -0.2864
     52  CB       -19.1830  -16.6990   16.1590 C.3   156  GLN156      0.0394
     53  CG       -19.2330  -15.9260   17.4700 C.3   156  GLN156      0.0908
     54  CD       -20.4920  -16.2000   18.2720 C.2   156  GLN156      0.2608
     55  OE1      -21.5730  -16.4330   17.7280 O.2   156  GLN156     -0.2717
     56  NE2      -20.3660  -16.1850   19.5910 N.am  156  GLN156     -0.0878
     57  N        -12.6810  -17.6960   29.6500 N.3   413  TRP413     -0.1227
     58  CA       -12.4070  -17.0480   28.3880 C.3   413  TRP413      0.1737
     59  C        -11.5370  -17.9670   27.5320 C.2   413  TRP413      0.2595
     60  O        -10.4770  -18.3510   27.9760 O.2   413  TRP413     -0.2718
     61  CB       -11.7260  -15.6990   28.6020 C.3   413  TRP413      0.0564
     62  CG       -11.7300  -14.8320   27.3810 C.ar  413  TRP413      0.0003
     63  CD1      -10.6560  -14.4360   26.6370 C.ar  413  TRP413      0.0946
     64  CD2      -12.8870  -14.2460   26.7630 C.ar  413  TRP413      0.0152
     65  NE1      -11.0650  -13.6300   25.6080 N.ar  413  TRP413     -0.2442
     66  CE2      -12.4240  -13.4860   25.6660 C.ar  413  TRP413      0.0810
     67  CE3      -14.2630  -14.2800   27.0390 C.ar  413  TRP413      0.0012
     68  CZ2      -13.2890  -12.7570   24.8520 C.ar  413  TRP413      0.0191
     69  CZ3      -15.1210  -13.5640   26.2260 C.ar  413  TRP413      0.0001
     70  CH2      -14.6360  -12.8130   25.1500 C.ar  413  TRP413      0.0015
     71  N        -12.0260  -18.3020   26.3330 N.am  414  HIS414     -0.1975
     72  CA       -11.2860  -19.0540   25.3270 C.3   414  HIS414      0.1656
     73  C        -10.8820  -18.0940   24.2070 C.2   414  HIS414      0.2291
     74  O        -11.7160  -17.2920   23.7210 O.2   414  HIS414     -0.2864
     75  CB       -12.1290  -20.2120   24.7580 C.3   414  HIS414      0.0771
     76  CG       -12.3200  -21.3660   25.6860 C.ar  414  HIS414      0.0820
     77  ND1      -11.2800  -21.9040   26.4300 N.ar  414  HIS414     -0.2267
     78  CD2      -13.4160  -22.1040   25.9770 C.ar  414  HIS414      0.1154
     79  CE1      -11.7390  -22.9060   27.1530 C.ar  414  HIS414      0.1986
     80  NE2      -13.0470  -23.0470   26.9000 N.ar  414  HIS414     -0.2212
     81  N        -10.2490  -16.1430   20.9790 N.3   416  ASP416     -0.1239
     82  CA       -10.9510  -15.9270   19.7210 C.3   416  ASP416      0.1674
     83  C         -9.9470  -15.9850   18.5480 C.2   416  ASP416      0.2266
     84  O        -10.3300  -16.1400   17.4130 O.2   416  ASP416     -0.2867
     85  CB       -11.7220  -14.6030   19.7630 C.3   416  ASP416      0.1410
     86  CG       -12.7960  -14.5290   20.8430 C.2   416  ASP416      0.3668
     87  OD1      -13.3770  -15.5790   21.1510 O.co2 416  ASP416     -0.2456
     88  OD2      -13.0650  -13.4130   21.3460 O.co2 416  ASP416     -0.2456
     89  N        -12.5770  -26.0210   18.3570 N.3   503  HIS503     -0.1241
     90  CA       -13.7830  -25.8770   17.5170 C.3   503  HIS503      0.1621
     91  C        -14.2000  -27.2540   17.0030 C.2   503  HIS503      0.2264
     92  O        -13.3520  -28.1540   16.8300 O.2   503  HIS503     -0.2867
     93  CB       -13.5570  -24.9020   16.3530 C.3   503  HIS503      0.0745
     94  CG       -13.4420  -23.4860   16.7970 C.ar  503  HIS503      0.0817
     95  ND1      -13.9080  -23.0600   18.0400 N.ar  503  HIS503     -0.2268
     96  CD2      -12.9030  -22.4010   16.1980 C.ar  503  HIS503      0.1154
     97  CE1      -13.6630  -21.7730   18.1810 C.ar  503  HIS503      0.1986
     98  NE2      -13.0600  -21.3440   17.0600 N.ar  503  HIS503     -0.2212
@<TRIPOS>BOND
     1    17    16    2
     2    16    15    1
     3    15    18    1
     4    15    14    1
     5    20    22   ar
     6    20    19   ar
     7    41    40    2
     8    38    39    1
     9    18    19    1
    10    22    24   ar
    11    51    50    2
    12    19    21   ar
    13    40    39    1
    14    40    48   am
    15    39    42    1
    16    50    49    1
    17    24    25    1
    18    24    23   ar
    19    49    48    1
    20    49    52    1
    21    21    23   ar
    22    42    43    1
    23    52    53    1
    24    96    94   ar
    25    96    98   ar
    26    93    94    1
    27    93    90    1
    28    11    10    2
    29    94    95   ar
    30    92    91    2
    31    43    45   ar
    32    43    44   ar
    33    91    90    1
    34    98    97   ar
    35    45    47   ar
    36    84    83    2
    37    53    54    1
    38    90    89    1
    39    10     9    1
    40    55    54    2
    41    44    46   ar
    42    95    97   ar
    43     9    12    1
    44     9     8    1
    45    54    56   am
    46    47    46   ar
    47    83    82    1
    48    12    13    1
    49    29    28    2
    50    82    85    1
    51    82    81    1
    52    85    86    1
    53    28    27    1
    54    30    31    1
    55    30    27    1
    56    32    31   ar
    57    32    34   ar
    58    31    33   ar
    59    27    26    1
    60    86    87   ar
    61    86    88   ar
    62    34    36   ar
    63    33    35   ar
    64     4     3    2
    65    36    35   ar
    66    36    37    1
    67     3     2    1
    68     2     1    1
    69     2     5    1
    70     6     5    1
    71    74    73    2
    72     5     7    1
    73    73    72    1
    74    75    72    1
    75    75    76    1
    76    68    70   ar
    77    68    66   ar
    78    70    69   ar
    79    72    71    1
    80    65    66   ar
    81    65    63   ar
    82    66    64   ar
    83    76    78   ar
    84    76    77   ar
    85    78    80   ar
    86    69    67   ar
    87    71    59   am
    88    77    79   ar
    89    63    62   ar
    90    64    67   ar
    91    64    62   ar
    92    80    79   ar
    93    62    61    1
    94    59    60    2
    95    59    58    1
    96    58    61    1
    97    58    57    1
