@<TRIPOS>MOLECULE
tmp/6dtpA00.pdb
 83 81 0 0 0
SMALL
GASTEIGER

@<TRIPOS>ATOM
      1  N         42.7390   -4.1510    6.3860 N.3   170  ALA170     -0.1245
      2  CA        43.2250   -5.2620    7.2140 C.3   170  ALA170      0.1562
      3  C         44.4240   -5.9650    6.5640 C.2   170  ALA170      0.2260
      4  O         45.3790   -6.3490    7.2590 O.2   170  ALA170     -0.2867
      5  CB        42.1110   -6.2660    7.5030 C.3   170  ALA170      0.0290
      6  N         47.2840   -3.7240    7.3290 N.3   173  LEU173     -0.1231
      7  CA        47.5470   -3.4550    8.7440 C.3   173  LEU173      0.1693
      8  C         48.0930   -4.6580    9.5360 C.2   173  LEU173      0.2591
      9  O         48.5960   -4.4680   10.6370 O.2   173  LEU173     -0.2718
     10  CB        46.2950   -2.8830    9.4380 C.3   173  LEU173      0.0284
     11  CG        45.8260   -1.4720    9.0700 C.3   173  LEU173      0.0019
     12  CD1       44.4450   -1.1840    9.6550 C.3   173  LEU173      0.0001
     13  CD2       46.8140   -0.4360    9.5550 C.3   173  LEU173      0.0001
     14  N         47.9840   -5.8640    8.9890 N.am  174  LEU174     -0.1980
     15  CA        48.4340   -7.0920    9.6550 C.3   174  LEU174      0.1596
     16  C         49.8220   -6.9760   10.3190 C.2   174  LEU174      0.2287
     17  O         49.9320   -7.0910   11.5430 O.2   174  LEU174     -0.2864
     18  CB        48.3730   -8.2560    8.6620 C.3   174  LEU174      0.0297
     19  CG        48.7590   -9.6800    9.0750 C.3   174  LEU174      0.0022
     20  CD1       47.8260  -10.1920   10.1700 C.3   174  LEU174      0.0001
     21  CD2       48.7300  -10.6000    7.8460 C.3   174  LEU174      0.0001
     22  N         48.1370   -3.6250   14.2620 N.3   178  VAL178     -0.1231
     23  CA        46.8730   -2.9080   14.4020 C.3   178  VAL178      0.1692
     24  C         45.7990   -3.8240   13.8430 C.2   178  VAL178      0.2592
     25  O         45.9140   -4.3110   12.7050 O.2   178  VAL178     -0.2718
     26  CB        46.8970   -1.5500   13.6660 C.3   178  VAL178      0.0266
     27  CG1       45.5950   -0.7800   13.8600 C.3   178  VAL178      0.0020
     28  CG2       48.0820   -0.7190   14.1510 C.3   178  VAL178      0.0020
     29  N         44.7730   -4.0790   14.6480 N.am  179  HIS179     -0.1962
     30  CA        43.7740   -5.0920   14.3310 C.3   179  HIS179      0.1787
     31  C         42.4320   -4.4680   14.1310 C.2   179  HIS179      0.2620
     32  O         41.9720   -3.7300   14.9920 O.2   179  HIS179     -0.2715
     33  CB        43.6540   -6.1240   15.4490 C.3   179  HIS179      0.0785
     34  CG        44.9660   -6.6800   15.9020 C.ar  179  HIS179      0.0821
     35  ND1       45.6480   -7.6450   15.1990 N.ar  179  HIS179     -0.2267
     36  CD2       45.7190   -6.4070   16.9950 C.ar  179  HIS179      0.1154
     37  CE1       46.7650   -7.9430   15.8380 C.ar  179  HIS179      0.1986
     38  NE2       46.8300   -7.2070   16.9310 N.ar  179  HIS179     -0.2212
     39  N         41.7960   -4.8300   13.0260 N.am  180  LEU180     -0.1963
     40  CA        40.5240   -4.2980   12.6130 C.3   180  LEU180      0.1728
     41  C         39.5470   -5.4510   12.6050 C.2   180  LEU180      0.2616
     42  O         39.8820   -6.5230   12.1050 O.2   180  LEU180     -0.2715
     43  CB        40.6700   -3.7160   11.2090 C.3   180  LEU180      0.0311
     44  CG        39.8190   -2.5280   10.8240 C.3   180  LEU180      0.0022
     45  CD1       40.3050   -1.9300    9.5050 C.3   180  LEU180      0.0001
     46  CD2       38.3680   -2.9420   10.7360 C.3   180  LEU180      0.0001
     47  N         38.3400   -5.2430   13.1360 N.am  181  SER181     -0.1950
     48  CA        37.3150   -6.2640   13.0730 C.3   181  SER181      0.1924
     49  C         35.9450   -5.6480   12.8610 C.2   181  SER181      0.2314
     50  O         35.6030   -4.6320   13.4780 O.2   181  SER181     -0.2863
     51  CB        37.2350   -7.1050   14.3570 C.3   181  SER181      0.2116
     52  OG        38.4750   -7.6020   14.7860 O.3   181  SER181     -0.2180
     53  N         44.5450  -12.5220   19.2600 N.3   242  LYS242     -0.1231
     54  CA        44.6700  -12.4930   17.7930 C.3   242  LYS242      0.1678
     55  C         43.2910  -12.3800   17.1100 C.2   242  LYS242      0.2434
     56  O         42.7430  -13.3400   16.5970 O.2   242  LYS242     -0.2733
     57  CB        45.4600  -13.7310   17.3430 C.3   242  LYS242      0.0284
     58  CG        46.9520  -13.5320   17.5890 C.3   242  LYS242      0.0035
     59  CD        47.7150  -14.8040   17.9070 C.3   242  LYS242      0.0206
     60  CE        49.1540  -14.4500   18.2660 C.3   242  LYS242      0.1093
     61  NZ        49.9670  -15.6390   18.6430 N.3   242  LYS242     -0.1314
     62  N         42.7160  -11.1830   17.1090 N.am  243  PRO243     -0.2718
     63  CA        41.3460  -11.0860   16.5950 C.3   243  PRO243      0.1535
     64  C         41.2060  -11.3950   15.0910 C.2   243  PRO243      0.2599
     65  O         42.1340  -11.2320   14.3120 O.2   243  PRO243     -0.2715
     66  CB        40.9540   -9.6490   16.9170 C.3   243  PRO243      0.0310
     67  CG        42.2470   -8.9290   16.9510 C.3   243  PRO243      0.0237
     68  CD        43.2540   -9.8780   17.5030 C.3   243  PRO243      0.0939
     69  N         40.0430  -11.8980   14.7290 N.am  244  THR244     -0.1937
     70  CA        39.7140  -12.2060   13.3560 C.3   244  THR244      0.2028
     71  C         39.0830  -10.9460   12.7510 C.2   244  THR244      0.2642
     72  O         38.7200  -10.0040   13.4950 O.2   244  THR244     -0.2714
     73  CB        38.8250  -13.4730   13.2760 C.3   244  THR244      0.1808
     74  OG1       38.5530  -13.7730   11.9080 O.3   244  THR244     -0.2208
     75  CG2       37.5100  -13.3310   14.0360 C.3   244  THR244      0.0379
     76  N         38.9820  -10.9060   11.4180 N.am  245  LEU245     -0.1977
     77  CA        38.3890   -9.7620   10.6970 C.3   245  LEU245      0.1596
     78  C         36.8510   -9.6150   10.9360 C.2   245  LEU245      0.2287
     79  O         36.3350   -8.5050   10.9220 O.2   245  LEU245     -0.2864
     80  CB        38.6860   -9.8720    9.1930 C.3   245  LEU245      0.0297
     81  CG        38.1630   -8.7570    8.2750 C.3   245  LEU245      0.0022
     82  CD1       38.7500   -7.4040    8.6500 C.3   245  LEU245      0.0001
     83  CD2       38.4210   -9.0790    6.8090 C.3   245  LEU245      0.0001
@<TRIPOS>BOND
     1     1     2    1
     2     3     2    1
     3     3     4    2
     4    83    81    1
     5     2     5    1
     6     6     7    1
     7    21    19    1
     8    81    82    1
     9    81    80    1
    10    18    19    1
    11    18    15    1
    12     7    10    1
    13     7     8    1
    14    14     8   am
    15    14    15    1
    16    11    10    1
    17    11    13    1
    18    11    12    1
    19    19    20    1
    20    80    77    1
    21    45    44    1
    22     8     9    2
    23    15    16    1
    24    16    17    2
    25    77    78    1
    26    77    76    1
    27    46    44    1
    28    44    43    1
    29    79    78    2
    30    43    40    1
    31    76    71   am
    32    74    73    1
    33    42    41    2
    34    41    40    1
    35    41    47   am
    36    40    39    1
    37    25    24    2
    38    71    70    1
    39    71    72    2
    40    49    48    1
    41    49    50    2
    42    39    31   am
    43    48    47    1
    44    48    51    1
    45    73    70    1
    46    73    75    1
    47    70    69    1
    48    26    27    1
    49    26    28    1
    50    26    23    1
    51    24    23    1
    52    24    29   am
    53    31    30    1
    54    31    32    2
    55    22    23    1
    56    65    64    2
    57    30    29    1
    58    30    33    1
    59    51    52    1
    60    69    64   am
    61    64    63    1
    62    35    37   ar
    63    35    34   ar
    64    33    34    1
    65    37    38   ar
    66    34    36   ar
    67    63    66    1
    68    63    62    1
    69    56    55    2
    70    66    67    1
    71    38    36   ar
    72    67    68    1
    73    62    55   am
    74    62    68    1
    75    55    54    1
    76    57    58    1
    77    57    54    1
    78    58    59    1
    79    54    53    1
    80    59    60    1
    81    60    61    1
