@<TRIPOS>MOLECULE
tmp/6dtqC00.pdb
 184 174 0 0 0
SMALL
GASTEIGER

@<TRIPOS>ATOM
      1  N        -34.8280    9.5360   12.6150 N.3    11  VAL11      -0.1245
      2  CA       -34.2410   10.1440   13.8010 C.3    11  VAL11       0.1561
      3  C        -34.9540    9.6080   15.0340 C.2    11  VAL11       0.2260
      4  O        -36.1880    9.6390   15.1170 O.2    11  VAL11      -0.2867
      5  CB       -34.3300   11.6760   13.7270 C.3    11  VAL11       0.0252
      6  CG1      -33.8550   12.3010   15.0310 C.3    11  VAL11       0.0019
      7  CG2      -33.5200   12.1970   12.5470 C.3    11  VAL11       0.0019
      8  N        -38.7540    7.4780   15.5290 N.3    14  GLU14      -0.1245
      9  CA       -39.9160    7.8730   14.7330 C.3    14  GLU14       0.1567
     10  C        -40.2270    6.8550   13.6370 C.2    14  GLU14       0.2260
     11  O        -41.4000    6.5860   13.3540 O.2    14  GLU14      -0.2867
     12  CB       -39.7070    9.2720   14.1440 C.3    14  GLU14       0.0388
     13  CG       -38.6390    9.3740   13.0730 C.3    14  GLU14       0.1160
     14  CD       -38.3550   10.8090   12.6810 C.2    14  GLU14       0.3649
     15  OE1      -39.1590   11.6910   13.0490 O.co2  14  GLU14      -0.2457
     16  OE2      -37.3330   11.0540   12.0050 O.co2  14  GLU14      -0.2457
     17  N        -31.1060   12.1490    7.7460 N.3    41  ASP41      -0.1239
     18  CA       -31.3920   12.9020    8.9630 C.3    41  ASP41       0.1674
     19  C        -31.4640   14.3990    8.6910 C.2    41  ASP41       0.2266
     20  O        -32.2310   15.1130    9.3480 O.2    41  ASP41      -0.2867
     21  CB       -30.3320   12.6120   10.0270 C.3    41  ASP41       0.1410
     22  CG       -30.3730   11.1770   10.5220 C.2    41  ASP41       0.3668
     23  OD1      -31.2060   10.3910   10.0210 O.co2  41  ASP41      -0.2456
     24  OD2      -29.5700   10.8370   11.4160 O.co2  41  ASP41      -0.2456
     25  N        -32.3970   17.9020    7.4000 N.3    43  SER43      -0.1217
     26  CA       -33.4960   18.5960    6.7400 C.3    43  SER43       0.1889
     27  C        -33.0260   19.2310    5.4370 C.2    43  SER43       0.2288
     28  O        -33.7620   19.2490    4.4430 O.2    43  SER43      -0.2866
     29  CB       -34.0910   19.6490    7.6760 C.3    43  SER43       0.2089
     30  OG       -35.0280   20.4680    6.9960 O.3    43  SER43      -0.2183
     31  N        -32.9480   16.5520    2.8640 N.3    46  ARG46      -0.1245
     32  CA       -34.3180   16.1800    2.5240 C.3    46  ARG46       0.1563
     33  C        -34.9200   17.1680    1.5380 C.2    46  ARG46       0.2260
     34  O        -35.5960   16.7700    0.5830 O.2    46  ARG46      -0.2867
     35  CB       -35.1730   16.0950    3.7850 C.3    46  ARG46       0.0307
     36  CG       -35.1140   14.7500    4.4750 C.3    46  ARG46       0.0489
     37  CD       -36.0050   14.7280    5.6970 C.3    46  ARG46       0.2205
     38  NE       -35.4160   13.9440    6.7760 N.pl3  46  ARG46      -0.0865
     39  CZ       -36.0090   13.7180    7.9420 C.cat  46  ARG46       0.5346
     40  NH1      -37.2160   14.2140    8.1800 N.pl3  46  ARG46       0.1354
     41  NH2      -35.3960   12.9960    8.8690 N.pl3  46  ARG46       0.1354
     42  N        -43.4710   13.9300    4.1130 N.3    65  MET65      -0.1245
     43  CA       -43.1570   14.4590    5.4370 C.3    65  MET65       0.1570
     44  C        -42.3760   15.7530    5.2410 C.2    65  MET65       0.2261
     45  O        -41.1970   15.7260    4.8730 O.2    65  MET65      -0.2867
     46  CB       -42.3690   13.4360    6.2490 C.3    65  MET65       0.0387
     47  CG       -41.8720   13.9350    7.5970 C.3    65  MET65       0.0595
     48  SD       -40.9740   12.6500    8.4900 S.3    65  MET65      -0.1393
     49  CE       -40.6450   13.4710   10.0480 C.3    65  MET65       0.0692
     50  N        -40.9930   19.6680    6.3080 N.3    67  ASP67      -0.1239
     51  CA       -40.5800   20.5610    7.3780 C.3    67  ASP67       0.1674
     52  C        -41.4330   21.8260    7.3480 C.2    67  ASP67       0.2266
     53  O        -41.8750   22.2790    6.2880 O.2    67  ASP67      -0.2867
     54  CB       -39.0970   20.9020    7.2290 C.3    67  ASP67       0.1410
     55  CG       -38.4650   21.3670    8.5270 C.2    67  ASP67       0.3668
     56  OD1      -39.1810   21.9270    9.3840 O.co2  67  ASP67      -0.2456
     57  OD2      -37.2410   21.1700    8.6860 O.co2  67  ASP67      -0.2456
     58  N        -46.7000   16.9080   13.8810 N.3   113  PHE113     -0.1241
     59  CA       -46.2220   17.2120   15.2210 C.3   113  PHE113      0.1605
     60  C        -45.4650   18.5320   15.1970 C.2   113  PHE113      0.2264
     61  O        -44.8990   18.9230   14.1730 O.2   113  PHE113     -0.2867
     62  CB       -45.3430   16.0840   15.7950 C.3   113  PHE113      0.0534
     63  CG       -44.0780   15.8300   15.0280 C.ar  113  PHE113     -0.0203
     64  CD1      -44.0760   14.9730   13.9430 C.ar  113  PHE113     -0.0042
     65  CD2      -42.8830   16.4170   15.4160 C.ar  113  PHE113     -0.0042
     66  CE1      -42.9150   14.7200   13.2420 C.ar  113  PHE113     -0.0003
     67  CE2      -41.7150   16.1690   14.7170 C.ar  113  PHE113     -0.0003
     68  CZ       -41.7320   15.3190   13.6290 C.ar  113  PHE113     -0.0000
     69  N        -42.7170   21.3990   17.3000 N.3   115  ASP115     -0.1239
     70  CA       -41.3850   21.3230   17.8820 C.3   115  ASP115      0.1674
     71  C        -40.9790   22.6680   18.4640 C.2   115  ASP115      0.2266
     72  O        -41.4520   23.7220   18.0310 O.2   115  ASP115     -0.2867
     73  CB       -40.3430   20.8880   16.8450 C.3   115  ASP115      0.1410
     74  CG       -39.8390   19.4860   17.0800 C.2   115  ASP115      0.3668
     75  OD1      -39.8620   19.0360   18.2430 O.co2 115  ASP115     -0.2456
     76  OD2      -39.4000   18.8420   16.1050 O.co2 115  ASP115     -0.2456
     77  N        -25.8120   22.8570    8.5370 N.3   164  TYR164     -0.1227
     78  CA       -27.1000   22.4250    8.0060 C.3   164  TYR164      0.1736
     79  C        -28.1900   23.2510    8.6840 C.2   164  TYR164      0.2595
     80  O        -27.9020   24.1960    9.4260 O.2   164  TYR164     -0.2718
     81  CB       -27.3020   20.9180    8.1970 C.3   164  TYR164      0.0548
     82  CG       -27.7110   20.5100    9.5940 C.ar  164  TYR164     -0.0200
     83  CD1      -26.8970   20.7800   10.6880 C.ar  164  TYR164     -0.0009
     84  CD2      -28.9150   19.8580    9.8200 C.ar  164  TYR164     -0.0009
     85  CE1      -27.2700   20.4080   11.9650 C.ar  164  TYR164      0.0417
     86  CE2      -29.2970   19.4810   11.0940 C.ar  164  TYR164      0.0417
     87  CZ       -28.4690   19.7570   12.1620 C.ar  164  TYR164      0.1957
     88  OH       -28.8460   19.3870   13.4310 O.3   164  TYR164     -0.2866
     89  N        -29.4510   22.8990    8.4130 N.am  165  GLU165     -0.1965
     90  CA       -30.5750   23.6740    8.9300 C.3   165  GLU165      0.1733
     91  C        -30.5870   23.7210   10.4540 C.2   165  GLU165      0.2616
     92  O        -31.0010   24.7290   11.0380 O.2   165  GLU165     -0.2715
     93  CB       -31.8920   23.0960    8.4060 C.3   165  GLU165      0.0429
     94  CG       -33.1300   23.8750    8.8270 C.3   165  GLU165      0.1163
     95  CD       -33.1520   25.2870    8.2760 C.2   165  GLU165      0.3649
     96  OE1      -32.5340   25.5270    7.2180 O.co2 165  GLU165     -0.2457
     97  OE2      -33.7900   26.1600    8.9020 O.co2 165  GLU165     -0.2457
     98  N        -30.1480   22.6460   11.1140 N.am  166  GLY166     -0.1955
     99  CA       -30.1660   22.6160   12.5680 C.3   166  GLY166      0.1869
    100  C        -29.3370   23.7120   13.2090 C.2   166  GLY166      0.2309
    101  O        -29.6850   24.2100   14.2840 O.2   166  GLY166     -0.2863
    102  N        -31.4000   26.8520   13.5230 N.3   169  CYS169     -0.1235
    103  CA       -32.3270   26.7870   14.6480 C.3   169  CYS169      0.1677
    104  C        -31.6300   27.1240   15.9620 C.2   169  CYS169      0.2270
    105  O        -32.1830   27.8460   16.7990 O.2   169  CYS169     -0.2867
    106  CB       -32.9710   25.4020   14.7150 C.3   169  CYS169      0.0956
    107  SG       -33.9900   24.9800   13.2770 S.3   169  CYS169     -0.0801
    108  N        -28.6890   16.5410   15.3630 N.3   222  GLU222     -0.1245
    109  CA       -29.5430   16.2140   16.5030 C.3   222  GLU222      0.1567
    110  C        -29.0830   14.9380   17.2000 C.2   222  GLU222      0.2260
    111  O        -28.9600   14.8970   18.4290 O.2   222  GLU222     -0.2867
    112  CB       -31.0020   16.0780   16.0570 C.3   222  GLU222      0.0388
    113  CG       -31.7650   17.3900   15.9630 C.3   222  GLU222      0.1160
    114  CD       -31.4290   18.1770   14.7140 C.2   222  GLU222      0.3649
    115  OE1      -30.7440   17.6270   13.8270 O.co2 222  GLU222     -0.2457
    116  OE2      -31.8540   19.3470   14.6200 O.co2 222  GLU222     -0.2457
    117  N        -34.5060   18.9230   20.5730 N.3   240  TRP240     -0.1241
    118  CA       -35.9530   18.9090   20.4340 C.3   240  TRP240      0.1605
    119  C        -36.5610   17.8910   21.3970 C.2   240  TRP240      0.2264
    120  O        -35.8500   17.0770   21.9900 O.2   240  TRP240     -0.2867
    121  CB       -36.3130   18.6040   18.9810 C.3   240  TRP240      0.0550
    122  CG       -35.5820   19.4590   17.9790 C.ar  240  TRP240      0.0003
    123  CD1      -34.4340   19.1370   17.3160 C.ar  240  TRP240      0.0946
    124  CD2      -35.9530   20.7690   17.5230 C.ar  240  TRP240      0.0152
    125  NE1      -34.0640   20.1630   16.4810 N.ar  240  TRP240     -0.2442
    126  CE2      -34.9800   21.1770   16.5880 C.ar  240  TRP240      0.0810
    127  CE3      -37.0110   21.6350   17.8160 C.ar  240  TRP240      0.0012
    128  CZ2      -35.0320   22.4130   15.9430 C.ar  240  TRP240      0.0191
    129  CZ3      -37.0620   22.8650   17.1730 C.ar  240  TRP240      0.0001
    130  CH2      -36.0780   23.2410   16.2490 C.ar  240  TRP240      0.0015
    131  N        -37.9900   15.1170   21.0200 N.3   242  TYR242     -0.1241
    132  CA       -37.8960   13.6920   20.6990 C.3   242  TYR242      0.1605
    133  C        -36.8590   12.9770   21.5580 C.2   242  TYR242      0.2264
    134  O        -37.0350   11.7980   21.8850 O.2   242  TYR242     -0.2867
    135  CB       -37.5630   13.4960   19.2170 C.3   242  TYR242      0.0534
    136  CG       -36.0770   13.5100   18.9320 C.ar  242  TYR242     -0.0201
    137  CD1      -35.4000   14.7060   18.7570 C.ar  242  TYR242     -0.0009
    138  CD2      -35.3480   12.3250   18.8590 C.ar  242  TYR242     -0.0009
    139  CE1      -34.0440   14.7280   18.5090 C.ar  242  TYR242      0.0417
    140  CE2      -33.9890   12.3390   18.6150 C.ar  242  TYR242      0.0417
    141  CZ       -33.3430   13.5450   18.4390 C.ar  242  TYR242      0.1957
    142  OH       -31.9900   13.5700   18.1910 O.3   242  TYR242     -0.2866
    143  N        -40.2420   24.5720   15.3580 N.3   276  GLY276     -0.1210
    144  CA       -40.0120   23.5090   14.4040 C.3   276  GLY276      0.1956
    145  C        -41.2640   22.6900   14.1800 C.2   276  GLY276      0.2612
    146  O        -42.3610   23.1010   14.5670 O.2   276  GLY276     -0.2717
    147  N        -41.1130   21.5200   13.5690 N.am  277  GLY277     -0.1942
    148  CA       -42.2470   20.6460   13.3550 C.3   277  GLY277      0.2014
    149  C        -42.2950   20.0890   11.9500 C.2   277  GLY277      0.2638
    150  O        -41.6090   20.5860   11.0510 O.2   277  GLY277     -0.2714
    151  N        -43.0960   19.0510   11.7480 N.am  278  TRP278     -0.1973
    152  CA       -43.2200   18.4170   10.4470 C.3   278  TRP278      0.1640
    153  C        -44.6880   18.2060   10.1180 C.2   278  TRP278      0.2290
    154  O        -45.5020   17.9320   11.0040 O.2   278  TRP278     -0.2864
    155  CB       -42.4470   17.0970   10.4110 C.3   278  TRP278      0.0576
    156  CG       -40.9700   17.3190   10.5350 C.ar  278  TRP278      0.0006
    157  CD1      -40.2760   17.5990   11.6770 C.ar  278  TRP278      0.0946
    158  CD2      -40.0070   17.3050    9.4750 C.ar  278  TRP278      0.0152
    159  NE1      -38.9400   17.7510   11.3950 N.ar  278  TRP278     -0.2442
    160  CE2      -38.7480   17.5740   10.0500 C.ar  278  TRP278      0.0810
    161  CE3      -40.0840   17.0820    8.0980 C.ar  278  TRP278      0.0012
    162  CZ2      -37.5780   17.6290    9.2940 C.ar  278  TRP278      0.0191
    163  CZ3      -38.9220   17.1380    7.3490 C.ar  278  TRP278      0.0001
    164  CH2      -37.6870   17.4090    7.9490 C.ar  278  TRP278      0.0015
    165  N        -42.7370   13.1860   20.3660 N.3   316  GLN316     -0.1245
    166  CA       -43.0010   14.2590   19.4170 C.3   316  GLN316      0.1566
    167  C        -44.3600   14.8820   19.7170 C.2   316  GLN316      0.2260
    168  O        -45.3550   14.1690   19.8820 O.2   316  GLN316     -0.2867
    169  CB       -42.9110   13.7310   17.9820 C.3   316  GLN316      0.0367
    170  CG       -41.4620   13.4850   17.5560 C.3   316  GLN316      0.0905
    171  CD       -41.3170   12.4810   16.4290 C.2   316  GLN316      0.2608
    172  OE1      -42.0810   11.5220   16.3330 O.2   316  GLN316     -0.2717
    173  NE2      -40.3200   12.6900   15.5760 N.am  316  GLN316     -0.0878
    174  N        -38.8750   30.6310   11.8590 N.3   349  ARG349     -0.1245
    175  CA       -37.9510   31.0940   10.8420 C.3   349  ARG349      0.1563
    176  C        -38.7380   31.8690    9.7850 C.2   349  ARG349      0.2260
    177  O        -39.9430   31.6530    9.6290 O.2   349  ARG349     -0.2867
    178  CB       -37.2260   29.9050   10.2180 C.3   349  ARG349      0.0307
    179  CG       -36.1520   29.3070   11.1140 C.3   349  ARG349      0.0489
    180  CD       -35.9020   27.8400   10.7990 C.3   349  ARG349      0.2205
    181  NE       -36.8880   26.9730   11.4340 N.pl3 349  ARG349     -0.0865
    182  CZ       -36.8800   25.6470   11.3560 C.cat 349  ARG349      0.5346
    183  NH1      -35.9360   25.0260   10.6610 N.pl3 349  ARG349      0.1354
    184  NH2      -37.8180   24.9390   11.9700 N.pl3 349  ARG349      0.1354
@<TRIPOS>BOND
     1    34    33    2
     2    33    32    1
     3    32    31    1
     4    32    35    1
     5    35    36    1
     6    42    43    1
     7    28    27    2
     8    36    37    1
     9    45    44    2
    10    44    43    1
    11    27    26    1
    12    43    46    1
    13    37    38    1
    14    46    47    1
    15    53    52    2
    16    50    51    1
    17    26    25    1
    18    26    29    1
    19    38    39    2
    20    30    29    1
    21    96    95   ar
    22    54    51    1
    23    54    55    1
    24    52    51    1
    25   163   164   ar
    26   163   161   ar
    27    47    48    1
    28    17    18    1
    29    39    40    1
    30    39    41    1
    31   164   162   ar
    32    78    81    1
    33    78    77    1
    34    78    79    1
    35   161   158   ar
    36    81    82    1
    37    95    94    1
    38    95    97   ar
    39    93    94    1
    40    93    90    1
    41    89    79   am
    42    89    90    1
    43    48    49    1
    44    55    57   ar
    45    55    56   ar
    46    79    80    2
    47    19    18    1
    48    19    20    2
    49    90    91    1
    50    18    21    1
    51   162   160   ar
    52   158   160   ar
    53   158   156   ar
    54    82    84   ar
    55    82    83   ar
    56   177   176    2
    57   176   175    1
    58    84    86   ar
    59    23    22   ar
    60    21    22    1
    61   160   159   ar
    62   153   152    1
    63   153   154    2
    64   178   175    1
    65   178   179    1
    66   155   152    1
    67   155   156    1
    68   152   151    1
    69    91    92    2
    70    91    98   am
    71    22    24   ar
    72   156   157   ar
    73   183   182    1
    74    83    85   ar
    75   180   179    1
    76   180   181    1
    77   175   174    1
    78   150   149    2
    79    86    87   ar
    80    98    99    1
    81   182   181    2
    82   182   184    1
    83   159   157   ar
    84   151   149   am
    85   149   148    1
    86    85    87   ar
    87    16    14   ar
    88    87    88    1
    89     7     5    1
    90    99   100    1
    91     1     2    1
    92    14    15   ar
    93    14    13    1
    94    13    12    1
    95   100   101    2
    96    66    68   ar
    97    66    64   ar
    98   107   106    1
    99    11    10    2
   100   148   147    1
   101   102   103    1
   102   147   145   am
   103    68    67   ar
   104    10     9    1
   105     5     2    1
   106     5     6    1
   107     2     3    1
   108   115   114   ar
   109    58    59    1
   110    64    63   ar
   111    12     9    1
   112    61    60    2
   113   145   144    1
   114   145   146    2
   115   144   143    1
   116   116   114   ar
   117   103   106    1
   118   103   104    1
   119   114   113    1
   120    67    65   ar
   121     9     8    1
   122    63    65   ar
   123    63    62    1
   124     3     4    2
   125    60    59    1
   126    59    62    1
   127   108   109    1
   128   173   171   am
   129   128   130   ar
   130   128   126   ar
   131   104   105    2
   132   113   112    1
   133   112   109    1
   134    76    74   ar
   135   130   129   ar
   136   172   171    2
   137   171   170    1
   138   125   126   ar
   139   125   123   ar
   140   109   110    1
   141   126   124   ar
   142    73    74    1
   143    73    70    1
   144    74    75   ar
   145   129   127   ar
   146   110   111    2
   147    69    70    1
   148   123   122   ar
   149   124   127   ar
   150   124   122   ar
   151   170   169    1
   152    70    71    1
   153   122   121    1
   154   169   166    1
   155    72    71    2
   156   142   141    1
   157   141   139   ar
   158   141   140   ar
   159   139   137   ar
   160   140   138   ar
   161   137   136   ar
   162   138   136   ar
   163   136   135    1
   164   121   118    1
   165   135   132    1
   166   166   167    1
   167   166   165    1
   168   167   168    2
   169   118   117    1
   170   118   119    1
   171   132   131    1
   172   132   133    1
   173   119   120    2
   174   133   134    2
