@<TRIPOS>MOLECULE
tmp/6dtsA00.pdb
 209 204 0 0 0
SMALL
GASTEIGER

@<TRIPOS>ATOM
      1  N          6.1940    1.8790   15.8220 N.3     8  SER8       -0.1202
      2  CA         6.5020    0.5370   16.2990 C.3     8  SER8        0.2020
      3  C          6.9140   -0.3800   15.1570 C.2     8  SER8        0.2619
      4  O          6.8650   -0.0290   13.9760 O.2     8  SER8       -0.2717
      5  CB         5.2910   -0.0720   17.0340 C.3     8  SER8        0.2103
      6  OG         4.3630   -0.6100   16.1060 O.3     8  SER8       -0.2182
      7  N          7.3080   -1.5920   15.5180 N.am    9  GLU9       -0.1965
      8  CA         7.7130   -2.5430   14.5070 C.3     9  GLU9        0.1733
      9  C          6.6030   -2.9090   13.5410 C.2     9  GLU9        0.2616
     10  O          6.8980   -3.3760   12.4330 O.2     9  GLU9       -0.2715
     11  CB         8.2720   -3.8180   15.1230 C.3     9  GLU9        0.0429
     12  CG         7.2390   -4.7310   15.7680 C.3     9  GLU9        0.1163
     13  CD         6.6590   -4.1500   17.0280 C.2     9  GLU9        0.3649
     14  OE1        7.3040   -3.2980   17.6760 O.co2   9  GLU9       -0.2457
     15  OE2        5.5170   -4.5380   17.4130 O.co2   9  GLU9       -0.2457
     16  N          5.3370   -2.7380   13.9290 N.am   10  LYS10      -0.1963
     17  CA         4.2590   -3.1580   13.0430 C.3    10  LYS10       0.1728
     18  C          4.1790   -2.2990   11.7990 C.2    10  LYS10       0.2616
     19  O          3.7420   -2.7910   10.7510 O.2    10  LYS10      -0.2715
     20  CB         2.9110   -3.1130   13.7570 C.3    10  LYS10       0.0311
     21  CG         2.8280   -4.0320   14.9880 C.3    10  LYS10       0.0038
     22  CD         2.9280   -5.4770   14.5880 C.3    10  LYS10       0.0206
     23  CE         2.9090   -6.3110   15.8590 C.3    10  LYS10       0.1093
     24  NZ         3.3510   -7.7300   15.5550 N.3    10  LYS10      -0.1314
     25  N          4.5950   -1.0350   11.8940 N.am   11  GLN11      -0.1977
     26  CA         4.4530   -0.1290   10.7660 C.3    11  GLN11       0.1601
     27  C          5.7390    0.1980   10.0390 C.2    11  GLN11       0.2287
     28  O          5.6510    0.8480    9.0080 O.2    11  GLN11      -0.2864
     29  CB         3.8020    1.1890   11.1980 C.3    11  GLN11       0.0394
     30  CG         2.4600    1.0040   11.9300 C.3    11  GLN11       0.0908
     31  CD         2.6410    0.9940   13.4530 C.2    11  GLN11       0.2608
     32  OE1        3.7550    0.8340   13.9440 O.2    11  GLN11      -0.2717
     33  NE2        1.5370    1.1340   14.1980 N.am   11  GLN11      -0.0878
     34  N          6.9490    0.3330   21.0190 N.3    37  PHE37      -0.1227
     35  CA         5.7320    1.1230   21.2010 C.3    37  PHE37       0.1736
     36  C          5.6840    1.7700   22.5770 C.2    37  PHE37       0.2596
     37  O          5.3230    2.9430   22.7160 O.2    37  PHE37      -0.2718
     38  CB         4.4620    0.2770   20.9390 C.3    37  PHE37       0.0547
     39  CG         3.2000    1.0350   21.2180 C.ar   37  PHE37      -0.0202
     40  CD1        2.6340    1.8370   20.2380 C.ar   37  PHE37      -0.0042
     41  CD2        2.6150    1.0240   22.4770 C.ar   37  PHE37      -0.0042
     42  CE1        1.5100    2.5910   20.4830 C.ar   37  PHE37      -0.0003
     43  CE2        1.4380    1.7980   22.7260 C.ar   37  PHE37      -0.0003
     44  CZ         0.8960    2.5840   21.7020 C.ar   37  PHE37      -0.0000
     45  N          6.0580    1.0120   23.6100 N.am   38  GLY38      -0.1957
     46  CA         6.0000    1.4650   24.9860 C.3    38  GLY38       0.1869
     47  C          6.9730    2.5720   25.3200 C.2    38  GLY38       0.2309
     48  O          6.8850    3.1190   26.4240 O.2    38  GLY38      -0.2863
     49  N          5.9240    7.5170   23.3520 N.3    41  LYS41      -0.1231
     50  CA         5.4830    8.7520   23.9860 C.3    41  LYS41       0.1693
     51  C          6.5120    9.2340   24.9850 C.2    41  LYS41       0.2592
     52  O          6.8030   10.4190   25.0170 O.2    41  LYS41      -0.2718
     53  CB         4.1110    8.5890   24.6490 C.3    41  LYS41       0.0285
     54  CG         3.5410    9.9570   25.1270 C.3    41  LYS41       0.0035
     55  CD         2.2190    9.8110   25.8410 C.3    41  LYS41       0.0206
     56  CE         2.5150    9.1260   27.1330 C.3    41  LYS41       0.1093
     57  NZ         1.8620    9.6000   28.3030 N.3    41  LYS41      -0.1314
     58  N          7.0580    8.3280   25.8130 N.am   42  SER42      -0.1952
     59  CA         8.0150    8.7620   26.8330 C.3    42  SER42       0.1924
     60  C          9.2650    9.3680   26.2020 C.2    42  SER42       0.2314
     61  O          9.7830   10.3850   26.6860 O.2    42  SER42      -0.2863
     62  CB         8.3580    7.5970   27.7880 C.3    42  SER42       0.2116
     63  OG         8.9620    6.4960   27.1500 O.3    42  SER42      -0.2180
     64  N         -1.0570    5.9230   19.6170 N.3    60  ALA60      -0.1245
     65  CA        -2.4440    5.8050   20.0660 C.3    60  ALA60       0.1562
     66  C         -3.0440    7.1530   20.4550 C.2    60  ALA60       0.2260
     67  O         -2.3550    8.0510   20.9600 O.2    60  ALA60      -0.2867
     68  CB        -2.5260    4.8680   21.2710 C.3    60  ALA60       0.0290
     69  N         -4.8840    8.1570   22.8510 N.3    62  ASP62      -0.1225
     70  CA        -4.9950    8.6390   24.2290 C.3    62  ASP62       0.1805
     71  C         -3.9080    9.6170   24.5690 C.2    62  ASP62       0.2597
     72  O         -4.0850   10.3920   25.5290 O.2    62  ASP62      -0.2718
     73  CB        -5.0320    7.4890   25.2300 C.3    62  ASP62       0.1424
     74  CG        -3.8010    6.5850   25.1560 C.2    62  ASP62       0.3668
     75  OD1       -3.6140    5.8910   24.1400 O.co2  62  ASP62      -0.2456
     76  OD2       -3.0380    6.5570   26.1610 O.co2  62  ASP62      -0.2456
     77  N         -2.8300    9.6400   23.7830 N.am   63  TRP63      -0.1976
     78  CA        -1.7210   10.5640   24.0400 C.3    63  TRP63       0.1640
     79  C         -2.0890   12.0090   23.7290 C.2    63  TRP63       0.2290
     80  O         -1.3850   12.9270   24.1520 O.2    63  TRP63      -0.2864
     81  CB        -0.5390   10.2040   23.1500 C.3    63  TRP63       0.0576
     82  CG        -0.0520    8.8060   23.1990 C.ar   63  TRP63       0.0006
     83  CD1       -0.3940    7.8260   24.0810 C.ar   63  TRP63       0.0946
     84  CD2        0.9130    8.2390   22.2930 C.ar   63  TRP63       0.0152
     85  NE1        0.3090    6.6680   23.7700 N.ar   63  TRP63      -0.2442
     86  CE2        1.1190    6.8990   22.6820 C.ar   63  TRP63       0.0810
     87  CE3        1.6260    8.7630   21.2170 C.ar   63  TRP63       0.0012
     88  CZ2        2.0180    6.0390   22.0160 C.ar   63  TRP63       0.0191
     89  CZ3        2.4920    7.9160   20.5110 C.ar   63  TRP63       0.0001
     90  CH2        2.6800    6.5520   20.9190 C.ar   63  TRP63       0.0015
     91  N         -9.2270   -0.0850   16.8430 N.3   107  GLU107     -0.1245
     92  CA        -8.8940   -1.3900   17.4010 C.3   107  GLU107      0.1567
     93  C         -9.4790   -1.5880   18.7920 C.2   107  GLU107      0.2260
     94  O         -9.6940   -0.6460   19.5560 O.2   107  GLU107     -0.2867
     95  CB        -7.3800   -1.6070   17.4150 C.3   107  GLU107      0.0388
     96  CG        -6.6680   -0.5840   18.3230 C.3   107  GLU107      0.1160
     97  CD        -5.1630   -0.5550   18.1900 C.2   107  GLU107      0.3649
     98  OE1       -4.6140   -1.1300   17.2260 O.co2 107  GLU107     -0.2457
     99  OE2       -4.5600    0.0740   19.0610 O.co2 107  GLU107     -0.2457
    100  N         -1.4310   -5.0700   33.2160 N.3   152  ASN152     -0.1240
    101  CA        -1.4930   -3.9000   32.3600 C.3   152  ASN152      0.1653
    102  C         -2.9540   -3.4520   32.2680 C.2   152  ASN152      0.2266
    103  O         -3.8220   -4.2040   31.7960 O.2   152  ASN152     -0.2867
    104  CB        -0.9660   -4.3250   30.9810 C.3   152  ASN152      0.1155
    105  CG        -0.8730   -3.1640   29.9740 C.2   152  ASN152      0.2627
    106  OD1       -1.5580   -2.1390   30.1320 O.2   152  ASN152     -0.2716
    107  ND2       -0.0110   -3.3130   28.9520 N.am  152  ASN152     -0.0877
    108  N         -4.5290   -1.5410   30.3410 N.3   154  TYR154     -0.1227
    109  CA        -5.1040   -1.5750   29.0090 C.3   154  TYR154      0.1736
    110  C         -5.7710   -2.9280   28.7120 C.2   154  TYR154      0.2595
    111  O         -6.9070   -2.9720   28.1870 O.2   154  TYR154     -0.2718
    112  CB        -4.0300   -1.2420   27.9600 C.3   154  TYR154      0.0548
    113  CG        -4.5660   -1.3180   26.5660 C.ar  154  TYR154     -0.0200
    114  CD1       -5.2440   -0.2620   26.0330 C.ar  154  TYR154     -0.0009
    115  CD2       -4.4520   -2.4910   25.8400 C.ar  154  TYR154     -0.0009
    116  CE1       -5.8130   -0.2950   24.7540 C.ar  154  TYR154      0.0417
    117  CE2       -4.9960   -2.5790   24.5540 C.ar  154  TYR154      0.0417
    118  CZ        -5.6640   -1.4700   23.9850 C.ar  154  TYR154      0.1957
    119  OH        -6.1960   -1.6020   22.7070 O.3   154  TYR154     -0.2866
    120  N         -5.1170   -4.0420   29.0940 N.am  155  PHE155     -0.1976
    121  CA        -5.6490   -5.3690   28.7870 C.3   155  PHE155      0.1639
    122  C         -6.6370   -5.8740   29.8290 C.2   155  PHE155      0.2290
    123  O         -7.4710   -6.7180   29.5010 O.2   155  PHE155     -0.2864
    124  CB        -4.5190   -6.3680   28.5970 C.3   155  PHE155      0.0560
    125  CG        -3.6720   -6.1000   27.4030 C.ar  155  PHE155     -0.0200
    126  CD1       -4.1000   -6.3910   26.1390 C.ar  155  PHE155     -0.0042
    127  CD2       -2.3880   -5.5480   27.5670 C.ar  155  PHE155     -0.0042
    128  CE1       -3.2940   -6.1260   25.0010 C.ar  155  PHE155     -0.0003
    129  CE2       -1.5810   -5.2870   26.4210 C.ar  155  PHE155     -0.0003
    130  CZ        -2.0150   -5.5950   25.1690 C.ar  155  PHE155     -0.0000
    131  N          3.0490   -9.3100   28.5170 N.3   209  TYR209     -0.1241
    132  CA         2.7910   -9.3390   27.0810 C.3   209  TYR209      0.1605
    133  C          3.7400  -10.2810   26.3710 C.2   209  TYR209      0.2264
    134  O          3.3160  -11.1040   25.5470 O.2   209  TYR209     -0.2867
    135  CB         2.8600   -7.9330   26.4690 C.3   209  TYR209      0.0534
    136  CG         2.3770   -7.8950   25.0360 C.ar  209  TYR209     -0.0201
    137  CD1        1.0100   -7.7020   24.7140 C.ar  209  TYR209     -0.0009
    138  CD2        3.2750   -8.1030   23.9870 C.ar  209  TYR209     -0.0009
    139  CE1        0.5850   -7.6760   23.4230 C.ar  209  TYR209      0.0417
    140  CE2        2.8490   -8.1150   22.6710 C.ar  209  TYR209      0.0417
    141  CZ         1.4940   -7.8820   22.3820 C.ar  209  TYR209      0.1957
    142  OH         1.0500   -7.8740   21.0790 O.3   209  TYR209     -0.2866
    143  N         -3.3510   -6.2010   15.7760 N.3   229  TRP229     -0.1241
    144  CA        -1.9420   -5.9350   15.4590 C.3   229  TRP229      0.1605
    145  C         -1.0780   -7.1800   15.5150 C.2   229  TRP229      0.2264
    146  O         -0.0540   -7.2270   14.8110 O.2   229  TRP229     -0.2867
    147  CB        -1.3390   -4.8370   16.3600 C.3   229  TRP229      0.0550
    148  CG        -1.4070   -5.1910   17.8420 C.ar  229  TRP229      0.0003
    149  CD1       -0.5480   -5.9990   18.5590 C.ar  229  TRP229      0.0946
    150  CD2       -2.3800   -4.7290   18.7530 C.ar  229  TRP229      0.0152
    151  NE1       -0.9700   -6.0990   19.8600 N.ar  229  TRP229     -0.2442
    152  CE2       -2.0900   -5.3120   20.0230 C.ar  229  TRP229      0.0810
    153  CE3       -3.4580   -3.8630   18.6410 C.ar  229  TRP229      0.0012
    154  CZ2       -2.8820   -5.0540   21.1720 C.ar  229  TRP229      0.0191
    155  CZ3       -4.2300   -3.5880   19.7650 C.ar  229  TRP229      0.0001
    156  CH2       -3.9530   -4.1970   21.0140 C.ar  229  TRP229      0.0015
    157  N         -5.2970    4.3620   16.1510 N.3   262  GLN262     -0.1245
    158  CA        -3.8860    4.5990   15.8350 C.3   262  GLN262      0.1566
    159  C         -3.8090    5.6360   14.7280 C.2   262  GLN262      0.2260
    160  O         -4.6300    5.6390   13.8030 O.2   262  GLN262     -0.2867
    161  CB        -3.2020    3.3140   15.3510 C.3   262  GLN262      0.0367
    162  CG        -3.1620    2.2090   16.3640 C.3   262  GLN262      0.0905
    163  CD        -2.1220    2.4210   17.4470 C.2   262  GLN262      0.2608
    164  OE1       -1.0460    2.9860   17.1940 O.2   262  GLN262     -0.2717
    165  NE2       -2.4080    1.9360   18.6250 N.am  262  GLN262     -0.0878
    166  N         -5.1700   -3.7580   10.6770 N.3   299  ARG299     -0.1245
    167  CA        -6.1520   -3.2920   11.6360 C.3   299  ARG299      0.1563
    168  C         -7.3320   -2.6470   10.9130 C.2   299  ARG299      0.2260
    169  O         -7.2120   -2.2360    9.7600 O.2   299  ARG299     -0.2867
    170  CB        -5.4750   -2.2460   12.5400 C.3   299  ARG299      0.0307
    171  CG        -4.1800   -2.7850   13.1670 C.3   299  ARG299      0.0489
    172  CD        -3.5830   -1.7890   14.0880 C.3   299  ARG299      0.2205
    173  NE        -2.1370   -1.9710   14.1420 N.pl3 299  ARG299     -0.0865
    174  CZ        -1.3520   -1.5950   15.1610 C.cat 299  ARG299      0.5346
    175  NH1       -1.8320   -1.1080   16.3210 N.pl3 299  ARG299      0.1354
    176  NH2       -0.0590   -1.7740   15.0240 N.pl3 299  ARG299      0.1354
    177  N        -10.7090    5.0340   24.5580 N.3   329  MET329     -0.1245
    178  CA        -9.9140    5.5180   25.6730 C.3   329  MET329      0.1570
    179  C        -10.0980    7.0220   25.7950 C.2   329  MET329      0.2261
    180  O        -10.2210    7.7080   24.7720 O.2   329  MET329     -0.2867
    181  CB        -8.4220    5.2380   25.4500 C.3   329  MET329      0.0387
    182  CG        -8.0370    3.7570   25.3630 C.3   329  MET329      0.0595
    183  SD        -6.2650    3.5310   25.2020 S.3   329  MET329     -0.1393
    184  CE        -6.0030    3.8230   23.4640 C.3   329  MET329      0.0692
    185  N         -2.9800   10.6350   31.5540 N.3   336  ALA336     -0.1245
    186  CA        -1.5760   10.2520   31.6800 C.3   336  ALA336      0.1562
    187  C         -1.2820    9.4330   32.9330 C.2   336  ALA336      0.2260
    188  O         -0.6050    8.4040   32.8100 O.2   336  ALA336     -0.2867
    189  CB        -0.6830   11.5060   31.6310 C.3   336  ALA336      0.0290
    190  N         -2.7250    5.1080   33.7780 N.3   339  TRP339     -0.1227
    191  CA        -2.1420    3.8250   33.4150 C.3   339  TRP339      0.1737
    192  C         -1.2350    3.2710   34.5080 C.2   339  TRP339      0.2596
    193  O         -1.3220    2.0880   34.8400 O.2   339  TRP339     -0.2718
    194  CB        -1.3310    3.9830   32.1390 C.3   339  TRP339      0.0564
    195  CG        -2.1370    4.4630   30.9690 C.ar  339  TRP339      0.0003
    196  CD1       -2.0140    5.6670   30.3350 C.ar  339  TRP339      0.0946
    197  CD2       -3.1940    3.7540   30.2850 C.ar  339  TRP339      0.0152
    198  NE1       -2.9280    5.7500   29.2840 N.ar  339  TRP339     -0.2442
    199  CE2       -3.6500    4.5860   29.2380 C.ar  339  TRP339      0.0810
    200  CE3       -3.7910    2.4940   30.4490 C.ar  339  TRP339      0.0012
    201  CZ2       -4.6840    4.1990   28.3700 C.ar  339  TRP339      0.0191
    202  CZ3       -4.8040    2.1160   29.5880 C.ar  339  TRP339      0.0001
    203  CH2       -5.2590    2.9570   28.5870 C.ar  339  TRP339      0.0015
    204  N         -0.3220    4.0970   35.0440 N.am  340  SER340     -0.1952
    205  CA         0.6150    3.5970   36.0530 C.3   340  SER340      0.1924
    206  C         -0.0800    3.3350   37.3790 C.2   340  SER340      0.2314
    207  O          0.2330    2.3530   38.0590 O.2   340  SER340     -0.2863
    208  CB         1.7890    4.5500   36.2500 C.3   340  SER340      0.2116
    209  OG         1.3320    5.8740   36.4390 O.3   340  SER340     -0.2180
@<TRIPOS>BOND
     1    28    27    2
     2   169   168    2
     3    27    26    1
     4   166   167    1
     5    19    18    2
     6    26    29    1
     7    26    25    1
     8   168   167    1
     9    29    30    1
    10   167   170    1
    11    18    25   am
    12    18    17    1
    13    30    31    1
    14    10     9    2
    15   170   171    1
    16    17    20    1
    17    17    16    1
    18   171   172    1
    19    31    32    2
    20    31    33   am
    21     9    16   am
    22     9     8    1
    23    20    21    1
    24   160   159    2
    25     4     3    2
    26   172   173    1
    27   173   174    2
    28     8    11    1
    29     8     7    1
    30    22    21    1
    31    22    23    1
    32   159   158    1
    33   146   145    2
    34   176   174    1
    35    11    12    1
    36     3     7   am
    37     3     2    1
    38   174   175    1
    39   161   158    1
    40   161   162    1
    41   144   145    1
    42   144   143    1
    43   144   147    1
    44    24    23    1
    45    12    13    1
    46     1     2    1
    47   158   157    1
    48     6     5    1
    49     2     5    1
    50   147   148    1
    51   162   163    1
    52    91    92    1
    53    13    15   ar
    54    13    14   ar
    55   164   163    2
    56    98    97   ar
    57    92    95    1
    58    92    93    1
    59    95    96    1
    60   163   165   am
    61   148   149   ar
    62   148   150   ar
    63    97    96    1
    64    97    99   ar
    65   149   151   ar
    66   153   150   ar
    67   153   155   ar
    68   150   152   ar
    69    93    94    2
    70    64    65    1
    71   155   156   ar
    72   151   152   ar
    73   152   154   ar
    74    65    66    1
    75    65    68    1
    76    40    42   ar
    77    40    39   ar
    78    66    67    2
    79    42    44   ar
    80    89    90   ar
    81    89    87   ar
    82    90    88   ar
    83    38    35    1
    84    38    39    1
    85   156   154   ar
    86    34    35    1
    87   142   141    1
    88    35    36    1
    89    87    84   ar
    90    39    41   ar
    91    44    43   ar
    92    88    86   ar
    93    84    86   ar
    94    84    82   ar
    95   141   140   ar
    96   141   139   ar
    97    41    43   ar
    98    36    37    2
    99    36    45   am
   100   140   138   ar
   101    86    85   ar
   102   119   118    1
   103    69    70    1
   104    81    82    1
   105    81    78    1
   106    82    83   ar
   107    49    50    1
   108   139   137   ar
   109   184   183    1
   110    45    46    1
   111    79    78    1
   112    79    80    2
   113    85    83   ar
   114    77    78    1
   115    77    71   am
   116   118   117   ar
   117   118   116   ar
   118    50    53    1
   119    50    51    1
   120   138   136   ar
   121    75    74   ar
   122    70    71    1
   123    70    73    1
   124   117   115   ar
   125   177   178    1
   126    71    72    2
   127    53    54    1
   128   137   136   ar
   129   116   114   ar
   130   180   179    2
   131    51    52    2
   132    51    58   am
   133    46    47    1
   134   128   130   ar
   135   128   126   ar
   136   136   135    1
   137    54    55    1
   138    74    73    1
   139    74    76   ar
   140   130   129   ar
   141   183   182    1
   142    47    48    2
   143   182   181    1
   144   181   178    1
   145   134   133    2
   146   178   179    1
   147    58    59    1
   148   115   113   ar
   149    55    56    1
   150   114   113   ar
   151   126   125   ar
   152    60    61    2
   153    60    59    1
   154   133   132    1
   155   129   127   ar
   156   135   132    1
   157   113   112    1
   158    59    62    1
   159   132   131    1
   160    56    57    1
   161    63    62    1
   162   125   127   ar
   163   125   124    1
   164   112   109    1
   165   111   110    2
   166   201   203   ar
   167   201   199   ar
   168   203   202   ar
   169   124   121    1
   170   110   109    1
   171   110   120   am
   172   121   120    1
   173   121   122    1
   174   107   105   am
   175   109   108    1
   176   199   198   ar
   177   199   197   ar
   178   198   196   ar
   179   123   122    2
   180   202   200   ar
   181   105   106    2
   182   105   104    1
   183   197   200   ar
   184   197   195   ar
   185   196   195   ar
   186   195   194    1
   187   104   101    1
   188   185   186    1
   189   189   186    1
   190   186   187    1
   191   103   102    2
   192   194   191    1
   193   102   101    1
   194   101   100    1
   195   188   187    2
   196   191   190    1
   197   191   192    1
   198   192   193    2
   199   192   204   am
   200   204   205    1
   201   205   208    1
   202   205   206    1
   203   208   209    1
   204   206   207    2
