@<TRIPOS>MOLECULE
tmp/6du1C00.pdb
 84 78 0 0 0
SMALL
GASTEIGER

@<TRIPOS>ATOM
      1  N        -22.7360   11.3490   11.1820 N.3    22  TYR22      -0.1241
      2  CA       -21.5590   11.7350   10.4140 C.3    22  TYR22       0.1605
      3  C        -21.8670   11.7220    8.9210 C.2    22  TYR22       0.2264
      4  O        -22.4980   10.7900    8.4140 O.2    22  TYR22      -0.2867
      5  CB       -20.3880   10.7880   10.7080 C.3    22  TYR22       0.0534
      6  CG       -19.2220   10.8950    9.7400 C.ar   22  TYR22      -0.0201
      7  CD1      -19.1680   10.1100    8.5900 C.ar   22  TYR22      -0.0009
      8  CD2      -18.1690   11.7690    9.9840 C.ar   22  TYR22      -0.0009
      9  CE1      -18.1090   10.2040    7.7050 C.ar   22  TYR22       0.0417
     10  CE2      -17.1020   11.8660    9.1060 C.ar   22  TYR22       0.0417
     11  CZ       -17.0780   11.0830    7.9690 C.ar   22  TYR22       0.1957
     12  OH       -16.0170   11.1790    7.0950 O.3    22  TYR22      -0.2866
     13  N        -16.8780    4.6530    3.9750 N.3    64  ILE64      -0.1245
     14  CA       -16.4790    6.0520    4.0930 C.3    64  ILE64       0.1561
     15  C        -15.3020    6.3650    3.1770 C.2    64  ILE64       0.2260
     16  O        -15.1810    7.4870    2.6710 O.2    64  ILE64      -0.2867
     17  CB       -16.1470    6.3900    5.5580 C.3    64  ILE64       0.0252
     18  CG1      -17.2410    5.8740    6.4930 C.3    64  ILE64       0.0019
     19  CG2      -15.9660    7.8930    5.7300 C.3    64  ILE64       0.0019
     20  CD1      -18.5150    6.6740    6.4360 C.3    64  ILE64       0.0001
     21  N        -14.8840    9.8470   22.4690 N.3   173  TYR173     -0.1241
     22  CA       -15.3290    8.9550   21.4010 C.3   173  TYR173      0.1605
     23  C        -14.7570    7.5650   21.6640 C.2   173  TYR173      0.2264
     24  O        -13.5590    7.3340   21.4770 O.2   173  TYR173     -0.2867
     25  CB       -14.8770    9.5150   20.0520 C.3   173  TYR173      0.0534
     26  CG       -15.4030    8.8530   18.7840 C.ar  173  TYR173     -0.0201
     27  CD1      -15.6530    7.4870   18.7160 C.ar  173  TYR173     -0.0009
     28  CD2      -15.6190    9.6100   17.6370 C.ar  173  TYR173     -0.0009
     29  CE1      -16.1170    6.9000   17.5490 C.ar  173  TYR173      0.0417
     30  CE2      -16.0830    9.0330   16.4690 C.ar  173  TYR173      0.0417
     31  CZ       -16.3290    7.6790   16.4290 C.ar  173  TYR173      0.1957
     32  OH       -16.7900    7.1070   15.2650 O.3   173  TYR173     -0.2866
     33  N        -14.3370    4.2360   20.2830 N.3   175  ALA175     -0.1245
     34  CA       -14.4010    3.5950   18.9770 C.3   175  ALA175      0.1562
     35  C        -13.9330    2.1490   19.0760 C.2   175  ALA175      0.2260
     36  O        -12.9150    1.8590   19.7130 O.2   175  ALA175     -0.2867
     37  CB       -13.5490    4.3540   17.9570 C.3   175  ALA175      0.0290
     38  N        -15.4730   -0.2200   16.2880 N.3   177  THR177     -0.1218
     39  CA       -15.9150   -0.8380   15.0430 C.3   177  THR177      0.1862
     40  C        -14.7340   -1.1190   14.1180 C.2   177  THR177      0.2287
     41  O        -14.7640   -0.7800   12.9350 O.2   177  THR177     -0.2866
     42  CB       -16.9320    0.0490   14.3030 C.3   177  THR177      0.1770
     43  OG1      -17.4850   -0.6830   13.2050 O.3   177  THR177     -0.2211
     44  CG2      -16.2780    1.3280   13.8110 C.3   177  THR177      0.0375
     45  N        -19.2510    4.6670   18.6410 N.3   200  GLY200     -0.1225
     46  CA       -19.3840    4.2730   17.2510 C.3   200  GLY200      0.1811
     47  C        -19.0780    2.7950   17.1130 C.2   200  GLY200      0.2280
     48  O        -18.0010    2.3320   17.4960 O.2   200  GLY200     -0.2866
     49  N        -20.3130    0.7680   14.1110 N.3   202  GLY202     -0.1210
     50  CA       -20.8650    0.2980   12.8500 C.3   202  GLY202      0.1956
     51  C        -22.3660    0.1120   12.8990 C.2   202  GLY202      0.2611
     52  O        -22.8810   -0.9030   12.4150 O.2   202  GLY202     -0.2717
     53  N        -23.0820    1.0780   13.4780 N.am  203  VAL203     -0.1979
     54  CA       -24.5260    0.9610   13.6390 C.3   203  VAL203      0.1595
     55  C        -25.2130    1.1390   12.2940 C.2   203  VAL203      0.2287
     56  O        -24.8770    2.0450   11.5180 O.2   203  VAL203     -0.2864
     57  CB       -25.0300    1.9950   14.6610 C.3   203  VAL203      0.0276
     58  CG1      -26.5410    1.9290   14.7970 C.3   203  VAL203      0.0022
     59  CG2      -24.3640    1.7690   15.9980 C.3   203  VAL203      0.0022
     60  N        -23.2300    7.1310   17.7950 N.3   220  ILE220     -0.1231
     61  CA       -22.5740    7.6920   16.6200 C.3   220  ILE220      0.1692
     62  C        -22.8230    6.7610   15.4430 C.2   220  ILE220      0.2592
     63  O        -22.4510    5.5820   15.4850 O.2   220  ILE220     -0.2718
     64  CB       -21.0700    7.8880   16.8570 C.3   220  ILE220      0.0266
     65  CG1      -20.8340    8.6670   18.1510 C.3   220  ILE220      0.0019
     66  CG2      -20.4370    8.6080   15.6770 C.3   220  ILE220      0.0020
     67  CD1      -19.3920    8.6750   18.6030 C.3   220  ILE220      0.0001
     68  N        -23.4440    7.2920   14.3930 N.am  221  VAL221     -0.1966
     69  CA       -23.7230    6.5470   13.1710 C.3   221  VAL221      0.1727
     70  C        -23.0480    7.2660   12.0110 C.2   221  VAL221      0.2617
     71  O        -23.2290    8.4770   11.8340 O.2   221  VAL221     -0.2715
     72  CB       -25.2370    6.4060   12.9270 C.3   221  VAL221      0.0290
     73  CG1      -25.5010    5.5210   11.7180 C.3   221  VAL221      0.0023
     74  CG2      -25.9240    5.8490   14.1660 C.3   221  VAL221      0.0023
     75  N        -22.2740    6.5240   11.2230 N.am  222  GLY222     -0.1940
     76  CA       -21.5450    7.1200   10.1210 C.3   222  GLY222      0.2014
     77  C        -21.6540    6.3630    8.8130 C.2   222  GLY222      0.2639
     78  O        -22.1710    6.8940    7.8260 O.2   222  GLY222     -0.2714
     79  N        -21.1660    5.1180    8.7960 N.am  223  SER223     -0.1949
     80  CA       -21.1700    4.3310    7.5650 C.3   223  SER223      0.1924
     81  C        -22.5820    4.1370    7.0270 C.2   223  SER223      0.2314
     82  O        -22.8140    4.2500    5.8180 O.2   223  SER223     -0.2863
     83  CB       -20.5040    2.9770    7.8060 C.3   223  SER223      0.2116
     84  OG       -19.1350    3.1290    8.1230 O.3   223  SER223     -0.2180
@<TRIPOS>BOND
     1    16    15    2
     2    15    14    1
     3    13    14    1
     4    14    17    1
     5    17    19    1
     6    17    18    1
     7    82    81    2
     8    20    18    1
     9    81    80    1
    10    12    11    1
    11    80    83    1
    12    80    79    1
    13     9    11   ar
    14     9     7   ar
    15    83    84    1
    16    78    77    2
    17    11    10   ar
    18     4     3    2
    19     7     6   ar
    20    79    77   am
    21    77    76    1
    22     3     2    1
    23    10     8   ar
    24     6     8   ar
    25     6     5    1
    26    76    75    1
    27     2     5    1
    28     2     1    1
    29    75    70   am
    30    56    55    2
    31    73    72    1
    32    71    70    2
    33    70    69    1
    34    55    54    1
    35    52    51    2
    36    50    51    1
    37    50    49    1
    38    51    53   am
    39    72    69    1
    40    72    74    1
    41    41    40    2
    42    69    68    1
    43    43    42    1
    44    53    54    1
    45    54    57    1
    46    44    42    1
    47    40    39    1
    48    42    39    1
    49    68    62   am
    50    57    58    1
    51    57    59    1
    52    39    38    1
    53    32    31    1
    54    62    63    2
    55    62    61    1
    56    66    64    1
    57    31    30   ar
    58    31    29   ar
    59    30    28   ar
    60    61    64    1
    61    61    60    1
    62    64    65    1
    63    47    46    1
    64    47    48    2
    65    46    45    1
    66    29    27   ar
    67    28    26   ar
    68    37    34    1
    69    65    67    1
    70    27    26   ar
    71    26    25    1
    72    34    35    1
    73    34    33    1
    74    35    36    2
    75    25    22    1
    76    22    23    1
    77    22    21    1
    78    24    23    2
