@<TRIPOS>MOLECULE
tmp/6du1H01.pdb
 82 77 0 0 0
SMALL
GASTEIGER

@<TRIPOS>ATOM
      1  N         29.1920  -18.6520   55.7540 N.3   115  THR115     -0.1203
      2  CA        30.0770  -19.0970   54.6860 C.3   115  THR115      0.1994
      3  C         30.7730  -20.3840   55.1050 C.2   115  THR115      0.2618
      4  O         31.0340  -20.6080   56.2920 O.2   115  THR115     -0.2717
      5  CB        31.1140  -18.0230   54.3160 C.3   115  THR115      0.1784
      6  OG1       31.7360  -18.3720   53.0750 O.3   115  THR115     -0.2211
      7  CG2       32.1730  -17.8930   55.3910 C.3   115  THR115      0.0376
      8  N         31.0510  -21.2320   54.1170 N.am  116  GLY116     -0.1942
      9  CA        31.7910  -22.4550   54.3490 C.3   116  GLY116      0.2014
     10  C         33.2850  -22.2220   54.2850 C.2   116  GLY116      0.2639
     11  O         33.8990  -21.8270   55.2780 O.2   116  GLY116     -0.2714
     12  N         33.8780  -22.4570   53.1180 N.am  117  ALA117     -0.1963
     13  CA        35.2770  -22.1360   52.8720 C.3   117  ALA117      0.1728
     14  C         35.4990  -20.6800   52.4770 C.2   117  ALA117      0.2617
     15  O         36.6570  -20.2610   52.3730 O.2   117  ALA117     -0.2715
     16  CB        35.8470  -23.0490   51.7840 C.3   117  ALA117      0.0334
     17  N         34.4410  -19.9050   52.2380 N.am  118  GLY118     -0.1940
     18  CA        34.6170  -18.4700   52.1070 C.3   118  GLY118      0.2014
     19  C         33.9950  -17.7590   50.9180 C.2   118  GLY118      0.2639
     20  O         34.0280  -16.5260   50.8690 O.2   118  GLY118     -0.2714
     21  N         33.4220  -18.4940   49.9610 N.am  119  GLN119     -0.1963
     22  CA        32.9630  -17.8540   48.7290 C.3   119  GLN119      0.1733
     23  C         31.8090  -16.8930   48.9930 C.2   119  GLN119      0.2616
     24  O         31.8460  -15.7330   48.5670 O.2   119  GLN119     -0.2715
     25  CB        32.5530  -18.9040   47.6990 C.3   119  GLN119      0.0408
     26  CG        32.1770  -18.3120   46.3510 C.3   119  GLN119      0.0908
     27  CD        33.1000  -18.7660   45.2390 C.2   119  GLN119      0.2608
     28  OE1       34.0380  -18.0590   44.8630 O.2   119  GLN119     -0.2717
     29  NE2       32.8390  -19.9540   44.7060 N.am  119  GLN119     -0.0878
     30  N         30.7630  -17.3630   49.6780 N.am  120  HIS120     -0.1973
     31  CA        29.6170  -16.4980   49.9410 C.3   120  HIS120      0.1656
     32  C         29.9790  -15.3640   50.8910 C.2   120  HIS120      0.2291
     33  O         29.4090  -14.2700   50.7970 O.2   120  HIS120     -0.2864
     34  CB        28.4500  -17.3110   50.5030 C.3   120  HIS120      0.0771
     35  CG        27.2460  -16.4820   50.8310 C.ar  120  HIS120      0.0820
     36  ND1       26.6360  -15.6590   49.9090 N.ar  120  HIS120     -0.2267
     37  CD2       26.5510  -16.3340   51.9840 C.ar  120  HIS120      0.1154
     38  CE1       25.6160  -15.0420   50.4780 C.ar  120  HIS120      0.1986
     39  NE2       25.5430  -15.4350   51.7370 N.ar  120  HIS120     -0.2212
     40  N         41.0860  -16.4030   52.2880 N.3   150  ASN150     -0.1240
     41  CA        39.7100  -15.9500   52.1060 C.3   150  ASN150      0.1653
     42  C         39.2730  -15.0530   53.2560 C.2   150  ASN150      0.2266
     43  O         38.5430  -14.0760   53.0470 O.2   150  ASN150     -0.2867
     44  CB        38.7670  -17.1450   51.9720 C.3   150  ASN150      0.1155
     45  CG        38.7000  -17.6740   50.5550 C.2   150  ASN150      0.2627
     46  OD1       39.0990  -16.9960   49.6090 O.2   150  ASN150     -0.2716
     47  ND2       38.1820  -18.8870   50.4000 N.am  150  ASN150     -0.0877
     48  N         30.0620  -25.1660   58.1530 N.3   171  LEU171     -0.1245
     49  CA        29.0470  -24.3330   57.5090 C.3   171  LEU171      0.1561
     50  C         27.6910  -24.4610   58.1910 C.2   171  LEU171      0.2260
     51  O         27.0000  -23.4580   58.4080 O.2   171  LEU171     -0.2867
     52  CB        28.9370  -24.6990   56.0290 C.3   171  LEU171      0.0270
     53  CG        27.7280  -24.1530   55.2630 C.3   171  LEU171      0.0019
     54  CD1       27.7660  -22.6310   55.1780 C.3   171  LEU171      0.0001
     55  CD2       27.6330  -24.7800   53.8730 C.3   171  LEU171      0.0001
     56  N         33.6530  -27.7310   48.7680 N.3   307  ALA307     -0.1231
     57  CA        33.1570  -27.0050   49.9290 C.3   307  ALA307      0.1694
     58  C         31.7390  -26.4940   49.7280 C.2   307  ALA307      0.2592
     59  O         30.9510  -26.4860   50.6820 O.2   307  ALA307     -0.2718
     60  CB        34.0860  -25.8330   50.2590 C.3   307  ALA307      0.0304
     61  N         31.3950  -26.0810   48.5040 N.am  308  GLY308     -0.1957
     62  CA        30.0750  -25.5460   48.2250 C.3   308  GLY308      0.1869
     63  C         28.9720  -26.5790   48.1800 C.2   308  GLY308      0.2309
     64  O         27.8110  -26.2370   48.4190 O.2   308  GLY308     -0.2863
     65  N         33.1170  -27.6210   42.7600 N.3   355  GLU355     -0.1245
     66  CA        31.6640  -27.7360   42.7020 C.3   355  GLU355      0.1567
     67  C         31.1940  -27.8740   41.2600 C.2   355  GLU355      0.2260
     68  O         30.4650  -28.8110   40.9160 O.2   355  GLU355     -0.2867
     69  CB        31.0050  -26.5220   43.3600 C.3   355  GLU355      0.0388
     70  CG        31.2470  -26.3830   44.8540 C.3   355  GLU355      0.1160
     71  CD        32.6050  -25.7940   45.1820 C.2   355  GLU355      0.3649
     72  OE1       33.2530  -25.2410   44.2700 O.co2 355  GLU355     -0.2457
     73  OE2       33.0240  -25.8870   46.3550 O.co2 355  GLU355     -0.2457
     74  N         40.3540  -20.9400   43.6260 N.3   386  LYS386     -0.1245
     75  CA        40.3340  -21.3150   45.0350 C.3   386  LYS386      0.1561
     76  C         40.7040  -22.7770   45.2560 C.2   386  LYS386      0.2260
     77  O         41.0490  -23.1550   46.3820 O.2   386  LYS386     -0.2867
     78  CB        38.9460  -21.0370   45.6180 C.3   386  LYS386      0.0271
     79  CG        37.8290  -21.7930   44.9100 C.3   386  LYS386      0.0035
     80  CD        36.4570  -21.3560   45.3900 C.3   386  LYS386      0.0206
     81  CE        35.3530  -22.1350   44.6870 C.3   386  LYS386      0.1093
     82  NZ        35.4140  -23.5910   44.9890 N.3   386  LYS386     -0.1314
@<TRIPOS>BOND
     1    68    67    2
     2    67    66    1
     3    66    65    1
     4    66    69    1
     5    69    70    1
     6    74    75    1
     7    72    71   ar
     8    81    82    1
     9    81    80    1
    10    29    27   am
    11    70    71    1
    12    28    27    2
    13    79    80    1
    14    79    78    1
    15    75    76    1
    16    75    78    1
    17    71    73   ar
    18    27    26    1
    19    76    77    2
    20    26    25    1
    21    25    22    1
    22    63    62    1
    23    63    64    2
    24    62    61    1
    25    61    58   am
    26    24    23    2
    27    22    23    1
    28    22    21    1
    29    56    57    1
    30    23    30   am
    31    46    45    2
    32    30    31    1
    33    58    57    1
    34    58    59    2
    35    36    38   ar
    36    36    35   ar
    37    57    60    1
    38    31    34    1
    39    31    32    1
    40    21    19   am
    41    47    45   am
    42    38    39   ar
    43    34    35    1
    44    45    44    1
    45    33    32    2
    46    35    37   ar
    47    20    19    2
    48    19    18    1
    49    39    37   ar
    50    16    13    1
    51    44    41    1
    52    41    40    1
    53    41    42    1
    54    18    17    1
    55    17    14   am
    56    15    14    2
    57    14    13    1
    58    13    12    1
    59    43    42    2
    60     6     5    1
    61    12    10   am
    62    55    53    1
    63     8     9    1
    64     8     3   am
    65    10     9    1
    66    10    11    2
    67     5     2    1
    68     5     7    1
    69     2     3    1
    70     2     1    1
    71     3     4    2
    72    54    53    1
    73    53    52    1
    74    52    49    1
    75    49    48    1
    76    49    50    1
    77    50    51    2
