@<TRIPOS>MOLECULE
tmp/6du1H00.pdb
 150 151 0 0 0
SMALL
GASTEIGER

@<TRIPOS>ATOM
      1  N          9.9020  -22.6720   59.2670 N.3    21  TYR21      -0.1227
      2  CA        10.1730  -23.4260   60.4880 C.3    21  TYR21       0.1736
      3  C         11.2060  -22.6690   61.3200 C.2    21  TYR21       0.2595
      4  O         12.3710  -23.0480   61.4510 O.2    21  TYR21      -0.2718
      5  CB        10.6110  -24.8470   60.1480 C.3    21  TYR21       0.0548
      6  CG         9.4740  -25.6630   59.5820 C.ar   21  TYR21      -0.0200
      7  CD1        9.1300  -25.5720   58.2400 C.ar   21  TYR21      -0.0009
      8  CD2        8.7210  -26.5010   60.3960 C.ar   21  TYR21      -0.0009
      9  CE1        8.0800  -26.3050   57.7200 C.ar   21  TYR21       0.0417
     10  CE2        7.6670  -27.2390   59.8840 C.ar   21  TYR21       0.0417
     11  CZ         7.3520  -27.1370   58.5450 C.ar   21  TYR21       0.1957
     12  OH         6.3050  -27.8670   58.0260 O.3    21  TYR21      -0.2866
     13  N         10.7320  -21.5600   61.8780 N.am   22  VAL22      -0.1966
     14  CA        11.5500  -20.6390   62.6640 C.3    22  VAL22       0.1712
     15  C         10.8120  -20.3450   63.9630 C.2    22  VAL22       0.2458
     16  O          9.6070  -20.6140   64.0800 O.2    22  VAL22      -0.2730
     17  CB        11.8380  -19.3320   61.8880 C.3    22  VAL22       0.0289
     18  CG1       12.5890  -19.6310   60.5980 C.3    22  VAL22       0.0023
     19  CG2       10.5370  -18.5880   61.6100 C.3    22  VAL22       0.0023
     20  N         11.5060  -19.8060   64.9630 N.am   23  PRO23      -0.2727
     21  CA        10.8140  -19.3610   66.1770 C.3    23  PRO23       0.1402
     22  C         10.0340  -18.0770   65.9380 C.2    23  PRO23       0.2269
     23  O         10.2670  -17.3390   64.9780 O.2    23  PRO23      -0.2865
     24  CB        11.9550  -19.1340   67.1720 C.3    23  PRO23       0.0296
     25  CG        13.1310  -18.8240   66.3090 C.3    23  PRO23       0.0237
     26  CD        12.9700  -19.6980   65.1000 C.3    23  PRO23       0.0939
     27  N         11.6780  -14.5400   65.4520 N.3    26  LEU26      -0.1245
     28  CA        12.2140  -14.1140   64.1690 C.3    26  LEU26       0.1561
     29  C         11.1340  -13.7800   63.1470 C.2    26  LEU26       0.2260
     30  O         11.4630  -13.3730   62.0290 O.2    26  LEU26      -0.2867
     31  CB        13.1400  -15.1990   63.6110 C.3    26  LEU26       0.0270
     32  CG        14.2590  -14.7060   62.7000 C.3    26  LEU26       0.0019
     33  CD1       15.2060  -13.8130   63.4840 C.3    26  LEU26       0.0001
     34  CD2       14.9940  -15.8760   62.0760 C.3    26  LEU26       0.0001
     35  N         25.7150  -21.1360   59.9800 N.3   175  ILE175     -0.1231
     36  CA        24.3440  -20.6990   59.7420 C.3   175  ILE175      0.1692
     37  C         23.5890  -20.5870   61.0590 C.2   175  ILE175      0.2592
     38  O         22.8360  -19.6300   61.2820 O.2   175  ILE175     -0.2718
     39  CB        23.6460  -21.6600   58.7630 C.3   175  ILE175      0.0266
     40  CG1       24.3780  -21.6560   57.4170 C.3   175  ILE175      0.0019
     41  CG2       22.1830  -21.2850   58.5920 C.3   175  ILE175      0.0020
     42  CD1       23.8990  -22.6970   56.4410 C.3   175  ILE175      0.0001
     43  N         23.7910  -21.5530   61.9600 N.am  176  ASN176     -0.1974
     44  CA        23.1330  -21.5010   63.2610 C.3   176  ASN176      0.1688
     45  C         23.5380  -20.2560   64.0410 C.2   176  ASN176      0.2292
     46  O         22.7210  -19.6750   64.7630 O.2   176  ASN176     -0.2864
     47  CB        23.4550  -22.7610   64.0660 C.3   176  ASN176      0.1181
     48  CG        22.8160  -24.0050   63.4840 C.2   176  ASN176      0.2629
     49  OD1       21.8110  -23.9300   62.7770 O.2   176  ASN176     -0.2716
     50  ND2       23.3960  -25.1610   63.7840 N.am  176  ASN176     -0.0877
     51  N         21.9780  -17.2030   62.6090 N.3   179  PHE179     -0.1241
     52  CA        20.5940  -17.2310   63.0670 C.3   179  PHE179      0.1605
     53  C         20.4500  -16.5390   64.4180 C.2   179  PHE179      0.2264
     54  O         19.6280  -15.6290   64.5770 O.2   179  PHE179     -0.2867
     55  CB        20.1130  -18.6810   63.1380 C.3   179  PHE179      0.0534
     56  CG        18.8340  -18.8680   63.8990 C.ar  179  PHE179     -0.0203
     57  CD1       17.6160  -18.5260   63.3320 C.ar  179  PHE179     -0.0042
     58  CD2       18.8480  -19.4090   65.1770 C.ar  179  PHE179     -0.0042
     59  CE1       16.4380  -18.7050   64.0330 C.ar  179  PHE179     -0.0003
     60  CE2       17.6760  -19.5910   65.8810 C.ar  179  PHE179     -0.0003
     61  CZ        16.4690  -19.2390   65.3090 C.ar  179  PHE179     -0.0000
     62  N         20.9030  -12.8440   64.1670 N.3   182  TRP182     -0.1241
     63  CA        19.7560  -12.1590   63.5790 C.3   182  TRP182      0.1605
     64  C         18.6050  -12.0410   64.5680 C.2   182  TRP182      0.2264
     65  O         17.8810  -11.0400   64.5570 O.2   182  TRP182     -0.2867
     66  CB        19.2940  -12.8890   62.3180 C.3   182  TRP182      0.0550
     67  CG        18.5460  -12.0100   61.3570 C.ar  182  TRP182      0.0003
     68  CD1       18.5750  -10.6450   61.3000 C.ar  182  TRP182      0.0946
     69  CD2       17.6540  -12.4350   60.3190 C.ar  182  TRP182      0.0152
     70  NE1       17.7600  -10.1950   60.2870 N.ar  182  TRP182     -0.2442
     71  CE2       17.1830  -11.2740   59.6710 C.ar  182  TRP182      0.0810
     72  CE3       17.2100  -13.6830   59.8730 C.ar  182  TRP182      0.0012
     73  CZ2       16.2910  -11.3250   58.6040 C.ar  182  TRP182      0.0191
     74  CZ3       16.3270  -13.7320   58.8110 C.ar  182  TRP182      0.0001
     75  CH2       15.8760  -12.5600   58.1890 C.ar  182  TRP182      0.0015
     76  N         19.8740  -10.5500   57.1620 N.3   191  TYR191     -0.1241
     77  CA        20.5850  -11.8130   56.9690 C.3   191  TYR191      0.1605
     78  C         20.6200  -12.1300   55.4750 C.2   191  TYR191      0.2264
     79  O         19.6040  -12.5180   54.8900 O.2   191  TYR191     -0.2867
     80  CB        19.9220  -12.9380   57.7620 C.3   191  TYR191      0.0534
     81  CG        20.6950  -14.2460   57.8150 C.ar  191  TYR191     -0.0201
     82  CD1       21.8850  -14.4180   57.1150 C.ar  191  TYR191     -0.0009
     83  CD2       20.2260  -15.3150   58.5660 C.ar  191  TYR191     -0.0009
     84  CE1       22.5790  -15.6120   57.1600 C.ar  191  TYR191      0.0417
     85  CE2       20.9140  -16.5130   58.6180 C.ar  191  TYR191      0.0417
     86  CZ        22.0880  -16.6560   57.9140 C.ar  191  TYR191      0.1957
     87  OH        22.7740  -17.8490   57.9670 O.3   191  TYR191     -0.2866
     88  N         21.3020  -14.5650   53.1530 N.3   193  PHE193     -0.1241
     89  CA        21.4890  -16.0060   53.0460 C.3   193  PHE193      0.1605
     90  C         22.0740  -16.3760   51.6850 C.2   193  PHE193      0.2264
     91  O         21.7750  -15.7520   50.6630 O.2   193  PHE193     -0.2867
     92  CB        20.1650  -16.7340   53.2690 C.3   193  PHE193      0.0534
     93  CG        20.3210  -18.1960   53.5810 C.ar  193  PHE193     -0.0203
     94  CD1       21.1810  -18.6150   54.5850 C.ar  193  PHE193     -0.0042
     95  CD2       19.5950  -19.1480   52.8840 C.ar  193  PHE193     -0.0042
     96  CE1       21.3270  -19.9580   54.8790 C.ar  193  PHE193     -0.0003
     97  CE2       19.7320  -20.4930   53.1740 C.ar  193  PHE193     -0.0003
     98  CZ        20.5990  -20.8990   54.1730 C.ar  193  PHE193     -0.0000
     99  N         16.3190  -22.0050   53.4160 N.3   198  GLY198     -0.1210
    100  CA        15.8680  -21.1660   54.4990 C.3   198  GLY198      0.1940
    101  C         14.3650  -20.9880   54.4670 C.2   198  GLY198      0.2453
    102  O         13.6630  -21.5980   53.6540 O.2   198  GLY198     -0.2732
    103  N         13.8380  -20.1480   55.3510 N.am  199  PRO199     -0.2728
    104  CA        12.3920  -19.9270   55.3890 C.3   199  PRO199      0.1401
    105  C         11.9460  -18.9520   54.3100 C.2   199  PRO199      0.2269
    106  O         12.7370  -18.1870   53.7550 O.2   199  PRO199     -0.2865
    107  CB        12.1670  -19.3390   56.7840 C.3   199  PRO199      0.0296
    108  CG        13.4370  -18.5730   57.0450 C.3   199  PRO199      0.0237
    109  CD        14.5440  -19.3710   56.3870 C.3   199  PRO199      0.0939
    110  N         13.0530  -16.6440   51.4490 N.3   202  PHE202     -0.1241
    111  CA        14.4200  -16.7910   50.9500 C.3   202  PHE202      0.1605
    112  C         14.5420  -17.7860   49.8000 C.2   202  PHE202      0.2264
    113  O         15.2250  -17.4620   48.8130 O.2   202  PHE202     -0.2867
    114  CB        15.3560  -17.1320   52.1140 C.3   202  PHE202      0.0534
    115  CG        15.6810  -15.9480   52.9820 C.ar  202  PHE202     -0.0203
    116  CD1       16.7610  -15.1330   52.6880 C.ar  202  PHE202     -0.0042
    117  CD2       14.8890  -15.6330   54.0750 C.ar  202  PHE202     -0.0042
    118  CE1       17.0510  -14.0350   53.4730 C.ar  202  PHE202     -0.0003
    119  CE2       15.1780  -14.5360   54.8650 C.ar  202  PHE202     -0.0003
    120  CZ        16.2600  -13.7380   54.5640 C.ar  202  PHE202     -0.0000
    121  N         12.4850  -31.0360   58.6220 N.3   283  ALA283     -0.1231
    122  CA        12.5450  -29.6020   58.8780 C.3   283  ALA283      0.1694
    123  C         13.9590  -29.2340   59.3070 C.2   283  ALA283      0.2592
    124  O         14.4640  -29.7520   60.3080 O.2   283  ALA283     -0.2718
    125  CB        11.5350  -29.1890   59.9500 C.3   283  ALA283      0.0304
    126  N         14.5910  -28.3380   58.5520 N.am  284  PHE284     -0.1962
    127  CA        15.9710  -27.9590   58.8210 C.3   284  PHE284      0.1771
    128  C         16.2180  -26.5670   58.2650 C.2   284  PHE284      0.2620
    129  O         15.8510  -26.2820   57.1210 O.2   284  PHE284     -0.2715
    130  CB        16.9460  -28.9680   58.2040 C.3   284  PHE284      0.0574
    131  CG        18.3870  -28.6910   58.5200 C.ar  284  PHE284     -0.0200
    132  CD1       18.8130  -28.5910   59.8350 C.ar  284  PHE284     -0.0042
    133  CD2       19.3180  -28.5440   57.5050 C.ar  284  PHE284     -0.0042
    134  CE1       20.1400  -28.3380   60.1330 C.ar  284  PHE284     -0.0003
    135  CE2       20.6450  -28.2920   57.7930 C.ar  284  PHE284     -0.0003
    136  CZ        21.0570  -28.1900   59.1100 C.ar  284  PHE284     -0.0000
    137  N         16.8290  -25.7080   59.0820 N.am  285  HIS285     -0.1959
    138  CA        17.2010  -24.3520   58.6770 C.3   285  HIS285      0.1787
    139  C         16.0050  -23.5720   58.1340 C.2   285  HIS285      0.2620
    140  O         16.1150  -22.8200   57.1640 O.2   285  HIS285     -0.2715
    141  CB        18.3450  -24.3810   57.6640 C.3   285  HIS285      0.0785
    142  CG        19.6890  -24.5920   58.2880 C.ar  285  HIS285      0.0821
    143  ND1       20.8370  -24.7740   57.5470 N.ar  285  HIS285     -0.2267
    144  CD2       20.0680  -24.6410   59.5870 C.ar  285  HIS285      0.1154
    145  CE1       21.8640  -24.9290   58.3630 C.ar  285  HIS285      0.1986
    146  NE2       21.4240  -24.8530   59.6060 N.ar  285  HIS285     -0.2212
    147  N         14.8480  -23.7580   58.7660 N.am  286  GLY286     -0.1954
    148  CA        13.6880  -22.9350   58.4880 C.3   286  GLY286      0.1869
    149  C         12.8180  -23.3730   57.3330 C.2   286  GLY286      0.2309
    150  O         11.9060  -22.6290   56.9560 O.2   286  GLY286     -0.2863
@<TRIPOS>BOND
     1   113   112    2
     2   112   111    1
     3    91    90    2
     4   111   110    1
     5   111   114    1
     6    90    89    1
     7   114   115    1
     8   116   115   ar
     9   116   118   ar
    10    95    97   ar
    11    95    93   ar
    12   115   117   ar
    13    89    88    1
    14    89    92    1
    15    97    98   ar
    16    92    93    1
    17    99   100    1
    18   118   120   ar
    19    93    94   ar
    20   102   101    2
    21   106   105    2
    22   117   119   ar
    23    98    96   ar
    24   105   104    1
    25   101   100    1
    26   101   103   am
    27   120   119   ar
    28    94    96   ar
    29    79    78    2
    30   103   104    1
    31   103   109    1
    32   104   107    1
    33    78    77    1
    34   109   108    1
    35    42    40    1
    36   107   108    1
    37   150   149    2
    38    77    76    1
    39    77    80    1
    40    82    84   ar
    41    82    81   ar
    42   129   128    2
    43    84    86   ar
    44   140   139    2
    45   149   148    1
    46    40    39    1
    47   133   135   ar
    48   133   131   ar
    49   143   142   ar
    50   143   145   ar
    51   141   142    1
    52   141   138    1
    53     9     7   ar
    54     9    11   ar
    55    80    81    1
    56   135   136   ar
    57    81    83   ar
    58    86    87    1
    59    86    85   ar
    60    12    11    1
    61   139   138    1
    62   139   147   am
    63    75    73   ar
    64    75    74   ar
    65   130   131    1
    66   130   127    1
    67     7     6   ar
    68   128   127    1
    69   128   137   am
    70   142   144   ar
    71   145   146   ar
    72   148   147    1
    73   131   132   ar
    74    11    10   ar
    75   126   127    1
    76   126   123   am
    77    83    85   ar
    78    41    39    1
    79    73    71   ar
    80   121   122    1
    81   138   137    1
    82    39    36    1
    83    74    72   ar
    84   122   123    1
    85   122   125    1
    86   136   134   ar
    87     1     2    1
    88   123   124    2
    89     6     5    1
    90     6     8   ar
    91   144   146   ar
    92    71    70   ar
    93    71    69   ar
    94    36    35    1
    95    36    37    1
    96   132   134   ar
    97    72    69   ar
    98    10     8   ar
    99     5     2    1
   100    70    68   ar
   101    69    67   ar
   102     2     3    1
   103    18    17    1
   104    37    38    2
   105    37    43   am
   106    68    67   ar
   107     3     4    2
   108     3    13   am
   109    67    66    1
   110    19    17    1
   111    13    14    1
   112    17    14    1
   113    43    44    1
   114    30    29    2
   115    34    32    1
   116    66    63    1
   117    51    52    1
   118    14    15    1
   119    32    33    1
   120    32    31    1
   121    49    48    2
   122    52    55    1
   123    52    53    1
   124    55    56    1
   125    29    28    1
   126    44    45    1
   127    44    47    1
   128    57    56   ar
   129    57    59   ar
   130    48    50   am
   131    48    47    1
   132    63    62    1
   133    63    64    1
   134    31    28    1
   135    56    58   ar
   136    15    16    2
   137    15    20   am
   138    59    61   ar
   139    45    46    2
   140    28    27    1
   141    53    54    2
   142    65    64    2
   143    20    26    1
   144    20    21    1
   145    23    22    2
   146    26    25    1
   147    58    60   ar
   148    61    60   ar
   149    22    21    1
   150    21    24    1
   151    25    24    1
