@<TRIPOS>MOLECULE
tmp/6du2A00.pdb
 86 83 0 0 0
SMALL
GASTEIGER

@<TRIPOS>ATOM
      1  N          5.0330  -26.6480  -18.8710 N.3    23  GLU23      -0.1245
      2  CA         4.8700  -25.2150  -19.1200 C.3    23  GLU23       0.1567
      3  C          3.4950  -24.7020  -18.7140 C.2    23  GLU23       0.2260
      4  O          3.2040  -23.5120  -18.9000 O.2    23  GLU23      -0.2867
      5  CB         5.1650  -24.8410  -20.5820 C.3    23  GLU23       0.0388
      6  CG         6.6260  -24.9850  -20.9270 C.3    23  GLU23       0.1160
      7  CD         7.0080  -26.4270  -21.1770 C.2    23  GLU23       0.3649
      8  OE1        6.2780  -27.1090  -21.9240 O.co2  23  GLU23      -0.2457
      9  OE2        7.9990  -26.8950  -20.5730 O.co2  23  GLU23      -0.2457
     10  N          7.9180  -26.8100  -15.2620 N.3    27  HIS27      -0.1226
     11  CA         8.8510  -26.8110  -16.3750 C.3    27  HIS27       0.1752
     12  C         10.0340  -27.7070  -16.0410 C.2    27  HIS27       0.2597
     13  O         10.6380  -27.5800  -14.9660 O.2    27  HIS27      -0.2718
     14  CB         9.3390  -25.4130  -16.7250 C.3    27  HIS27       0.0759
     15  CG        10.3350  -25.4220  -17.8340 C.ar   27  HIS27       0.0818
     16  ND1       10.0250  -25.8830  -19.0950 N.ar   27  HIS27      -0.2268
     17  CD2       11.6460  -25.0890  -17.8640 C.ar   27  HIS27       0.1154
     18  CE1       11.0960  -25.8060  -19.8610 C.ar   27  HIS27       0.1986
     19  NE2       12.0920  -25.3290  -19.1380 N.ar   27  HIS27      -0.2212
     20  N         10.3560  -28.6090  -16.9660 N.am   28  SER28      -0.1938
     21  CA        11.4090  -29.5970  -16.8030 C.3    28  SER28       0.2055
     22  C         12.5240  -29.3470  -17.8090 C.2    28  SER28       0.2644
     23  O         12.3590  -28.6070  -18.7820 O.2    28  SER28      -0.2714
     24  CB        10.8650  -31.0170  -16.9820 C.3    28  SER28       0.2130
     25  OG         9.8000  -31.2760  -16.0840 O.3    28  SER28      -0.2179
     26  N         13.6660  -29.9870  -17.5640 N.am   29  SER29      -0.1935
     27  CA        14.8340  -29.8210  -18.4110 C.3    29  SER29       0.2055
     28  C         15.8150  -30.9500  -18.1420 C.2    29  SER29       0.2643
     29  O         15.9260  -31.4340  -17.0140 O.2    29  SER29      -0.2714
     30  CB        15.5200  -28.4790  -18.1630 C.3    29  SER29       0.2130
     31  OG        16.6350  -28.3470  -19.0410 O.3    29  SER29      -0.2179
     32  N         16.5310  -31.3620  -19.1920 N.am   30  PHE30      -0.1973
     33  CA        17.6780  -32.2430  -18.9990 C.3    30  PHE30       0.1639
     34  C         18.9390  -31.4690  -18.6430 C.2    30  PHE30       0.2290
     35  O         19.8940  -32.0640  -18.1270 O.2    30  PHE30      -0.2864
     36  CB        17.9560  -33.0720  -20.2490 C.3    30  PHE30       0.0560
     37  CG        16.9810  -34.1880  -20.4890 C.ar   30  PHE30      -0.0200
     38  CD1       15.7280  -33.9460  -21.0260 C.ar   30  PHE30      -0.0042
     39  CD2       17.3330  -35.4910  -20.1900 C.ar   30  PHE30      -0.0042
     40  CE1       14.8400  -34.9920  -21.2600 C.ar   30  PHE30      -0.0003
     41  CE2       16.4570  -36.5390  -20.4200 C.ar   30  PHE30      -0.0003
     42  CZ        15.2070  -36.2900  -20.9530 C.ar   30  PHE30      -0.0000
     43  N         16.1320  -35.5890  -15.1250 N.3    51  VAL51      -0.1245
     44  CA        15.2690  -34.5080  -15.5900 C.3    51  VAL51       0.1561
     45  C         14.9630  -33.5930  -14.4120 C.2    51  VAL51       0.2260
     46  O         14.4360  -34.0400  -13.3850 O.2    51  VAL51      -0.2867
     47  CB        13.9770  -35.0320  -16.2300 C.3    51  VAL51       0.0252
     48  CG1       13.0320  -33.8730  -16.4690 C.3    51  VAL51       0.0019
     49  CG2       14.2890  -35.7420  -17.5440 C.3    51  VAL51       0.0019
     50  N          3.4400  -35.5870  -23.2250 N.3    78  SER78      -0.1202
     51  CA         4.6870  -36.2310  -22.8540 C.3    78  SER78       0.2020
     52  C          4.4350  -37.6900  -22.4850 C.2    78  SER78       0.2618
     53  O          3.2980  -38.1660  -22.4480 O.2    78  SER78      -0.2717
     54  CB         5.3580  -35.4810  -21.7030 C.3    78  SER78       0.2103
     55  OG         4.5840  -35.5690  -20.5170 O.3    78  SER78      -0.2182
     56  N          5.5100  -38.4070  -22.1880 N.am   79  LEU79      -0.1979
     57  CA         5.4440  -39.8430  -21.9730 C.3    79  LEU79       0.1596
     58  C          5.2220  -40.1670  -20.5000 C.2    79  LEU79       0.2287
     59  O          5.7290  -39.4830  -19.6050 O.2    79  LEU79      -0.2864
     60  CB         6.7280  -40.5140  -22.4710 C.3    79  LEU79       0.0297
     61  CG         7.0520  -40.4050  -23.9660 C.3    79  LEU79       0.0022
     62  CD1        8.3600  -41.1010  -24.2780 C.3    79  LEU79       0.0001
     63  CD2        5.9290  -40.9820  -24.8170 C.3    79  LEU79       0.0001
     64  N          7.9600  -40.3290  -17.8290 N.3    82  TYR82      -0.1241
     65  CA         8.3030  -39.0610  -17.2070 C.3    82  TYR82       0.1605
     66  C          7.1200  -38.4370  -16.4660 C.2    82  TYR82       0.2264
     67  O          7.2840  -37.9680  -15.3390 O.2    82  TYR82      -0.2867
     68  CB         8.8460  -38.0930  -18.2680 C.3    82  TYR82       0.0534
     69  CG         8.6080  -36.6350  -17.9580 C.ar   82  TYR82      -0.0201
     70  CD1        9.3620  -35.9740  -16.9980 C.ar   82  TYR82      -0.0009
     71  CD2        7.6170  -35.9210  -18.6190 C.ar   82  TYR82      -0.0009
     72  CE1        9.1370  -34.6400  -16.7090 C.ar   82  TYR82       0.0417
     73  CE2        7.3840  -34.5880  -18.3350 C.ar   82  TYR82       0.0417
     74  CZ         8.1420  -33.9540  -17.3780 C.ar   82  TYR82       0.1957
     75  OH         7.9080  -32.6300  -17.0940 O.3    82  TYR82      -0.2866
     76  N          0.9220  -39.1490  -24.1740 N.3   102  ARG102     -0.1245
     77  CA         1.0780  -38.8410  -25.5950 C.3   102  ARG102      0.1563
     78  C          0.1930  -39.7290  -26.4570 C.2   102  ARG102      0.2260
     79  O         -0.5010  -39.2450  -27.3560 O.2   102  ARG102     -0.2867
     80  CB         2.5410  -38.9860  -26.0100 C.3   102  ARG102      0.0307
     81  CG         2.7440  -39.0510  -27.5150 C.3   102  ARG102      0.0489
     82  CD         4.2060  -38.9730  -27.8770 C.3   102  ARG102      0.2205
     83  NE         4.8680  -37.8580  -27.2090 N.pl3 102  ARG102     -0.0865
     84  CZ         6.1810  -37.7890  -27.0190 C.cat 102  ARG102      0.5346
     85  NH1        6.9570  -38.7720  -27.4410 N.pl3 102  ARG102      0.1354
     86  NH2        6.7180  -36.7480  -26.4020 N.pl3 102  ARG102      0.1354
@<TRIPOS>BOND
     1    82    81    1
     2    82    83    1
     3    81    80    1
     4    85    84    1
     5    79    78    2
     6    83    84    2
     7    84    86    1
     8    78    77    1
     9    80    77    1
    10    77    76    1
    11    63    61    1
    12    62    61    1
    13    61    60    1
    14    50    51    1
    15    51    52    1
    16    51    54    1
    17    52    53    2
    18    52    56   am
    19    60    57    1
    20    56    57    1
    21    57    58    1
    22     8     7   ar
    23    54    55    1
    24    40    38   ar
    25    40    42   ar
    26     7     6    1
    27     7     9   ar
    28    38    37   ar
    29    42    41   ar
    30     6     5    1
    31     5     2    1
    32    58    59    2
    33    37    36    1
    34    37    39   ar
    35    41    39   ar
    36    36    33    1
    37    18    19   ar
    38    18    16   ar
    39    32    33    1
    40    32    28   am
    41    19    17   ar
    42     2     1    1
    43     2     3    1
    44    16    15   ar
    45    31    30    1
    46    33    34    1
    47     4     3    2
    48    23    22    2
    49    34    35    2
    50    71    73   ar
    51    71    69   ar
    52    27    30    1
    53    27    28    1
    54    27    26    1
    55    73    74   ar
    56    68    69    1
    57    68    65    1
    58    28    29    2
    59    69    70   ar
    60    17    15   ar
    61    15    14    1
    62    64    65    1
    63    22    26   am
    64    22    21    1
    65    49    47    1
    66    74    75    1
    67    74    72   ar
    68    65    66    1
    69    70    72   ar
    70    24    21    1
    71    24    25    1
    72    20    21    1
    73    20    12   am
    74    14    11    1
    75    48    47    1
    76    66    67    2
    77    11    12    1
    78    11    10    1
    79    47    44    1
    80    12    13    2
    81    44    43    1
    82    44    45    1
    83    45    46    2
