@<TRIPOS>MOLECULE
tmp/6du6C00.pdb
 153 149 0 0 0
SMALL
GASTEIGER

@<TRIPOS>ATOM
      1  N         -5.8960   14.3330   62.7290 N.3   412  ILE412     -0.1231
      2  CA        -7.3010   14.4380   63.0910 C.3   412  ILE412      0.1692
      3  C         -7.6480   15.9190   63.0820 C.2   412  ILE412      0.2593
      4  O         -7.0120   16.7240   63.7750 O.2   412  ILE412     -0.2718
      5  CB        -7.6000   13.7680   64.4430 C.3   412  ILE412      0.0266
      6  CG1       -9.0830   13.8920   64.7910 C.3   412  ILE412      0.0019
      7  CG2       -6.7150   14.3160   65.5560 C.3   412  ILE412      0.0020
      8  CD1       -9.4560   13.1590   66.0540 C.3   412  ILE412      0.0001
      9  N         -8.6280   16.2880   62.2660 N.am  413  THR413     -0.1939
     10  CA        -8.9100   17.6930   62.0420 C.3   413  THR413      0.2028
     11  C        -10.3950   17.8870   61.7940 C.2   413  THR413      0.2643
     12  O        -11.0600   17.0240   61.2180 O.2   413  THR413     -0.2714
     13  CB        -8.0910   18.2380   60.8650 C.3   413  THR413      0.1808
     14  OG1       -8.4280   19.6110   60.6390 O.3   413  THR413     -0.2208
     15  CG2       -8.3530   17.4320   59.6010 C.3   413  THR413      0.0379
     16  N        -10.9120   19.0170   62.2710 N.am  414  THR414     -0.1936
     17  CA       -12.2820   19.4390   62.0150 C.3   414  THR414      0.2028
     18  C        -12.3760   20.3990   60.8340 C.2   414  THR414      0.2643
     19  O        -13.1840   20.1860   59.9260 O.2   414  THR414     -0.2714
     20  CB       -12.8740   20.0890   63.2710 C.3   414  THR414      0.1808
     21  OG1      -12.8900   19.1350   64.3430 O.3   414  THR414     -0.2208
     22  CG2      -14.2900   20.5630   63.0070 C.3   414  THR414      0.0379
     23  N        -11.5690   21.4610   60.8380 N.am  415  SER415     -0.1935
     24  CA       -11.5940   22.4280   59.7460 C.3   415  SER415      0.2055
     25  C        -10.7620   21.9790   58.5490 C.2   415  SER415      0.2644
     26  O        -11.1060   22.3020   57.4070 O.2   415  SER415     -0.2714
     27  CB       -11.0970   23.7880   60.2410 C.3   415  SER415      0.2130
     28  OG        -9.7510   23.7050   60.6790 O.3   415  SER415     -0.2179
     29  N         -9.6750   21.2430   58.7840 N.am  416  GLY416     -0.1939
     30  CA        -8.7970   20.7820   57.7270 C.3   416  GLY416      0.2014
     31  C         -7.4840   21.5290   57.6070 C.2   416  GLY416      0.2639
     32  O         -6.6100   21.0880   56.8510 O.2   416  GLY416     -0.2714
     33  N         -7.3250   22.6390   58.3300 N.am  417  ARG417     -0.1963
     34  CA        -6.1670   23.5090   58.1420 C.3   417  ARG417      0.1729
     35  C         -4.8590   22.8140   58.5190 C.2   417  ARG417      0.2616
     36  O         -3.8470   22.9700   57.8250 O.2   417  ARG417     -0.2715
     37  CB        -6.3580   24.7930   58.9490 C.3   417  ARG417      0.0348
     38  CG        -5.2600   25.8330   58.7920 C.3   417  ARG417      0.0492
     39  CD        -4.9440   26.1390   57.3310 C.3   417  ARG417      0.2205
     40  NE        -3.8410   27.0940   57.2110 N.pl3 417  ARG417     -0.0865
     41  CZ        -3.1690   27.3340   56.0880 C.cat 417  ARG417      0.5346
     42  NH1       -3.4790   26.6880   54.9720 N.pl3 417  ARG417      0.1354
     43  NH2       -2.1810   28.2190   56.0810 N.pl3 417  ARG417      0.1354
     44  N         -4.8510   22.0670   59.6280 N.am  418  SER418     -0.1950
     45  CA        -3.6150   21.4400   60.0970 C.3   418  SER418      0.1924
     46  C         -3.0180   20.5090   59.0470 C.2   418  SER418      0.2314
     47  O         -1.7990   20.5160   58.8140 O.2   418  SER418     -0.2863
     48  CB        -3.8840   20.6820   61.3940 C.3   418  SER418      0.2116
     49  OG        -4.8890   19.7000   61.2030 O.3   418  SER418     -0.2180
     50  N        -14.8130   14.5650   60.4720 N.3   436  ARG436     -0.1245
     51  CA       -16.2470   14.3100   60.4520 C.3   436  ARG436      0.1563
     52  C        -16.9460   15.0710   59.3320 C.2   436  ARG436      0.2260
     53  O        -17.9840   14.6190   58.8380 O.2   436  ARG436     -0.2867
     54  CB       -16.8530   14.6610   61.8100 C.3   436  ARG436      0.0307
     55  CG       -16.4580   13.6760   62.8920 C.3   436  ARG436      0.0489
     56  CD       -16.8750   14.1260   64.2760 C.3   436  ARG436      0.2205
     57  NE       -16.7150   13.0390   65.2370 N.pl3 436  ARG436     -0.0865
     58  CZ       -16.7860   13.1810   66.5570 C.cat 436  ARG436      0.5346
     59  NH1      -17.0080   14.3740   67.0950 N.pl3 436  ARG436      0.1354
     60  NH2      -16.6290   12.1230   67.3380 N.pl3 436  ARG436      0.1354
     61  N        -13.7910   13.0070   75.3450 N.3   463  TRP463     -0.1241
     62  CA       -13.0620   13.5130   74.1860 C.3   463  TRP463      0.1605
     63  C        -11.8040   12.6960   73.9130 C.2   463  TRP463      0.2264
     64  O        -11.4560   12.4530   72.7510 O.2   463  TRP463     -0.2867
     65  CB       -12.7270   14.9890   74.4060 C.3   463  TRP463      0.0550
     66  CG       -11.9060   15.6160   73.3280 C.ar  463  TRP463      0.0003
     67  CD1      -12.2390   15.7440   72.0120 C.ar  463  TRP463      0.0946
     68  CD2      -10.6230   16.2330   73.4800 C.ar  463  TRP463      0.0152
     69  NE1      -11.2340   16.3890   71.3310 N.ar  463  TRP463     -0.2442
     70  CE2      -10.2310   16.7010   72.2100 C.ar  463  TRP463      0.0810
     71  CE3       -9.7630   16.4290   74.5660 C.ar  463  TRP463      0.0012
     72  CZ2       -9.0170   17.3510   71.9960 C.ar  463  TRP463      0.0191
     73  CZ3       -8.5590   17.0760   74.3520 C.ar  463  TRP463      0.0001
     74  CH2       -8.1980   17.5290   73.0760 C.ar  463  TRP463      0.0015
     75  N        -10.9080   10.8360   70.3870 N.3   467  VAL467     -0.1245
     76  CA        -9.7300   11.0890   69.5630 C.3   467  VAL467      0.1561
     77  C         -8.9220    9.8080   69.3870 C.2   467  VAL467      0.2260
     78  O         -8.3990    9.5350   68.2980 O.2   467  VAL467     -0.2867
     79  CB        -8.8830   12.2420   70.1400 C.3   467  VAL467      0.0252
     80  CG1       -9.7090   13.5160   70.2240 C.3   467  VAL467      0.0019
     81  CG2       -8.3010   11.8900   71.4960 C.3   467  VAL467      0.0019
     82  N        -10.6930    7.7000   66.7710 N.3   470  ARG470     -0.1245
     83  CA       -10.4520    8.1800   65.4120 C.3   470  ARG470      0.1563
     84  C         -9.0310    7.8700   64.9430 C.2   470  ARG470      0.2260
     85  O         -8.8190    7.5510   63.7670 O.2   470  ARG470     -0.2867
     86  CB       -10.7680    9.6720   65.2990 C.3   470  ARG470      0.0307
     87  CG       -12.2530    9.9280   65.0690 C.3   470  ARG470      0.0489
     88  CD       -12.6120   11.4000   65.0950 C.3   470  ARG470      0.2205
     89  NE       -12.4370   12.0060   66.4080 N.pl3 470  ARG470     -0.0865
     90  CZ       -12.9570   13.1780   66.7570 C.cat 470  ARG470      0.5346
     91  NH1      -12.7530   13.6620   67.9750 N.pl3 470  ARG470      0.1354
     92  NH2      -13.6860   13.8640   65.8860 N.pl3 470  ARG470      0.1354
     93  N         -2.8350   15.5380   67.1500 N.3   494  THR494     -0.1203
     94  CA        -4.1760   15.7230   67.6890 C.3   494  THR494      0.1994
     95  C         -4.2960   17.1720   68.1380 C.2   494  THR494      0.2618
     96  O         -3.9380   18.0830   67.3870 O.2   494  THR494     -0.2717
     97  CB        -4.4620   14.7660   68.8540 C.3   494  THR494      0.1784
     98  OG1       -3.5870   15.0550   69.9510 O.3   494  THR494     -0.2211
     99  CG2       -4.2650   13.3150   68.4280 C.3   494  THR494      0.0376
    100  N         -4.8140   17.4100   69.3380 N.am  495  GLY495     -0.1956
    101  CA        -4.8620   18.7720   69.8290 C.3   495  GLY495      0.1869
    102  C         -4.8120   18.8500   71.3390 C.2   495  GLY495      0.2309
    103  O         -4.5030   17.8530   71.9980 O.2   495  GLY495     -0.2863
    104  N         -7.4480   20.8710   73.1040 N.3   497  LYS497     -0.1231
    105  CA        -8.7930   21.1910   73.5530 C.3   497  LYS497      0.1693
    106  C         -9.7730   20.7720   72.4680 C.2   497  LYS497      0.2592
    107  O         -9.4340   20.7520   71.2810 O.2   497  LYS497     -0.2718
    108  CB        -8.9490   22.6840   73.8740 C.3   497  LYS497      0.0285
    109  CG       -10.2230   23.1010   74.5950 C.3   497  LYS497      0.0035
    110  CD       -10.0560   24.5530   74.9810 C.3   497  LYS497      0.0206
    111  CE       -11.3130   25.2900   75.3720 C.3   497  LYS497      0.1093
    112  NZ       -12.1200   24.4130   76.2580 N.3   497  LYS497     -0.1314
    113  N        -10.9870   20.4230   72.8860 N.am  498  GLN498     -0.1966
    114  CA       -12.0180   19.9710   71.9570 C.3   498  GLN498      0.1733
    115  C        -12.6050   21.1810   71.2440 C.2   498  GLN498      0.2617
    116  O        -13.3270   21.9800   71.8500 O.2   498  GLN498     -0.2715
    117  CB       -13.0980   19.1900   72.6990 C.3   498  GLN498      0.0408
    118  CG       -14.3200   18.8400   71.9390 C.3   498  GLN498      0.0908
    119  CD       -15.4070   18.2350   72.8430 C.2   498  GLN498      0.2608
    120  OE1      -15.1740   17.9640   74.0180 O.2   498  GLN498     -0.2717
    121  NE2      -16.5630   18.0730   72.2430 N.am  498  GLN498     -0.0878
    122  N        -12.3010   21.3210   69.9590 N.am  499  GLY499     -0.1940
    123  CA       -12.7830   22.4600   69.2060 C.3   499  GLY499      0.2014
    124  C        -12.2800   22.4940   67.7800 C.2   499  GLY499      0.2640
    125  O        -12.2890   21.4730   67.0870 O.2   499  GLY499     -0.2714
    126  N        -11.8360   23.6690   67.3340 N.am  500  SER500     -0.1935
    127  CA       -11.3570   23.8420   65.9690 C.3   500  SER500      0.2055
    128  C         -9.8540   24.0930   65.9530 C.2   500  SER500      0.2644
    129  O         -9.0740   23.2310   66.3700 O.2   500  SER500     -0.2714
    130  CB       -12.1000   24.9900   65.2820 C.3   500  SER500      0.2130
    131  OG       -11.8000   26.2320   65.8940 O.3   500  SER500     -0.2179
    132  N         -9.4400   25.2710   65.4860 N.am  501  GLY501     -0.1939
    133  CA        -8.0340   25.5930   65.3210 C.3   501  GLY501      0.2014
    134  C         -7.2080   25.5190   66.5900 C.2   501  GLY501      0.2639
    135  O         -6.6370   26.5240   67.0170 O.2   501  GLY501     -0.2714
    136  N         -7.1350   24.3300   67.2020 N.am  502  PHE502     -0.1959
    137  CA        -6.3880   24.1230   68.4380 C.3   502  PHE502      0.1771
    138  C         -5.4440   22.9290   68.3500 C.2   502  PHE502      0.2620
    139  O         -5.0870   22.3550   69.3850 O.2   502  PHE502     -0.2715
    140  CB        -7.3520   23.9630   69.6170 C.3   502  PHE502      0.0574
    141  CG        -7.9490   25.2580   70.0870 C.ar  502  PHE502     -0.0200
    142  CD1       -7.1630   26.3920   70.2270 C.ar  502  PHE502     -0.0042
    143  CD2       -9.3010   25.3460   70.3560 C.ar  502  PHE502     -0.0042
    144  CE1       -7.7190   27.5880   70.6480 C.ar  502  PHE502     -0.0003
    145  CE2       -9.8600   26.5310   70.7730 C.ar  502  PHE502     -0.0003
    146  CZ        -9.0750   27.6540   70.9210 C.ar  502  PHE502     -0.0000
    147  N         -5.1030   22.5030   67.1330 N.am  503  THR503     -0.1951
    148  CA        -4.1390   21.4410   66.8610 C.3   503  THR503      0.1897
    149  C         -2.9530   21.4690   67.8300 C.2   503  THR503      0.2313
    150  O         -2.5970   22.5320   68.3570 O.2   503  THR503     -0.2863
    151  CB        -3.6540   21.5590   65.4040 C.3   503  THR503      0.1794
    152  OG1       -4.7850   21.7530   64.5500 O.3   503  THR503     -0.2208
    153  CG2       -2.9160   20.2940   64.9680 C.3   503  THR503      0.0378
@<TRIPOS>BOND
     1    42    41    1
     2    43    41    1
     3    41    40    2
     4    32    31    2
     5    40    39    1
     6    39    38    1
     7    26    25    2
     8    31    30    1
     9    31    33   am
    10    30    29    1
    11    36    35    2
    12    34    33    1
    13    34    35    1
    14    34    37    1
    15    35    44   am
    16    25    29   am
    17    25    24    1
    18    38    37    1
    19    47    46    2
    20    53    52    2
    21    46    45    1
    22    52    51    1
    23    15    13    1
    24    44    45    1
    25    24    27    1
    26    24    23    1
    27    19    18    2
    28    45    48    1
    29    27    28    1
    30    51    50    1
    31    51    54    1
    32    14    13    1
    33    18    23   am
    34    18    17    1
    35    13    10    1
    36    49    48    1
    37    12    11    2
    38    11    10    1
    39    11    16   am
    40    54    55    1
    41    17    16    1
    42    17    20    1
    43    10     9    1
    44     9     3   am
    45     1     2    1
    46    55    56    1
    47    22    20    1
    48     3     2    1
    49     3     4    2
    50     2     5    1
    51    20    21    1
    52    85    84    2
    53    56    57    1
    54     5     6    1
    55     5     7    1
    56   152   151    1
    57     6     8    1
    58    84    83    1
    59   153   151    1
    60    87    88    1
    61    87    86    1
    62    88    89    1
    63    57    58    2
    64   130   131    1
    65   130   127    1
    66    86    83    1
    67   133   132    1
    68   133   134    1
    69   151   148    1
    70    83    82    1
    71   132   128   am
    72    92    90    1
    73   128   127    1
    74   128   129    2
    75   127   126    1
    76    89    90    2
    77    58    59    1
    78    58    60    1
    79   134   135    2
    80   134   136   am
    81    90    91    1
    82   148   147    1
    83   148   149    1
    84   125   124    2
    85   147   138   am
    86    93    94    1
    87   136   137    1
    88   126   124   am
    89    96    95    2
    90    94    95    1
    91    94    97    1
    92   124   123    1
    93   149   150    2
    94    95   100   am
    95    78    77    2
    96   138   137    1
    97   138   139    2
    98    99    97    1
    99   137   140    1
   100    97    98    1
   101   123   122    1
   102   100   101    1
   103    77    76    1
   104    76    79    1
   105    76    75    1
   106   140   141    1
   107   101   102    1
   108   122   115   am
   109   141   142   ar
   110   141   143   ar
   111    79    80    1
   112    79    81    1
   113   142   144   ar
   114   143   145   ar
   115   144   146   ar
   116   145   146   ar
   117   115   116    2
   118   115   114    1
   119   107   106    2
   120    69    67   ar
   121    69    70   ar
   122   102   103    2
   123   118   117    1
   124   118   119    1
   125   114   117    1
   126   114   113    1
   127    72    70   ar
   128    72    74   ar
   129    67    66   ar
   130    70    68   ar
   131   121   119   am
   132   106   113   am
   133   106   105    1
   134    64    63    2
   135   119   120    2
   136    74    73   ar
   137   104   105    1
   138    66    68   ar
   139    66    65    1
   140    68    71   ar
   141   105   108    1
   142   108   109    1
   143    63    62    1
   144    62    65    1
   145    62    61    1
   146    73    71   ar
   147   109   110    1
   148   110   111    1
   149   111   112    1
