@<TRIPOS>MOLECULE
tmp/6dubA00.pdb
 151 144 0 0 0
SMALL
GASTEIGER

@<TRIPOS>ATOM
      1  N         16.4700   10.7470  188.3420 N.3    20  TYR20      -0.1241
      2  CA        15.2500   11.1350  189.0170 C.3    20  TYR20       0.1605
      3  C         14.0570   11.2400  188.0690 C.2    20  TYR20       0.2264
      4  O         12.9230   11.1470  188.5280 O.2    20  TYR20      -0.2867
      5  CB        15.4490   12.4290  189.8420 C.3    20  TYR20       0.0534
      6  CG        16.2970   12.1160  191.0640 C.ar   20  TYR20      -0.0201
      7  CD1       15.7760   11.3670  192.1310 C.ar   20  TYR20      -0.0009
      8  CD2       17.6480   12.4840  191.1140 C.ar   20  TYR20      -0.0009
      9  CE1       16.5800   11.0300  193.2240 C.ar   20  TYR20       0.0417
     10  CE2       18.4240   12.1860  192.1790 C.ar   20  TYR20       0.0417
     11  CZ        17.9370   11.4560  193.2060 C.ar   20  TYR20       0.1957
     12  OH        18.7570   11.0860  194.2610 O.3    20  TYR20      -0.2866
     13  N         11.3280    8.2400  197.0030 N.3    30  MET30      -0.1230
     14  CA        12.2200    9.1100  197.7420 C.3    30  MET30       0.1702
     15  C         13.2800    8.3580  198.5090 C.2    30  MET30       0.2592
     16  O         14.4390    8.7830  198.6280 O.2    30  MET30      -0.2718
     17  CB        11.4470   10.0460  198.6990 C.3    30  MET30       0.0401
     18  CG        10.4030   10.9710  198.0660 C.3    30  MET30       0.0596
     19  SD        11.0490   12.1090  196.8300 S.3    30  MET30      -0.1393
     20  CE        10.7490   11.2380  195.2820 C.3    30  MET30       0.0692
     21  N         12.8580    7.1970  199.0230 N.am   31  MET31      -0.1965
     22  CA        13.6940    6.3650  199.8790 C.3    31  MET31       0.1736
     23  C         14.5630    5.3480  199.1080 C.2    31  MET31       0.2617
     24  O         15.2950    4.5760  199.7450 O.2    31  MET31      -0.2715
     25  CB        12.8050    5.6840  200.8990 C.3    31  MET31       0.0427
     26  CG        12.2500    6.6010  201.9530 C.3    31  MET31       0.0599
     27  SD        13.4730    7.5200  202.9230 S.3    31  MET31      -0.1393
     28  CE        14.3910    6.1760  203.6700 C.3    31  MET31       0.0692
     29  N         14.4720    5.3620  197.7960 N.am   32  GLY32      -0.1940
     30  CA        15.2430    4.4170  197.0200 C.3    32  GLY32       0.2014
     31  C         14.9150    3.0000  197.3940 C.2    32  GLY32       0.2639
     32  O         13.7260    2.6070  197.4680 O.2    32  GLY32      -0.2714
     33  N         15.9450    2.2200  197.6850 N.am   33  ASN33      -0.1958
     34  CA        15.7060    0.8330  198.0380 C.3    33  ASN33       0.1819
     35  C         15.3960    0.6080  199.5140 C.2    33  ASN33       0.2621
     36  O         15.3550   -0.5790  199.9470 O.2    33  ASN33      -0.2715
     37  CB        16.9420    0.0490  197.6300 C.3    33  ASN33       0.1195
     38  CG        17.0840   -0.0580  196.1300 C.2    33  ASN33       0.2630
     39  OD1       16.0870   -0.2390  195.4070 O.2    33  ASN33      -0.2716
     40  ND2       18.3270   -0.0150  195.6460 N.am   33  ASN33      -0.0877
     41  N         15.0880    1.6670  200.2580 N.am   34  PHE34      -0.1974
     42  CA        15.0080    1.5730  201.7260 C.3    34  PHE34       0.1639
     43  C         13.7520    2.2070  202.3500 C.2    34  PHE34       0.2290
     44  O         13.8560    2.9190  203.3830 O.2    34  PHE34      -0.2864
     45  CB        16.2950    2.1910  202.3110 C.3    34  PHE34       0.0560
     46  CG        17.5350    1.4650  201.8510 C.ar   34  PHE34      -0.0200
     47  CD1       17.9300    0.2930  202.4750 C.ar   34  PHE34      -0.0042
     48  CD2       18.2640    1.9090  200.7750 C.ar   34  PHE34      -0.0042
     49  CE1       19.0410   -0.3880  202.0610 C.ar   34  PHE34      -0.0003
     50  CE2       19.4030    1.2480  200.3360 C.ar   34  PHE34      -0.0003
     51  CZ        19.7840    0.0880  200.9830 C.ar   34  PHE34      -0.0000
     52  N         13.2750    2.2590  206.0950 N.3    37  LEU37      -0.1245
     53  CA        14.0680    3.1560  206.9270 C.3    37  LEU37       0.1561
     54  C         13.4940    4.5530  207.0380 C.2    37  LEU37       0.2260
     55  O         14.0310    5.3390  207.7960 O.2    37  LEU37      -0.2867
     56  CB        15.5360    3.2030  206.4710 C.3    37  LEU37       0.0270
     57  CG        16.1750    1.8100  206.3240 C.3    37  LEU37       0.0019
     58  CD1       17.6160    1.9230  205.9540 C.3    37  LEU37       0.0001
     59  CD2       16.0540    1.0640  207.6320 C.3    37  LEU37       0.0001
     60  N         19.8540   14.1950  202.1630 N.3   135  TRP135     -0.1241
     61  CA        20.0280   13.2740  201.0650 C.3   135  TRP135      0.1605
     62  C         20.0970   13.9760  199.6950 C.2   135  TRP135      0.2264
     63  O         19.6820   13.4070  198.6710 O.2   135  TRP135     -0.2867
     64  CB        19.0520   12.1000  201.1070 C.3   135  TRP135      0.0550
     65  CG        19.4430   11.0380  202.1300 C.ar  135  TRP135      0.0003
     66  CD1       20.6950   10.6160  202.4320 C.ar  135  TRP135      0.0946
     67  CD2       18.5460   10.3080  202.9710 C.ar  135  TRP135      0.0152
     68  NE1       20.6430    9.6830  203.4240 N.ar  135  TRP135     -0.2442
     69  CE2       19.3310    9.4730  203.7870 C.ar  135  TRP135      0.0810
     70  CE3       17.1540   10.2860  203.1200 C.ar  135  TRP135      0.0012
     71  CZ2       18.7880    8.6460  204.7690 C.ar  135  TRP135      0.0191
     72  CZ3       16.6060    9.3940  204.0470 C.ar  135  TRP135      0.0001
     73  CH2       17.4180    8.6370  204.8560 C.ar  135  TRP135      0.0015
     74  N         24.4210   10.5820  204.1550 N.3   167  ASN167     -0.1240
     75  CA        25.3230    9.4520  204.2790 C.3   167  ASN167      0.1653
     76  C         26.7630    9.9600  204.4330 C.2   167  ASN167      0.2266
     77  O         27.1470   10.9670  203.8230 O.2   167  ASN167     -0.2867
     78  CB        25.2280    8.6240  203.0150 C.3   167  ASN167      0.1155
     79  CG        23.8110    8.1490  202.7190 C.2   167  ASN167      0.2627
     80  OD1       23.0260    7.9120  203.6250 O.2   167  ASN167     -0.2716
     81  ND2       23.4780    8.0820  201.4560 N.am  167  ASN167     -0.0877
     82  N         28.6870    6.9230  193.1050 N.3   176  ASP176     -0.1239
     83  CA        27.6620    5.9650  192.7310 C.3   176  ASP176      0.1674
     84  C         27.2180    6.3340  191.3240 C.2   176  ASP176      0.2266
     85  O         26.5870    7.3470  191.1380 O.2   176  ASP176     -0.2867
     86  CB        26.4830    5.9840  193.7270 C.3   176  ASP176      0.1410
     87  CG        25.4540    4.9220  193.4620 C.2   176  ASP176      0.3668
     88  OD1       25.4130    4.4410  192.3310 O.co2 176  ASP176     -0.2456
     89  OD2       24.6910    4.5570  194.4250 O.co2 176  ASP176     -0.2456
     90  N         22.9460    6.5320  190.4380 N.3   179  ASP179     -0.1239
     91  CA        22.1760    7.7530  190.6150 C.3   179  ASP179      0.1674
     92  C         22.9900    9.0290  190.4780 C.2   179  ASP179      0.2266
     93  O         22.4660   10.1180  190.5930 O.2   179  ASP179     -0.2867
     94  CB        21.3890    7.7590  191.9390 C.3   179  ASP179      0.1410
     95  CG        22.2720    7.7330  193.1480 C.2   179  ASP179      0.3668
     96  OD1       23.5320    7.7020  193.0340 O.co2 179  ASP179     -0.2456
     97  OD2       21.7300    7.7130  194.2740 O.co2 179  ASP179     -0.2456
     98  N         25.7720   10.2920  192.2950 N.3   181  SER181     -0.1217
     99  CA        25.9600   10.9490  193.5820 C.3   181  SER181      0.1889
    100  C         27.2840   10.4850  194.1620 C.2   181  SER181      0.2288
    101  O         27.8210    9.4210  193.7990 O.2   181  SER181     -0.2866
    102  CB        24.8110   10.5770  194.5430 C.3   181  SER181      0.2089
    103  OG        24.7540    9.2130  194.8350 O.3   181  SER181     -0.2183
    104  N         29.3670    9.8790  198.0200 N.3   183  THR183     -0.1218
    105  CA        29.3630    9.7950  199.4750 C.3   183  THR183      0.1862
    106  C         30.6990   10.3300  199.9670 C.2   183  THR183      0.2287
    107  O         31.7430    9.7810  199.5650 O.2   183  THR183     -0.2866
    108  CB        29.1190    8.3660  200.0340 C.3   183  THR183      0.1770
    109  OG1       27.9150    7.7840  199.4750 O.3   183  THR183     -0.2211
    110  CG2       28.9810    8.3980  201.5350 C.3   183  THR183      0.0375
    111  N         19.5170    1.8930  211.9050 N.3   209  PHE209     -0.1241
    112  CA        19.6680    1.4870  210.5150 C.3   209  PHE209      0.1605
    113  C         20.5070    0.2130  210.4370 C.2   209  PHE209      0.2264
    114  O         21.2740   -0.1290  211.3550 O.2   209  PHE209     -0.2867
    115  CB        20.4270    2.5810  209.7230 C.3   209  PHE209      0.0534
    116  CG        19.5450    3.6990  209.1440 C.ar  209  PHE209     -0.0203
    117  CD1       18.3070    4.0950  209.6920 C.ar  209  PHE209     -0.0042
    118  CD2       19.9830    4.3630  207.9940 C.ar  209  PHE209     -0.0042
    119  CE1       17.5370    5.1060  209.1020 C.ar  209  PHE209     -0.0003
    120  CE2       19.2050    5.3820  207.4040 C.ar  209  PHE209     -0.0003
    121  CZ        17.9810    5.7370  207.9560 C.ar  209  PHE209     -0.0000
    122  N         24.7180   -2.9180  207.4580 N.3   212  GLN212     -0.1231
    123  CA        25.2280   -2.8660  206.0890 C.3   212  GLN212      0.1698
    124  C         25.1210   -1.4930  205.4380 C.2   212  GLN212      0.2592
    125  O         25.7120   -1.2730  204.3930 O.2   212  GLN212     -0.2718
    126  CB        24.5280   -3.8540  205.2020 C.3   212  GLN212      0.0381
    127  CG        24.6520   -5.2980  205.6350 C.3   212  GLN212      0.0905
    128  CD        23.5540   -5.8260  206.5480 C.2   212  GLN212      0.2608
    129  OE1       22.8690   -5.0910  207.2790 O.2   212  GLN212     -0.2717
    130  NE2       23.3250   -7.1620  206.4750 N.am  212  GLN212     -0.0878
    131  N         24.2740   -0.5990  205.9880 N.am  213  CYS213     -0.1956
    132  CA        24.1300    0.7100  205.3790 C.3   213  CYS213      0.1843
    133  C         25.3160    1.6090  205.7100 C.2   213  CYS213      0.2625
    134  O         25.8920    1.5940  206.7900 O.2   213  CYS213     -0.2714
    135  CB        22.7850    1.3300  205.7810 C.3   213  CYS213      0.0997
    136  SG        21.3570    0.5380  205.0560 S.3   213  CYS213     -0.0797
    137  N         25.6200    2.4920  204.7680 N.am  214  ILE214     -0.1977
    138  CA        26.5070    3.6180  205.0100 C.3   214  ILE214      0.1596
    139  C         25.9740    4.3690  206.2280 C.2   214  ILE214      0.2287
    140  O         24.7540    4.6440  206.2780 O.2   214  ILE214     -0.2864
    141  CB        26.6560    4.5000  203.7880 C.3   214  ILE214      0.0276
    142  CG1       27.1290    3.6840  202.5510 C.3   214  ILE214      0.0022
    143  CG2       27.5960    5.6160  204.1230 C.3   214  ILE214      0.0022
    144  CD1       27.3510    4.5540  201.3240 C.3   214  ILE214      0.0001
    145  N         24.7060    7.3230  208.5780 N.3   216  VAL216     -0.1245
    146  CA        23.9980    8.5660  208.3100 C.3   216  VAL216      0.1561
    147  C         24.1810    9.4750  209.4990 C.2   216  VAL216      0.2260
    148  O         24.0790    9.0210  210.6420 O.2   216  VAL216     -0.2867
    149  CB        22.4930    8.2920  208.0590 C.3   216  VAL216      0.0252
    150  CG1       21.6590    9.5680  207.9250 C.3   216  VAL216      0.0019
    151  CG2       22.3600    7.4680  206.7950 C.3   216  VAL216      0.0019
@<TRIPOS>BOND
     1     3     4    2
     2     3     2    1
     3     1     2    1
     4     2     5    1
     5     5     6    1
     6    90    91    1
     7    92    93    2
     8    92    91    1
     9    91    94    1
    10     6     8   ar
    11     6     7   ar
    12     8    10   ar
    13    85    84    2
    14    84    83    1
    15    94    95    1
    16     7     9   ar
    17    10    11   ar
    18    98    99    1
    19    88    87   ar
    20    83    82    1
    21    83    86    1
    22    96    95   ar
    23    95    97   ar
    24    11     9   ar
    25    11    12    1
    26    87    86    1
    27    87    89   ar
    28    99   100    1
    29    99   102    1
    30   101   100    2
    31   102   103    1
    32    20    19    1
    33    39    38    2
    34    40    38   am
    35    38    37    1
    36    19    18    1
    37    13    14    1
    38    30    31    1
    39    30    29    1
    40    31    32    2
    41    31    33   am
    42    37    34    1
    43    33    34    1
    44    14    15    1
    45    14    17    1
    46    29    23   am
    47   104   105    1
    48    34    35    1
    49    18    17    1
    50    15    16    2
    51    15    21   am
    52    63    62    2
    53    21    22    1
    54    23    24    2
    55    23    22    1
    56   105   106    1
    57   105   108    1
    58   109   108    1
    59    35    36    2
    60    35    41   am
    61   107   106    2
    62    62    61    1
    63    22    25    1
    64   108   110    1
    65    41    42    1
    66    50    48   ar
    67    50    51   ar
    68    48    46   ar
    69    25    26    1
    70    51    49   ar
    71    61    64    1
    72    61    60    1
    73    64    65    1
    74   144   142    1
    75    81    79   am
    76    42    45    1
    77    42    43    1
    78    46    45    1
    79    46    47   ar
    80    26    27    1
    81    49    47   ar
    82    65    66   ar
    83    65    67   ar
    84    43    44    2
    85    66    68   ar
    86   142   141    1
    87    79    78    1
    88    79    80    2
    89    27    28    1
    90    67    70   ar
    91    67    69   ar
    92    78    75    1
    93    70    72   ar
    94    68    69   ar
    95    69    71   ar
    96   141   143    1
    97   141   138    1
    98    77    76    2
    99    72    73   ar
   100    74    75    1
   101    75    76    1
   102   125   124    2
   103   137   138    1
   104   137   133   am
   105    71    73   ar
   106   138   139    1
   107   136   135    1
   108   126   127    1
   109   126   123    1
   110   132   133    1
   111   132   135    1
   112   132   131    1
   113   124   131   am
   114   124   123    1
   115   127   128    1
   116   133   134    2
   117    58    57    1
   118   123   122    1
   119    52    53    1
   120   139   140    2
   121    57    56    1
   122    57    59    1
   123    56    53    1
   124   130   128   am
   125   128   129    2
   126   151   149    1
   127    53    54    1
   128    54    55    2
   129   120   121   ar
   130   120   118   ar
   131   150   149    1
   132   121   119   ar
   133   118   116   ar
   134   149   146    1
   135   146   145    1
   136   146   147    1
   137   119   117   ar
   138   116   117   ar
   139   116   115    1
   140   147   148    2
   141   115   112    1
   142   113   112    1
   143   113   114    2
   144   112   111    1
