@<TRIPOS>MOLECULE
tmp/6dubA01.pdb
 163 159 0 0 0
SMALL
GASTEIGER

@<TRIPOS>ATOM
      1  N         25.8700   16.0610  186.9400 N.3    13  TYR13      -0.1241
      2  CA        24.5590   16.6420  187.1030 C.3    13  TYR13       0.1605
      3  C         23.5610   16.0560  186.1040 C.2    13  TYR13       0.2264
      4  O         22.4030   15.7690  186.4480 O.2    13  TYR13      -0.2867
      5  CB        24.6130   18.1470  187.0250 C.3    13  TYR13       0.0534
      6  CG        25.2740   18.7430  188.2210 C.ar   13  TYR13      -0.0201
      7  CD1       24.7320   18.5580  189.5060 C.ar   13  TYR13      -0.0009
      8  CD2       26.4100   19.4980  188.1390 C.ar   13  TYR13      -0.0009
      9  CE1       25.3150   19.1280  190.6290 C.ar   13  TYR13       0.0417
     10  CE2       27.0000   20.0690  189.2560 C.ar   13  TYR13       0.0417
     11  CZ        26.4730   19.8770  190.5140 C.ar   13  TYR13       0.1957
     12  OH        27.0580   20.4180  191.6330 O.3    13  TYR13      -0.2866
     13  N         22.2790   12.5930  187.0950 N.3    16  ALA16      -0.1245
     14  CA        21.4000   12.6020  188.2590 C.3    16  ALA16       0.1562
     15  C         19.9650   12.9760  187.8220 C.2    16  ALA16       0.2260
     16  O         18.9850   12.3710  188.2780 O.2    16  ALA16      -0.2867
     17  CB        21.9090   13.5190  189.3310 C.3    16  ALA16       0.0290
     18  N         16.4700   10.7470  188.3420 N.3    20  TYR20      -0.1241
     19  CA        15.2500   11.1350  189.0170 C.3    20  TYR20       0.1605
     20  C         14.0570   11.2400  188.0690 C.2    20  TYR20       0.2264
     21  O         12.9230   11.1470  188.5280 O.2    20  TYR20      -0.2867
     22  CB        15.4490   12.4290  189.8420 C.3    20  TYR20       0.0534
     23  CG        16.2970   12.1160  191.0640 C.ar   20  TYR20      -0.0201
     24  CD1       15.7760   11.3670  192.1310 C.ar   20  TYR20      -0.0009
     25  CD2       17.6480   12.4840  191.1140 C.ar   20  TYR20      -0.0009
     26  CE1       16.5800   11.0300  193.2240 C.ar   20  TYR20       0.0417
     27  CE2       18.4240   12.1860  192.1790 C.ar   20  TYR20       0.0417
     28  CZ        17.9370   11.4560  193.2060 C.ar   20  TYR20       0.1957
     29  OH        18.7570   11.0860  194.2610 O.3    20  TYR20      -0.2866
     30  N         11.3280    8.2400  197.0030 N.3    30  MET30      -0.1245
     31  CA        12.2200    9.1100  197.7420 C.3    30  MET30       0.1570
     32  C         13.2800    8.3580  198.5090 C.2    30  MET30       0.2261
     33  O         14.4390    8.7830  198.6280 O.2    30  MET30      -0.2867
     34  CB        11.4470   10.0460  198.6990 C.3    30  MET30       0.0387
     35  CG        10.4030   10.9710  198.0660 C.3    30  MET30       0.0595
     36  SD        11.0490   12.1090  196.8300 S.3    30  MET30      -0.1393
     37  CE        10.7490   11.2380  195.2820 C.3    30  MET30       0.0692
     38  N         16.3290   19.9290  198.3090 N.3    68  GLY68      -0.1225
     39  CA        16.2630   18.6260  197.7130 C.3    68  GLY68       0.1811
     40  C         15.0040   17.9270  198.2490 C.2    68  GLY68       0.2280
     41  O         15.0410   16.7330  198.6390 O.2    68  GLY68      -0.2866
     42  N         12.2970   16.6900  197.1320 N.3    70  GLY70      -0.1225
     43  CA        11.4660   15.7040  196.4700 C.3    70  GLY70       0.1811
     44  C         10.0030   16.1220  196.6490 C.2    70  GLY70       0.2280
     45  O          9.6460   17.3060  196.5930 O.2    70  GLY70      -0.2866
     46  N         13.5750   21.9670  194.8880 N.3    90  ASP90      -0.1225
     47  CA        14.0100   20.7430  194.2160 C.3    90  ASP90       0.1805
     48  C         14.2050   21.0000  192.7430 C.2    90  ASP90       0.2598
     49  O         13.5240   21.8750  192.2040 O.2    90  ASP90      -0.2718
     50  CB        12.9960   19.5890  194.4050 C.3    90  ASP90       0.1424
     51  CG        13.6310   18.2640  194.2020 C.2    90  ASP90       0.3668
     52  OD1       13.6970   17.7600  193.0380 O.co2  90  ASP90      -0.2456
     53  OD2       14.0570   17.6860  195.2120 O.co2  90  ASP90      -0.2456
     54  N         15.0980   20.2670  192.0940 N.am   91  MET91      -0.1965
     55  CA        15.2570   20.4370  190.6520 C.3    91  MET91       0.1736
     56  C         14.1450   19.8300  189.8280 C.2    91  MET91       0.2616
     57  O         14.0260   20.2010  188.6410 O.2    91  MET91      -0.2715
     58  CB        16.6110   19.9190  190.1860 C.3    91  MET91       0.0427
     59  CG        16.7190   18.4410  190.2060 C.3    91  MET91       0.0599
     60  SD        18.3320   17.9280  189.6830 S.3    91  MET91      -0.1393
     61  CE        18.1190   16.2120  189.7840 C.3    91  MET91       0.0692
     62  N         13.3810   18.8960  190.3840 N.am   92  MET92      -0.1977
     63  CA        12.3850   18.1590  189.5840 C.3    92  MET92       0.1605
     64  C         11.0220   18.7830  189.6920 C.2    92  MET92       0.2287
     65  O         10.3560   18.7030  190.7210 O.2    92  MET92      -0.2864
     66  CB        12.3260   16.7080  190.0260 C.3    92  MET92       0.0413
     67  CG        13.6650   15.9780  189.8820 C.3    92  MET92       0.0598
     68  SD        14.3870   15.9030  188.2520 S.3    92  MET92      -0.1393
     69  CE        13.0850   14.9930  187.4130 C.3    92  MET92       0.0692
     70  N          8.3760   16.2960  190.9510 N.3    95  PHE95      -0.1241
     71  CA         8.2420   16.0600  192.3790 C.3    95  PHE95       0.1605
     72  C          7.5460   17.2090  193.0310 C.2    95  PHE95       0.2264
     73  O          6.7500   17.0070  193.9650 O.2    95  PHE95      -0.2867
     74  CB         9.5860   15.7900  193.0440 C.3    95  PHE95       0.0534
     75  CG        10.3140   14.5740  192.5510 C.ar   95  PHE95      -0.0203
     76  CD1        9.6690   13.4810  192.0030 C.ar   95  PHE95      -0.0042
     77  CD2       11.7010   14.4850  192.7190 C.ar   95  PHE95      -0.0042
     78  CE1       10.3780   12.3750  191.6020 C.ar   95  PHE95      -0.0003
     79  CE2       12.4240   13.3760  192.3410 C.ar   95  PHE95      -0.0003
     80  CZ        11.7650   12.2980  191.7780 C.ar   95  PHE95      -0.0000
     81  N         14.5360   24.6630  191.2710 N.3   116  TYR116     -0.1227
     82  CA        15.9120   24.9970  190.9640 C.3   116  TYR116      0.1736
     83  C         16.8140   23.8440  191.3300 C.2   116  TYR116      0.2596
     84  O         16.5950   23.1540  192.3170 O.2   116  TYR116     -0.2718
     85  CB        16.4010   26.2420  191.7520 C.3   116  TYR116      0.0548
     86  CG        15.7320   27.5180  191.4090 C.ar  116  TYR116     -0.0200
     87  CD1       14.5370   27.8750  192.0180 C.ar  116  TYR116     -0.0009
     88  CD2       16.2660   28.3970  190.4820 C.ar  116  TYR116     -0.0009
     89  CE1       13.8700   29.0590  191.6940 C.ar  116  TYR116      0.0417
     90  CE2       15.6120   29.5870  190.1650 C.ar  116  TYR116      0.0417
     91  CZ        14.4080   29.8950  190.7670 C.ar  116  TYR116      0.1957
     92  OH        13.7780   31.0940  190.4410 O.3   116  TYR116     -0.2866
     93  N         17.8980   23.7000  190.5760 N.am  117  SER117     -0.1938
     94  CA        19.0390   22.9370  191.0860 C.3   117  SER117      0.2055
     95  C         19.7350   23.7460  192.1600 C.2   117  SER117      0.2643
     96  O         19.8740   24.9810  192.0720 O.2   117  SER117     -0.2714
     97  CB        20.0000   22.6030  189.9600 C.3   117  SER117      0.2130
     98  OG        19.4550   21.6790  189.0350 O.3   117  SER117     -0.2179
     99  N         20.2000   23.0670  193.2210 N.am  118  LEU118     -0.1963
    100  CA        20.7230   23.7840  194.3720 C.3   118  LEU118      0.1728
    101  C         21.9290   24.6120  194.0110 C.2   118  LEU118      0.2616
    102  O         22.1430   25.7020  194.5520 O.2   118  LEU118     -0.2715
    103  CB        21.0490   22.9090  195.5620 C.3   118  LEU118      0.0311
    104  CG        19.8620   22.1200  196.1180 C.3   118  LEU118      0.0022
    105  CD1       20.3460   21.3410  197.3300 C.3   118  LEU118      0.0001
    106  CD2       18.6560   22.9300  196.4310 C.3   118  LEU118      0.0001
    107  N         22.7650   24.1110  193.0900 N.am  119  GLN119     -0.1977
    108  CA        23.9640   24.8390  192.6700 C.3   119  GLN119      0.1601
    109  C         23.6220   26.1160  191.9060 C.2   119  GLN119      0.2287
    110  O         24.5290   26.9290  191.6300 O.2   119  GLN119     -0.2864
    111  CB        24.9570   23.9060  191.9400 C.3   119  GLN119      0.0394
    112  CG        24.5490   23.4770  190.5410 C.3   119  GLN119      0.0908
    113  CD        23.6130   22.2970  190.4300 C.2   119  GLN119      0.2608
    114  OE1       22.9170   21.9020  191.4020 O.2   119  GLN119     -0.2717
    115  NE2       23.4950   21.7690  189.2150 N.am  119  GLN119     -0.0878
    116  N         18.6610   17.3140  203.2330 N.3   134  GLN134     -0.1231
    117  CA        18.7580   15.8630  203.4920 C.3   134  GLN134      0.1698
    118  C         18.8350   15.0370  202.2010 C.2   134  GLN134      0.2592
    119  O         17.9700   15.1370  201.3240 O.2   134  GLN134     -0.2718
    120  CB        17.5410   15.3900  204.2890 C.3   134  GLN134      0.0381
    121  CG        17.5300   13.8770  204.4640 C.3   134  GLN134      0.0905
    122  CD        16.7870   13.4190  205.6750 C.2   134  GLN134      0.2608
    123  OE1       16.2350   14.1840  206.4730 O.2   134  GLN134     -0.2717
    124  NE2       16.7680   12.0680  205.8620 N.am  134  GLN134     -0.0878
    125  N         19.8540   14.1950  202.1630 N.am  135  TRP135     -0.1962
    126  CA        20.0280   13.2740  201.0650 C.3   135  TRP135      0.1771
    127  C         20.0970   13.9760  199.6950 C.2   135  TRP135      0.2619
    128  O         19.6820   13.4070  198.6710 O.2   135  TRP135     -0.2715
    129  CB        19.0520   12.1000  201.1070 C.3   135  TRP135      0.0590
    130  CG        19.4430   11.0380  202.1300 C.ar  135  TRP135      0.0006
    131  CD1       20.6950   10.6160  202.4320 C.ar  135  TRP135      0.0946
    132  CD2       18.5460   10.3080  202.9710 C.ar  135  TRP135      0.0152
    133  NE1       20.6430    9.6830  203.4240 N.ar  135  TRP135     -0.2442
    134  CE2       19.3310    9.4730  203.7870 C.ar  135  TRP135      0.0810
    135  CE3       17.1540   10.2860  203.1200 C.ar  135  TRP135      0.0012
    136  CZ2       18.7880    8.6460  204.7690 C.ar  135  TRP135      0.0191
    137  CZ3       16.6060    9.3940  204.0470 C.ar  135  TRP135      0.0001
    138  CH2       17.4180    8.6370  204.8560 C.ar  135  TRP135      0.0015
    139  N         20.6890   15.1790  199.6730 N.am  136  VAL136     -0.1977
    140  CA        20.9530   15.8910  198.4610 C.3   136  VAL136      0.1596
    141  C         22.3800   16.4410  198.3830 C.2   136  VAL136      0.2287
    142  O         22.8430   16.6990  197.2620 O.2   136  VAL136     -0.2864
    143  CB        19.8720   16.9530  198.1900 C.3   136  VAL136      0.0276
    144  CG1       19.9590   18.0670  199.2440 C.3   136  VAL136      0.0022
    145  CG2       19.9740   17.4870  196.7610 C.3   136  VAL136      0.0022
    146  N         24.7220   15.0190  195.8780 N.3   139  HIS139     -0.1226
    147  CA        24.4740   15.3480  194.4940 C.3   139  HIS139      0.1752
    148  C         25.1620   16.6210  194.0400 C.2   139  HIS139      0.2595
    149  O         25.0860   16.9450  192.8410 O.2   139  HIS139     -0.2718
    150  CB        22.9770   15.4260  194.2020 C.3   139  HIS139      0.0759
    151  CG        22.3500   14.0910  194.0030 C.ar  139  HIS139      0.0818
    152  ND1       22.6810   13.2620  192.9540 N.ar  139  HIS139     -0.2268
    153  CD2       21.3770   13.4440  194.6910 C.ar  139  HIS139      0.1154
    154  CE1       21.9570   12.1440  193.0270 C.ar  139  HIS139      0.1986
    155  NE2       21.1540   12.2240  194.0860 N.ar  139  HIS139     -0.2212
    156  N         25.8320   17.3570  194.9250 N.am  140  LEU140     -0.1980
    157  CA        26.6000   18.5380  194.5260 C.3   140  LEU140      0.1596
    158  C         28.0700   18.2170  194.5020 C.2   140  LEU140      0.2287
    159  O         28.5640   17.4650  195.3220 O.2   140  LEU140     -0.2864
    160  CB        26.3000   19.7030  195.4790 C.3   140  LEU140      0.0297
    161  CG        24.8240   20.0560  195.6930 C.3   140  LEU140      0.0022
    162  CD1       24.7530   21.2250  196.6780 C.3   140  LEU140      0.0001
    163  CD2       24.1660   20.2710  194.3340 C.3   140  LEU140      0.0001
@<TRIPOS>BOND
     1     3     4    2
     2     3     2    1
     3     1     2    1
     4     5     2    1
     5     5     6    1
     6    13    14    1
     7    69    68    1
     8    15    14    1
     9    15    16    2
    10    20    21    2
    11    20    19    1
    12     8     6   ar
    13     8    10   ar
    14     6     7   ar
    15    68    67    1
    16    14    17    1
    17    18    19    1
    18    57    56    2
    19    19    22    1
    20    98    97    1
    21   115   113   am
    22    10    11   ar
    23     7     9   ar
    24    63    64    1
    25    63    66    1
    26    63    62    1
    27    60    61    1
    28    60    59    1
    29    64    65    2
    30    56    62   am
    31    56    55    1
    32    22    23    1
    33    67    66    1
    34    97    94    1
    35    90    88   ar
    36    90    91   ar
    37    58    59    1
    38    58    55    1
    39   113   112    1
    40   113   114    2
    41    92    91    1
    42    88    86   ar
    43    11     9   ar
    44    11    12    1
    45   112   111    1
    46    93    94    1
    47    93    83   am
    48    55    54    1
    49    91    89   ar
    50    70    71    1
    51    82    81    1
    52    82    83    1
    53    82    85    1
    54    23    25   ar
    55    23    24   ar
    56    94    95    1
    57    25    27   ar
    58    83    84    2
    59    86    85    1
    60    86    87   ar
    61    78    80   ar
    62    78    76   ar
    63   110   109    2
    64    89    87   ar
    65    80    79   ar
    66   109   108    1
    67   111   108    1
    68    76    75   ar
    69    96    95    2
    70    54    48   am
    71    24    26   ar
    72    95    99   am
    73    27    28   ar
    74    49    48    2
    75    79    77   ar
    76    71    72    1
    77    71    74    1
    78    75    77   ar
    79    75    74    1
    80   108   107    1
    81    48    47    1
    82   149   148    2
    83   152   154   ar
    84   152   151   ar
    85   154   155   ar
    86    72    73    2
    87    52    51   ar
    88   107   101   am
    89    28    26   ar
    90    28    29    1
    91    99   100    1
    92   151   150    1
    93   151   153   ar
    94   101   100    1
    95   101   102    2
    96   148   147    1
    97   148   156   am
    98   155   153   ar
    99   150   147    1
   100    51    50    1
   101    51    53   ar
   102    47    50    1
   103    47    46    1
   104   163   161    1
   105   100   103    1
   106   147   146    1
   107   158   157    1
   108   158   159    2
   109   157   156    1
   110   157   160    1
   111    37    36    1
   112   160   161    1
   113   103   104    1
   114   161   162    1
   115   104   106    1
   116   104   105    1
   117    43    44    1
   118    43    42    1
   119    45    44    2
   120   145   143    1
   121    36    35    1
   122    30    31    1
   123   142   141    2
   124    39    40    1
   125    39    38    1
   126    31    32    1
   127    31    34    1
   128    35    34    1
   129   143   140    1
   130   143   144    1
   131    40    41    2
   132   141   140    1
   133   140   139    1
   134    32    33    2
   135   128   127    2
   136   139   127   am
   137   127   126    1
   138   126   129    1
   139   126   125    1
   140   129   130    1
   141   119   118    2
   142   130   131   ar
   143   130   132   ar
   144   125   118   am
   145   118   117    1
   146   131   133   ar
   147   132   135   ar
   148   132   134   ar
   149   135   137   ar
   150   116   117    1
   151   133   134   ar
   152   117   120    1
   153   134   136   ar
   154   137   138   ar
   155   120   121    1
   156   121   122    1
   157   136   138   ar
   158   122   124   am
   159   122   123    2
