@<TRIPOS>MOLECULE
tmp/6dudA00.pdb
 146 137 0 0 0
SMALL
GASTEIGER

@<TRIPOS>ATOM
      1  N         -2.9530   19.1840    0.7320 N.3    15  LEU15      -0.1231
      2  CA        -2.2490   19.1790   -0.5720 C.3    15  LEU15       0.1693
      3  C         -3.2090   19.5010   -1.7260 C.2    15  LEU15       0.2593
      4  O         -2.8120   20.1270   -2.7130 O.2    15  LEU15      -0.2718
      5  CB        -1.5700   17.8230   -0.8380 C.3    15  LEU15       0.0284
      6  CG        -0.4560   17.4290    0.1300 C.3    15  LEU15       0.0019
      7  CD1       -0.0450   15.9760   -0.0920 C.3    15  LEU15       0.0001
      8  CD2        0.7430   18.3710    0.0160 C.3    15  LEU15       0.0001
      9  N         -4.4370   19.0110   -1.6310 N.am   16  GLY16      -0.1942
     10  CA        -5.4260   19.2280   -2.6770 C.3    16  GLY16       0.2014
     11  C         -6.8400   18.9490   -2.2500 C.2    16  GLY16       0.2638
     12  O         -7.0740   18.3430   -1.2030 O.2    16  GLY16      -0.2714
     13  N         -7.7960   19.4300   -3.0520 N.am   17  LYS17      -0.1977
     14  CA        -9.2200   19.2380   -2.7850 C.3    17  LYS17       0.1596
     15  C         -9.9830   19.2500   -4.1040 C.2    17  LYS17       0.2287
     16  O         -9.4670   19.7460   -5.1040 O.2    17  LYS17      -0.2864
     17  CB        -9.7620   20.3040   -1.7920 C.3    17  LYS17       0.0298
     18  CG        -9.6480   21.7480   -2.2810 C.3    17  LYS17       0.0038
     19  CD       -10.3500   22.7290   -1.3400 C.3    17  LYS17       0.0206
     20  CE       -10.0860   24.1760   -1.6990 C.3    17  LYS17       0.1093
     21  NZ       -10.6010   24.5380   -3.0530 N.3    17  LYS17      -0.1314
     22  N         -6.7850   15.5810   -0.4840 N.3    23  VAL23      -0.1245
     23  CA        -5.4920   14.9280   -0.2710 C.3    23  VAL23       0.1561
     24  C         -4.7380   15.7460    0.7900 C.2    23  VAL23       0.2260
     25  O         -4.5650   16.9570    0.6190 O.2    23  VAL23      -0.2867
     26  CB        -4.6240   14.7710   -1.5490 C.3    23  VAL23       0.0252
     27  CG1       -3.3720   13.9450   -1.2360 C.3    23  VAL23       0.0019
     28  CG2       -5.4150   14.1490   -2.7000 C.3    23  VAL23       0.0019
     29  N          1.0650   10.9850    1.4340 N.3    40  ALA40      -0.1245
     30  CA        -0.0630   11.7610    0.8740 C.3    40  ALA40       0.1562
     31  C         -1.2980   10.8810    1.0750 C.2    40  ALA40       0.2260
     32  O         -1.2890    9.6910    0.7250 O.2    40  ALA40      -0.2867
     33  CB         0.1570   12.0560   -0.6000 C.3    40  ALA40       0.0290
     34  N          2.3860    7.3640   -9.7080 N.3    69  VAL69      -0.1245
     35  CA         2.4980    7.5850   -8.2510 C.3    69  VAL69       0.1561
     36  C          2.2580    6.2430   -7.5120 C.2    69  VAL69       0.2260
     37  O          1.3180    5.5090   -7.8180 O.2    69  VAL69      -0.2867
     38  CB         1.5780    8.7440   -7.7330 C.3    69  VAL69       0.0252
     39  CG1        0.1030    8.3970   -7.8500 C.3    69  VAL69       0.0019
     40  CG2        1.9370    9.1630   -6.3030 C.3    69  VAL69       0.0019
     41  N         -0.6240    7.1490   -0.2300 N.3    81  MET81      -0.1230
     42  CA         0.2540    7.1670   -1.4100 C.3    81  MET81       0.1702
     43  C          1.5860    7.7930   -0.9870 C.2    81  MET81       0.2592
     44  O          1.6450    8.4800    0.0440 O.2    81  MET81      -0.2718
     45  CB        -0.3640    8.0340   -2.5290 C.3    81  MET81       0.0401
     46  CG        -1.6630    7.5170   -3.0360 C.3    81  MET81       0.0596
     47  SD        -2.5240    8.7480   -4.0610 S.3    81  MET81      -0.1393
     48  CE        -3.0380    9.9600   -2.8210 C.3    81  MET81       0.0692
     49  N          2.6360    7.5750   -1.7810 N.am   82  GLU82      -0.1966
     50  CA         3.9180    8.2320   -1.5050 C.3    82  GLU82       0.1733
     51  C          3.7430    9.7420   -1.6690 C.2    82  GLU82       0.2616
     52  O          2.9520   10.2060   -2.5010 O.2    82  GLU82      -0.2715
     53  CB         5.0180    7.7280   -2.4580 C.3    82  GLU82       0.0429
     54  CG         4.7180    7.9850   -3.9320 C.3    82  GLU82       0.1163
     55  CD         5.8300    7.5720   -4.8760 C.2    82  GLU82       0.3649
     56  OE1        6.9750    7.3890   -4.4020 O.co2  82  GLU82      -0.2457
     57  OE2        5.5530    7.4320   -6.0880 O.co2  82  GLU82      -0.2457
     58  N          4.4760   10.4990   -0.8740 N.am   83  TYR83      -0.1960
     59  CA         4.4860   11.9550   -0.9270 C.3    83  TYR83       0.1771
     60  C          5.7170   12.3860   -1.7270 C.2    83  TYR83       0.2619
     61  O          6.8350   11.9220   -1.4400 O.2    83  TYR83      -0.2715
     62  CB         4.5430   12.5540    0.4930 C.3    83  TYR83       0.0574
     63  CG         4.7030   14.0630    0.4780 C.ar   83  TYR83      -0.0198
     64  CD1        3.7670   14.8780   -0.1650 C.ar   83  TYR83      -0.0009
     65  CD2        5.7750   14.6780    1.1240 C.ar   83  TYR83      -0.0009
     66  CE1        3.9080   16.2640   -0.1920 C.ar   83  TYR83       0.0417
     67  CE2        5.9010   16.0730    1.1420 C.ar   83  TYR83       0.0417
     68  CZ         4.9760   16.8580    0.4660 C.ar   83  TYR83       0.1957
     69  OH         5.1000   18.2300    0.4110 O.3    83  TYR83      -0.2866
     70  N          5.5090   13.2540   -2.7110 N.am   84  LEU84      -0.1977
     71  CA         6.5910   13.7800   -3.5830 C.3    84  LEU84       0.1596
     72  C          6.7240   15.2660   -3.2170 C.2    84  LEU84       0.2287
     73  O          5.9100   16.0710   -3.6740 O.2    84  LEU84      -0.2864
     74  CB         6.2510   13.5780   -5.0860 C.3    84  LEU84       0.0297
     75  CG         6.7590   12.2040   -5.6510 C.3    84  LEU84       0.0022
     76  CD1        6.2370   11.0410   -4.8730 C.3    84  LEU84       0.0001
     77  CD2        6.3900   12.0070   -7.1380 C.3    84  LEU84       0.0001
     78  N          6.2390   18.3740   -5.4490 N.3    87  GLY87      -0.1210
     79  CA         4.8770   18.6850   -5.8670 C.3    87  GLY87       0.1956
     80  C          4.5910   18.5230   -7.3450 C.2    87  GLY87       0.2612
     81  O          5.2850   17.7820   -8.0450 O.2    87  GLY87      -0.2717
     82  N          3.5050   19.1500   -7.8060 N.am   88  CYS88      -0.1970
     83  CA         3.1070   18.9450   -9.1900 C.3    88  CYS88       0.1712
     84  C          3.9760   19.6640  -10.1900 C.2    88  CYS88       0.2296
     85  O          4.5400   20.7330   -9.9160 O.2    88  CYS88      -0.2864
     86  CB         1.6420   19.2660   -9.4090 C.3    88  CYS88       0.0983
     87  SG         1.2410   21.0190   -9.2050 S.3    88  CYS88      -0.0798
     88  N          3.0700   21.3920  -12.8150 N.3    90  ARG90      -0.1231
     89  CA         2.5740   22.7350  -13.1340 C.3    90  ARG90       0.1694
     90  C          3.3150   23.8380  -12.3490 C.2    90  ARG90       0.2592
     91  O          3.8020   24.8150  -12.9290 O.2    90  ARG90      -0.2718
     92  CB         1.0770   22.8340  -12.8730 C.3    90  ARG90       0.0321
     93  CG         0.5110   24.1940  -13.3040 C.3    90  ARG90       0.0489
     94  CD        -0.9040   24.4090  -12.8230 C.3    90  ARG90       0.2205
     95  NE        -0.9780   24.4640  -11.3670 N.pl3  90  ARG90      -0.0865
     96  CZ        -2.1100   24.3860  -10.6790 C.cat  90  ARG90       0.5346
     97  NH1       -3.2690   24.2370  -11.3120 N.pl3  90  ARG90       0.1354
     98  NH2       -2.0920   24.4400   -9.3520 N.pl3  90  ARG90       0.1354
     99  N          3.4110   23.6620  -11.0420 N.am   91  ASP91      -0.1974
    100  CA         4.0870   24.6360  -10.1800 C.3    91  ASP91       0.1709
    101  C          5.6050   24.5300  -10.2970 C.2    91  ASP91       0.2293
    102  O          6.2840   25.5540  -10.2690 O.2    91  ASP91      -0.2864
    103  CB         3.6090   24.4510   -8.7410 C.3    91  ASP91       0.1436
    104  CG         2.1170   24.6660   -8.5480 C.2    91  ASP91       0.3671
    105  OD1        1.4560   25.2120   -9.4840 O.co2  91  ASP91      -0.2456
    106  OD2        1.6060   24.3120   -7.4640 O.co2  91  ASP91      -0.2456
    107  N         -1.0860   19.7540  -13.5900 N.3   132  ARG132     -0.1231
    108  CA        -1.4100   19.8480  -12.1590 C.3   132  ARG132      0.1694
    109  C         -1.4710   18.4390  -11.5340 C.2   132  ARG132      0.2592
    110  O         -1.2770   18.2740  -10.3240 O.2   132  ARG132     -0.2718
    111  CB        -2.7380   20.6070  -11.9570 C.3   132  ARG132      0.0321
    112  CG        -3.9130   20.0300  -12.7350 C.3   132  ARG132      0.0489
    113  CD        -5.1840   20.8370  -12.5730 C.3   132  ARG132      0.2205
    114  NE        -6.3570   19.9760  -12.7190 N.pl3 132  ARG132     -0.0865
    115  CZ        -7.0470   19.8180  -13.8430 C.cat 132  ARG132      0.5346
    116  NH1       -6.7170   20.4990  -14.9370 N.pl3 132  ARG132      0.1354
    117  NH2       -8.0920   19.0050  -13.8750 N.pl3 132  ARG132      0.1354
    118  N         -1.7240   17.4170  -12.3730 N.am  133  ASN133     -0.1974
    119  CA        -1.8430   16.0250  -11.8980 C.3   133  ASN133      0.1688
    120  C         -0.6220   15.1630  -12.1860 C.2   133  ASN133      0.2292
    121  O         -0.6960   13.9240  -12.0980 O.2   133  ASN133     -0.2864
    122  CB        -3.1060   15.4040  -12.4560 C.3   133  ASN133      0.1181
    123  CG        -4.3650   16.0250  -11.9040 C.2   133  ASN133      0.2629
    124  OD1       -4.3840   16.5580  -10.7940 O.2   133  ASN133     -0.2716
    125  ND2       -5.4320   16.0040  -12.6810 N.am  133  ASN133     -0.0877
    126  N          3.2990   14.5960  -10.9500 N.3   135  LEU135     -0.1245
    127  CA         4.1540   14.9150   -9.8150 C.3   135  LEU135      0.1561
    128  C          5.6210   14.8130  -10.1740 C.2   135  LEU135      0.2260
    129  O          5.9890   14.0340  -11.0490 O.2   135  LEU135     -0.2867
    130  CB         3.8240   13.9750   -8.6450 C.3   135  LEU135      0.0270
    131  CG         2.3960   14.0230   -8.1310 C.3   135  LEU135      0.0019
    132  CD1        2.1970   12.9770   -7.0540 C.3   135  LEU135      0.0001
    133  CD2        1.9950   15.4040   -7.6450 C.3   135  LEU135      0.0001
    134  N         -0.2650   11.1740  -11.4860 N.3   145  ALA145     -0.1231
    135  CA        -1.0410   11.0190  -10.2600 C.3   145  ALA145      0.1694
    136  C         -2.5180   11.3450  -10.5160 C.2   145  ALA145      0.2592
    137  O         -2.9120   11.5660  -11.6720 O.2   145  ALA145     -0.2718
    138  CB        -0.4720   11.9030   -9.1570 C.3   145  ALA145      0.0304
    139  N         -3.3290   11.3410   -9.4270 N.am  146  ASP146     -0.1974
    140  CA        -4.7580   11.6730   -9.3990 C.3   146  ASP146      0.1709
    141  C         -5.6030   10.7980  -10.2980 C.2   146  ASP146      0.2293
    142  O         -6.0010   11.2270  -11.3820 O.2   146  ASP146     -0.2864
    143  CB        -5.0380   13.1540   -9.6720 C.3   146  ASP146      0.1436
    144  CG        -6.4270   13.5490   -9.1610 C.2   146  ASP146      0.3671
    145  OD1       -7.2780   12.6390   -8.9530 O.co2 146  ASP146     -0.2456
    146  OD2       -6.6580   14.7470   -8.9620 O.co2 146  ASP146     -0.2456
@<TRIPOS>BOND
     1   116   115    1
     2   117   115    1
     3   115   114    2
     4   107   108    1
     5    93    92    1
     6    93    94    1
     7    89    92    1
     8    89    88    1
     9    89    90    1
    10    91    90    2
    11    94    95    1
    12   112   113    1
    13   112   111    1
    14   114   113    1
    15   125   123   am
    16   122   123    1
    17   122   119    1
    18   118   119    1
    19   118   109   am
    20    90    99   am
    21   120   121    2
    22   120   119    1
    23   108   111    1
    24   108   109    1
    25   123   124    2
    26   137   136    2
    27   109   110    2
    28   134   135    1
    29   142   141    2
    30    95    96    2
    31    97    96    1
    32   129   128    2
    33    99   100    1
    34   126   127    1
    35    96    98    1
    36   136   135    1
    37   136   139   am
    38   141   140    1
    39   101   102    2
    40   101   100    1
    41   135   138    1
    42    84    85    2
    43    84    83    1
    44   100   103    1
    45   128   127    1
    46   127   130    1
    47    34    35    1
    48   143   140    1
    49   143   144    1
    50   105   104   ar
    51   139   140    1
    52    86    87    1
    53    86    83    1
    54    83    82    1
    55   144   146   ar
    56   144   145   ar
    57   103   104    1
    58   130   131    1
    59   104   106   ar
    60    35    38    1
    61    35    36    1
    62   131   133    1
    63   131   132    1
    64    81    80    2
    65    39    38    1
    66    37    36    2
    67    82    80   am
    68    38    40    1
    69    80    79    1
    70    77    75    1
    71    57    55   ar
    72    79    78    1
    73    75    74    1
    74    75    76    1
    75    16    15    2
    76    74    71    1
    77    55    56   ar
    78    55    54    1
    79    15    14    1
    80    47    46    1
    81    47    48    1
    82    54    53    1
    83    73    72    2
    84    71    72    1
    85    71    70    1
    86    21    20    1
    87    13    14    1
    88    13    11   am
    89    46    45    1
    90    14    17    1
    91     4     3    2
    92    70    60   am
    93    28    26    1
    94    10    11    1
    95    10     9    1
    96    45    42    1
    97    52    51    2
    98    53    50    1
    99    18    17    1
   100    18    19    1
   101    11    12    2
   102    49    50    1
   103    49    43   am
   104    60    61    2
   105    60    59    1
   106     3     9   am
   107     3     2    1
   108    20    19    1
   109    51    50    1
   110    51    58   am
   111    26    27    1
   112    26    23    1
   113    42    43    1
   114    42    41    1
   115    43    44    2
   116    59    58    1
   117    59    62    1
   118     5     2    1
   119     5     6    1
   120    33    30    1
   121     2     1    1
   122    22    23    1
   123    23    24    1
   124    66    64   ar
   125    66    68   ar
   126    64    63   ar
   127     7     6    1
   128     8     6    1
   129    69    68    1
   130    68    67   ar
   131    63    62    1
   132    63    65   ar
   133    25    24    2
   134    32    31    2
   135    30    31    1
   136    30    29    1
   137    65    67   ar
