@<TRIPOS>MOLECULE
tmp/6dueA00.pdb
 179 175 0 0 0
SMALL
GASTEIGER

@<TRIPOS>ATOM
      1  N         26.9720   -5.7580    3.8120 N.3    96  ILE96      -0.1231
      2  CA        26.1550   -4.7460    4.4700 C.3    96  ILE96       0.1692
      3  C         26.9720   -3.6020    5.0570 C.2    96  ILE96       0.2592
      4  O         26.4010   -2.5420    5.3580 O.2    96  ILE96      -0.2718
      5  CB        25.2880   -5.3830    5.5730 C.3    96  ILE96       0.0266
      6  CG1       26.1740   -5.9330    6.6940 C.3    96  ILE96       0.0019
      7  CG2       24.4180   -6.4830    4.9900 C.3    96  ILE96       0.0020
      8  CD1       25.4020   -6.4650    7.8820 C.3    96  ILE96       0.0001
      9  N         28.2770   -3.7780    5.2340 N.am   97  TYR97      -0.1976
     10  CA        29.1090   -2.7680    5.8690 C.3    97  TYR97       0.1639
     11  C         29.7590   -1.8840    4.8130 C.2    97  TYR97       0.2290
     12  O         30.3590   -2.3830    3.8560 O.2    97  TYR97      -0.2864
     13  CB        30.1720   -3.4250    6.7480 C.3    97  TYR97       0.0560
     14  CG        29.6030   -4.4110    7.7410 C.ar   97  TYR97      -0.0198
     15  CD1       28.9080   -3.9750    8.8610 C.ar   97  TYR97      -0.0009
     16  CD2       29.7580   -5.7790    7.5570 C.ar   97  TYR97      -0.0009
     17  CE1       28.3840   -4.8730    9.7710 C.ar   97  TYR97       0.0417
     18  CE2       29.2380   -6.6840    8.4630 C.ar   97  TYR97       0.0417
     19  CZ        28.5520   -6.2250    9.5680 C.ar   97  TYR97       0.1957
     20  OH        28.0310   -7.1220   10.4740 O.3    97  TYR97      -0.2866
     21  N         20.6900   -3.9770    7.9930 N.3   108  ASN108     -0.1226
     22  CA        20.1850   -5.2240    8.5670 C.3   108  ASN108      0.1770
     23  C         19.8970   -6.2500    7.4770 C.2   108  ASN108      0.2439
     24  O         19.0630   -5.9900    6.6000 O.2   108  ASN108     -0.2733
     25  CB        18.9200   -4.9440    9.3750 C.3   108  ASN108      0.1168
     26  CG        18.5180   -6.1090   10.2610 C.2   108  ASN108      0.2627
     27  OD1       18.9020   -7.2560   10.0250 O.2   108  ASN108     -0.2716
     28  ND2       17.7320   -5.8160   11.2920 N.am  108  ASN108     -0.0877
     29  N         20.5500   -7.4180    7.4890 N.am  109  PRO109     -0.2718
     30  CA        20.2180   -8.4540    6.5010 C.3   109  PRO109      0.1535
     31  C         19.0390   -9.3250    6.8990 C.2   109  PRO109      0.2599
     32  O         18.4850  -10.0110    6.0290 O.2   109  PRO109     -0.2715
     33  CB        21.5060   -9.2930    6.4170 C.3   109  PRO109      0.0310
     34  CG        22.5220   -8.5870    7.2950 C.3   109  PRO109      0.0237
     35  CD        21.7360   -7.7830    8.2760 C.3   109  PRO109      0.0939
     36  N         18.6530   -9.3300    8.1780 N.am  110  PHE110     -0.1960
     37  CA        17.5410  -10.1380    8.6840 C.3   110  PHE110      0.1771
     38  C         17.7780  -11.6330    8.4790 C.2   110  PHE110      0.2619
     39  O         16.8300  -12.4080    8.3330 O.2   110  PHE110     -0.2715
     40  CB        16.2070   -9.7140    8.0600 C.3   110  PHE110      0.0574
     41  CG        15.7650   -8.3370    8.4620 C.ar  110  PHE110     -0.0200
     42  CD1       15.2580   -8.1040    9.7290 C.ar  110  PHE110     -0.0042
     43  CD2       15.8600   -7.2750    7.5780 C.ar  110  PHE110     -0.0042
     44  CE1       14.8540   -6.8390   10.1090 C.ar  110  PHE110     -0.0003
     45  CE2       15.4560   -6.0060    7.9510 C.ar  110  PHE110     -0.0003
     46  CZ        14.9520   -5.7890    9.2190 C.ar  110  PHE110     -0.0000
     47  N         19.0460  -12.0390    8.4660 N.am  111  ARG111     -0.1963
     48  CA        19.4470  -13.4400    8.4470 C.3   111  ARG111      0.1729
     49  C         20.9380  -13.5060    8.7330 C.2   111  ARG111      0.2616
     50  O         21.6860  -12.5840    8.3950 O.2   111  ARG111     -0.2715
     51  CB        19.1280  -14.1170    7.1060 C.3   111  ARG111      0.0348
     52  CG        19.9050  -13.5700    5.9200 C.3   111  ARG111      0.0492
     53  CD        19.5800  -14.3390    4.6490 C.3   111  ARG111      0.2205
     54  NE        20.0740  -15.7130    4.6910 N.pl3 111  ARG111     -0.0865
     55  CZ        21.1820  -16.1270    4.0830 C.cat 111  ARG111      0.5346
     56  NH1       21.5550  -17.3950    4.1740 N.pl3 111  ARG111      0.1354
     57  NH2       21.9130  -15.2730    3.3780 N.pl3 111  ARG111      0.1354
     58  N         21.3600  -14.5970    9.3660 N.am  112  ASP112     -0.1957
     59  CA        22.7700  -14.7860    9.6940 C.3   112  ASP112      0.1840
     60  C         23.5380  -15.0640    8.4080 C.2   112  ASP112      0.2621
     61  O         23.4750  -16.1630    7.8540 O.2   112  ASP112     -0.2715
     62  CB        22.9470  -15.9200   10.6970 C.3   112  ASP112      0.1450
     63  CG        24.3790  -16.0420   11.1920 C.2   112  ASP112      0.3671
     64  OD1       25.1770  -15.1110   10.9510 O.co2 112  ASP112     -0.2456
     65  OD2       24.7080  -17.0710   11.8180 O.co2 112  ASP112     -0.2456
     66  N         24.2680  -14.0580    7.9260 N.am  113  LEU113     -0.1977
     67  CA        25.0910  -14.2290    6.7380 C.3   113  LEU113      0.1596
     68  C         26.3360  -15.0640    7.0040 C.2   113  LEU113      0.2287
     69  O         27.0110  -15.4590    6.0480 O.2   113  LEU113     -0.2864
     70  CB        25.4970  -12.8630    6.1820 C.3   113  LEU113      0.0297
     71  CG        24.3580  -11.8940    5.8620 C.3   113  LEU113      0.0022
     72  CD1       24.9090  -10.5980    5.2890 C.3   113  LEU113      0.0001
     73  CD2       23.3630  -12.5290    4.9040 C.3   113  LEU113      0.0001
     74  N         29.0180  -13.9360    8.4610 N.3   115  ASN115     -0.1240
     75  CA        30.1650  -13.0530    8.3120 C.3   115  ASN115      0.1653
     76  C         30.7000  -12.5470    9.6460 C.2   115  ASN115      0.2266
     77  O         31.5650  -11.6640    9.6610 O.2   115  ASN115     -0.2867
     78  CB        29.8070  -11.8710    7.4070 C.3   115  ASN115      0.1155
     79  CG        28.5080  -11.1940    7.8100 C.2   115  ASN115      0.2627
     80  OD1       28.0090  -11.3860    8.9190 O.2   115  ASN115     -0.2716
     81  ND2       27.9540  -10.3940    6.9050 N.am  115  ASN115     -0.0877
     82  N         14.5660    1.3660   15.6280 N.3   163  SER163     -0.1202
     83  CA        14.2370    0.0830   16.2380 C.3   163  SER163      0.2020
     84  C         14.2580   -1.0280   15.1970 C.2   163  SER163      0.2619
     85  O         13.5230   -0.9790   14.2060 O.2   163  SER163     -0.2717
     86  CB        12.8670    0.1600   16.9110 C.3   163  SER163      0.2103
     87  OG        12.6070   -1.0020   17.6820 O.3   163  SER163     -0.2182
     88  N         15.1010   -2.0310   15.4280 N.am  164  GLY164     -0.1942
     89  CA        15.2390   -3.1470   14.5180 C.3   164  GLY164      0.2014
     90  C         16.3250   -3.0000   13.4770 C.2   164  GLY164      0.2639
     91  O         16.3490   -3.7810   12.5190 O.2   164  GLY164     -0.2714
     92  N         17.2250   -2.0280   13.6320 N.am  165  ALA165     -0.1963
     93  CA        18.2710   -1.8130   12.6400 C.3   165  ALA165      0.1728
     94  C         19.4620   -2.7410   12.8440 C.2   165  ALA165      0.2617
     95  O         20.1090   -3.1300   11.8660 O.2   165  ALA165     -0.2715
     96  CB        18.7320   -0.3560   12.6700 C.3   165  ALA165      0.0334
     97  N         19.7710   -3.0990   14.0870 N.am  166  GLY166     -0.1940
     98  CA        20.8790   -3.9950   14.3580 C.3   166  GLY166      0.2014
     99  C         21.8850   -3.4300   15.3390 C.2   166  GLY166      0.2639
    100  O         23.0490   -3.8440   15.3530 O.2   166  GLY166     -0.2714
    101  N         21.4440   -2.4800   16.1670 N.am  167  LYS167     -0.1963
    102  CA        22.3330   -1.8860   17.1620 C.3   167  LYS167      0.1728
    103  C         22.8360   -2.9340   18.1460 C.2   167  LYS167      0.2617
    104  O         24.0400   -3.0300   18.4090 O.2   167  LYS167     -0.2715
    105  CB        21.6100   -0.7590   17.9020 C.3   167  LYS167      0.0311
    106  CG        21.2590    0.4390   17.0360 C.3   167  LYS167      0.0038
    107  CD        20.4520    1.4600   17.8180 C.3   167  LYS167      0.0206
    108  CE        19.1300    0.8730   18.2890 C.3   167  LYS167      0.1093
    109  NZ        18.2520    0.4940   17.1480 N.3   167  LYS167     -0.1314
    110  N         21.9210   -3.7310   18.7040 N.am  168  THR168     -0.1937
    111  CA        22.3100   -4.7300   19.6940 C.3   168  THR168      0.2028
    112  C         23.0840   -5.8750   19.0520 C.2   168  THR168      0.2642
    113  O         24.0540   -6.3780   19.6330 O.2   168  THR168     -0.2714
    114  CB        21.0700   -5.2550   20.4190 C.3   168  THR168      0.1808
    115  OG1       20.4130   -4.1720   21.0900 O.3   168  THR168     -0.2208
    116  CG2       21.4470   -6.3190   21.4380 C.3   168  THR168      0.0379
    117  N         22.6730   -6.3000   17.8540 N.am  169  GLU169     -0.1963
    118  CA        23.3720   -7.3910   17.1810 C.3   169  GLU169      0.1733
    119  C         24.8060   -7.0050   16.8460 C.2   169  GLU169      0.2616
    120  O         25.7230   -7.8230   16.9780 O.2   169  GLU169     -0.2715
    121  CB        22.6140   -7.8030   15.9190 C.3   169  GLU169      0.0429
    122  CG        21.3130   -8.5340   16.2020 C.3   169  GLU169      0.1163
    123  CD        21.5240   -9.8080   17.0000 C.2   169  GLU169      0.3649
    124  OE1       22.4900  -10.5430   16.7040 O.co2 169  GLU169     -0.2457
    125  OE2       20.7300  -10.0710   17.9280 O.co2 169  GLU169     -0.2457
    126  N         25.0210   -5.7590   16.4150 N.am  170  ALA170     -0.1977
    127  CA        26.3820   -5.2800   16.1970 C.3   170  ALA170      0.1597
    128  C         27.1580   -5.2160   17.5060 C.2   170  ALA170      0.2287
    129  O         28.3560   -5.5180   17.5390 O.2   170  ALA170     -0.2864
    130  CB        26.3570   -3.9100   15.5210 C.3   170  ALA170      0.0319
    131  N         28.2870   -8.6340   18.3510 N.3   173  GLN173     -0.1245
    132  CA        29.3600   -9.0500   17.4510 C.3   173  GLN173      0.1566
    133  C         30.6970   -8.4480   17.8640 C.2   173  GLN173      0.2260
    134  O         31.7350   -9.1170   17.7880 O.2   173  GLN173     -0.2867
    135  CB        29.0170   -8.6570   16.0140 C.3   173  GLN173      0.0367
    136  CG        27.8780   -9.4570   15.4060 C.3   173  GLN173      0.0905
    137  CD        27.1560   -8.6990   14.3080 C.2   173  GLN173      0.2608
    138  OE1       27.5430   -7.5870   13.9460 O.2   173  GLN173     -0.2717
    139  NE2       26.0950   -9.2960   13.7770 N.am  173  GLN173     -0.0878
    140  N         10.4470   -4.5240   16.1440 N.3   212  ASN212     -0.1225
    141  CA        11.5730   -5.4230   16.3750 C.3   212  ASN212      0.1785
    142  C         11.1310   -6.5410   17.3070 C.2   212  ASN212      0.2597
    143  O         10.6300   -6.2750   18.4030 O.2   212  ASN212     -0.2718
    144  CB        12.7690   -4.6680   16.9690 C.3   212  ASN212      0.1169
    145  CG        13.9450   -5.5800   17.2780 C.2   212  ASN212      0.2627
    146  OD1       13.9740   -6.7450   16.8750 O.2   212  ASN212     -0.2716
    147  ND2       14.9310   -5.0460   17.9920 N.am  212  ASN212     -0.0877
    148  N         11.3310   -7.7880   16.8730 N.am  213  ASN213     -0.1960
    149  CA        10.9120   -8.9380   17.6650 C.3   213  ASN213      0.1819
    150  C         11.7930   -9.1570   18.8880 C.2   213  ASN213      0.2621
    151  O         11.3880   -9.8770   19.8050 O.2   213  ASN213     -0.2715
    152  CB        10.9020  -10.1910   16.7900 C.3   213  ASN213      0.1195
    153  CG         9.9970  -10.0470   15.5860 C.2   213  ASN213      0.2630
    154  OD1        8.8400   -9.6460   15.7100 O.2   213  ASN213     -0.2716
    155  ND2       10.5250  -10.3600   14.4080 N.am  213  ASN213     -0.0877
    156  N         12.9840   -8.5620   18.9180 N.am  214  ASN214     -0.1958
    157  CA        13.8630   -8.6370   20.0800 C.3   214  ASN214      0.1819
    158  C         14.2280   -7.2280   20.5370 C.2   214  ASN214      0.2622
    159  O         15.3990   -6.9240   20.7850 O.2   214  ASN214     -0.2715
    160  CB        15.1150   -9.4550   19.7600 C.3   214  ASN214      0.1195
    161  CG        15.9100   -9.8130   20.9990 C.2   214  ASN214      0.2630
    162  OD1       15.3670   -9.8710   22.1010 O.2   214  ASN214     -0.2716
    163  ND2       17.2070  -10.0480   20.8260 N.am  214  ASN214     -0.0877
    164  N         13.2240   -6.3630   20.6520 N.am  215  SER215     -0.1936
    165  CA        13.4670   -4.9590   20.9550 C.3   215  SER215      0.2055
    166  C         13.9520   -4.7850   22.3880 C.2   215  SER215      0.2643
    167  O         13.3020   -5.2360   23.3350 O.2   215  SER215     -0.2714
    168  CB        12.1960   -4.1440   20.7310 C.3   215  SER215      0.2130
    169  OG        12.3430   -2.8290   21.2370 O.3   215  SER215     -0.2179
    170  N         15.0890   -4.1140   22.5430 N.am  216  SER216     -0.1949
    171  CA        15.6160   -3.7890   23.8600 C.3   216  SER216      0.1924
    172  C         14.8170   -2.6330   24.4480 C.2   216  SER216      0.2314
    173  O         14.8080   -1.5310   23.8890 O.2   216  SER216     -0.2863
    174  CB        17.0960   -3.4270   23.7680 C.3   216  SER216      0.2116
    175  OG        17.8250   -4.4320   23.0870 O.3   216  SER216     -0.2180
    176  N         16.6710    2.5030   19.9080 N.3   442  GLY442     -0.1225
    177  CA        16.5800    3.3990   18.7760 C.3   442  GLY442      0.1811
    178  C         15.2220    4.0610   18.6290 C.2   442  GLY442      0.2280
    179  O         14.2650    3.7500   19.3380 O.2   442  GLY442     -0.2866
@<TRIPOS>BOND
     1    57    55    1
     2     1     2    1
     3    12    11    2
     4    55    56    1
     5    55    54    2
     6     2     3    1
     7     2     5    1
     8    53    54    1
     9    53    52    1
    10    11    10    1
    11    73    71    1
    12     7     5    1
    13     3     9   am
    14     3     4    2
    15     9    10    1
    16    72    71    1
    17     5     6    1
    18    71    70    1
    19    10    13    1
    20    52    51    1
    21    32    31    2
    22    69    68    2
    23    70    67    1
    24    33    30    1
    25    33    34    1
    26    30    31    1
    27    30    29    1
    28    24    23    2
    29     6     8    1
    30    67    68    1
    31    67    66    1
    32    13    14    1
    33    31    36   am
    34    81    79   am
    35    51    48    1
    36    34    35    1
    37    78    79    1
    38    78    75    1
    39    23    29   am
    40    23    22    1
    41    29    35    1
    42    16    14   ar
    43    16    18   ar
    44    43    45   ar
    45    43    41   ar
    46    14    15   ar
    47    79    80    2
    48    61    60    2
    49    66    60   am
    50    45    46   ar
    51    21    22    1
    52    40    41    1
    53    40    37    1
    54    36    37    1
    55    75    74    1
    56    75    76    1
    57    39    38    2
    58    50    49    2
    59    60    59    1
    60    48    47    1
    61    48    49    1
    62    41    42   ar
    63    18    19   ar
    64    47    38   am
    65    38    37    1
    66    22    25    1
    67    49    58   am
    68    15    17   ar
    69    46    44   ar
    70    58    59    1
    71    25    26    1
    72    19    17   ar
    73    19    20    1
    74    76    77    2
    75    59    62    1
    76    42    44   ar
    77    27    26    2
    78    26    28   am
    79    62    63    1
    80    64    63   ar
    81    63    65   ar
    82    95    94    2
    83    91    90    2
    84    93    96    1
    85    93    94    1
    86    93    92    1
    87    94    97   am
    88    90    92   am
    89    90    89    1
    90   139   137   am
    91   138   137    2
    92    97    98    1
    93    85    84    2
    94   137   136    1
    95    98    99    1
    96   155   153   am
    97    89    88    1
    98    84    88   am
    99    84    83    1
   100    99   100    2
   101    99   101   am
   102   136   135    1
   103   130   127    1
   104   153   154    2
   105   153   152    1
   106    82    83    1
   107   121   122    1
   108   121   118    1
   109   135   132    1
   110   140   141    1
   111   101   102    1
   112   127   126    1
   113   127   128    1
   114   122   123    1
   115    83    86    1
   116   141   144    1
   117   141   142    1
   118   126   119   am
   119   124   123   ar
   120   152   149    1
   121   119   120    2
   122   119   118    1
   123   148   142   am
   124   148   149    1
   125   146   145    2
   126    86    87    1
   127   144   145    1
   128   123   125   ar
   129   106   107    1
   130   106   105    1
   131   109   108    1
   132   102   105    1
   133   102   103    1
   134   118   117    1
   135   145   147   am
   136   142   143    2
   137   132   133    1
   138   132   131    1
   139   128   129    2
   140   149   150    1
   141   134   133    2
   142   107   108    1
   143   117   112   am
   144   103   104    2
   145   103   110   am
   146   178   177    1
   147   178   179    2
   148   110   111    1
   149   177   176    1
   150   150   156   am
   151   150   151    2
   152   156   157    1
   153   112   113    2
   154   112   111    1
   155   111   114    1
   156   160   157    1
   157   160   161    1
   158   157   158    1
   159   114   115    1
   160   114   116    1
   161   158   164   am
   162   158   159    2
   163   164   165    1
   164   168   165    1
   165   168   169    1
   166   163   161   am
   167   165   166    1
   168   161   162    2
   169   166   170   am
   170   166   167    2
   171   170   171    1
   172   175   174    1
   173   174   171    1
   174   171   172    1
   175   173   172    2
