@<TRIPOS>MOLECULE
tmp/6dupA00.pdb
 193 184 0 0 0
SMALL
GASTEIGER

@<TRIPOS>ATOM
      1  N         11.9680   40.6970   22.0010 N.3    54  LEU54      -0.1245
      2  CA        12.5740   39.3650   21.9930 C.3    54  LEU54       0.1561
      3  C         14.1100   39.3900   21.9460 C.2    54  LEU54       0.2260
      4  O         14.7300   38.4930   21.3720 O.2    54  LEU54      -0.2867
      5  CB        12.0300   38.5740   20.7920 C.3    54  LEU54       0.0270
      6  CG        11.3220   37.2300   21.0330 C.3    54  LEU54       0.0019
      7  CD1       10.9310   37.0930   22.5010 C.3    54  LEU54       0.0001
      8  CD2       10.0930   37.1320   20.1350 C.3    54  LEU54       0.0001
      9  N         17.9490   39.3060   23.1920 N.3    56  VAL56      -0.1245
     10  CA        19.0140   38.9220   24.1080 C.3    56  VAL56       0.1561
     11  C         20.3420   38.8350   23.3800 C.2    56  VAL56       0.2260
     12  O         20.3850   38.6110   22.1710 O.2    56  VAL56      -0.2867
     13  CB        18.7410   37.5480   24.7620 C.3    56  VAL56       0.0252
     14  CG1       17.6650   37.6840   25.8320 C.3    56  VAL56       0.0019
     15  CG2       18.3190   36.5330   23.6940 C.3    56  VAL56       0.0019
     16  N         16.4390   33.2580   15.5110 N.3    85  LEU85      -0.1245
     17  CA        15.2470   32.4050   15.5680 C.3    85  LEU85       0.1561
     18  C         15.5220   30.9090   15.4350 C.2    85  LEU85       0.2260
     19  O         14.9010   30.0940   16.1180 O.2    85  LEU85      -0.2867
     20  CB        14.2210   32.8230   14.5040 C.3    85  LEU85       0.0270
     21  CG        13.4750   34.1370   14.7660 C.3    85  LEU85       0.0019
     22  CD1       12.5700   34.4650   13.5800 C.3    85  LEU85       0.0001
     23  CD2       12.6620   34.0280   16.0450 C.3    85  LEU85       0.0001
     24  N         16.8090   29.8490   18.8540 N.3    88  MET88      -0.1245
     25  CA        15.7190   29.8630   19.8160 C.3    88  MET88       0.1570
     26  C         14.8020   28.6700   19.5910 C.2    88  MET88       0.2261
     27  O         14.3530   28.0300   20.5420 O.2    88  MET88      -0.2867
     28  CB        14.9090   31.1560   19.6860 C.3    88  MET88       0.0387
     29  CG        15.6950   32.4120   20.0150 C.3    88  MET88       0.0595
     30  SD        16.4130   32.3820   21.6630 S.3    88  MET88      -0.1393
     31  CE        16.9950   34.0580   21.7910 C.3    88  MET88       0.0692
     32  N         16.4610   25.7830   21.1100 N.3    91  MET91      -0.1230
     33  CA        16.4130   25.8010   22.5750 C.3    91  MET91       0.1702
     34  C         15.0350   25.4050   23.1040 C.2    91  MET91       0.2593
     35  O         14.9260   24.5740   23.9940 O.2    91  MET91      -0.2718
     36  CB        16.7890   27.1840   23.1240 C.3    91  MET91       0.0401
     37  CG        16.6470   27.2970   24.6480 C.3    91  MET91       0.0596
     38  SD        17.4050   25.9060   25.5340 S.3    91  MET91      -0.1393
     39  CE        18.9700   26.6070   26.0840 C.3    91  MET91       0.0692
     40  N         13.9890   26.0070   22.5470 N.am   92  SER92      -0.1952
     41  CA        12.6170   25.7080   22.9470 C.3    92  SER92       0.1924
     42  C         12.2740   24.2490   22.7030 C.2    92  SER92       0.2314
     43  O         11.7240   23.5660   23.5620 O.2    92  SER92      -0.2863
     44  CB        11.6500   26.5800   22.1550 C.3    92  SER92       0.2116
     45  OG        11.8960   27.9430   22.4310 O.3    92  SER92      -0.2180
     46  N         10.9130   21.7610   25.3230 N.3    96  PHE96      -0.1241
     47  CA         9.6510   21.0650   25.1600 C.3    96  PHE96       0.1605
     48  C          9.8080   19.5570   25.3560 C.2    96  PHE96       0.2264
     49  O          8.9850   18.9250   26.0170 O.2    96  PHE96      -0.2867
     50  CB         9.0810   21.3370   23.7740 C.3    96  PHE96       0.0534
     51  CG         8.5390   22.7260   23.6020 C.ar   96  PHE96      -0.0203
     52  CD1        8.4520   23.2980   22.3420 C.ar   96  PHE96      -0.0042
     53  CD2        8.1090   23.4570   24.6910 C.ar   96  PHE96      -0.0042
     54  CE1        7.9460   24.5740   22.1700 C.ar   96  PHE96      -0.0003
     55  CE2        7.6010   24.7350   24.5240 C.ar   96  PHE96      -0.0003
     56  CZ         7.5190   25.2940   23.2590 C.ar   96  PHE96      -0.0000
     57  N          4.5570   25.7740   26.7700 N.3   126  PHE126     -0.1241
     58  CA         5.2410   27.0580   26.8710 C.3   126  PHE126      0.1605
     59  C          5.3640   27.5090   28.3290 C.2   126  PHE126      0.2264
     60  O          6.3970   28.0450   28.7430 O.2   126  PHE126     -0.2867
     61  CB         4.4900   28.1200   26.0590 C.3   126  PHE126      0.0534
     62  CG         4.9450   29.5170   26.3370 C.ar  126  PHE126     -0.0203
     63  CD1        6.1030   30.0130   25.7580 C.ar  126  PHE126     -0.0042
     64  CD2        4.2370   30.3240   27.2090 C.ar  126  PHE126     -0.0042
     65  CE1        6.5500   31.2940   26.0520 C.ar  126  PHE126     -0.0003
     66  CE2        4.6740   31.6040   27.5110 C.ar  126  PHE126     -0.0003
     67  CZ         5.8320   32.0900   26.9330 C.ar  126  PHE126     -0.0000
     68  N          8.0020   25.4040   30.2820 N.3   129  CYS129     -0.1221
     69  CA         9.3350   25.8260   29.8790 C.3   129  CYS129      0.1808
     70  C          9.7340   27.1100   30.6030 C.2   129  CYS129      0.2601
     71  O         10.8570   27.2230   31.0950 O.2   129  CYS129     -0.2717
     72  CB         9.3890   26.0410   28.3670 C.3   129  CYS129      0.0970
     73  SG         9.2450   24.5240   27.4100 S.3   129  CYS129     -0.0800
     74  N          8.8170   28.0720   30.6810 N.am  130  GLN130     -0.1979
     75  CA         9.1280   29.3400   31.3310 C.3   130  GLN130      0.1601
     76  C          9.3210   29.1490   32.8280 C.2   130  GLN130      0.2287
     77  O         10.1960   29.7720   33.4360 O.2   130  GLN130     -0.2864
     78  CB         8.0170   30.3650   31.0760 C.3   130  GLN130      0.0394
     79  CG         7.9520   30.8610   29.6280 C.3   130  GLN130      0.0908
     80  CD         9.3090   31.2860   29.1090 C.2   130  GLN130      0.2608
     81  OE1        9.7150   30.8890   28.0200 O.2   130  GLN130     -0.2717
     82  NE2       10.0220   32.0910   29.8900 N.am  130  GLN130     -0.0878
     83  N         12.6480   27.7940   33.0850 N.3   133  PHE133     -0.1241
     84  CA        13.6110   28.8540   32.8090 C.3   133  PHE133      0.1605
     85  C         13.7610   29.7660   34.0120 C.2   133  PHE133      0.2264
     86  O         14.8580   30.2360   34.2900 O.2   133  PHE133     -0.2867
     87  CB        13.1970   29.6780   31.5820 C.3   133  PHE133      0.0534
     88  CG        13.8200   29.2100   30.2990 C.ar  133  PHE133     -0.0203
     89  CD1       13.0400   28.9180   29.1980 C.ar  133  PHE133     -0.0042
     90  CD2       15.1880   29.0220   30.2100 C.ar  133  PHE133     -0.0042
     91  CE1       13.6170   28.4390   28.0290 C.ar  133  PHE133     -0.0003
     92  CE2       15.7660   28.5450   29.0490 C.ar  133  PHE133     -0.0003
     93  CZ        14.9850   28.2530   27.9620 C.ar  133  PHE133     -0.0000
     94  N         19.5330   34.5180   31.9810 N.3   144  TRP144     -0.1241
     95  CA        19.2070   33.1110   32.1360 C.3   144  TRP144      0.1605
     96  C         20.4740   32.2980   31.9800 C.2   144  TRP144      0.2264
     97  O         21.1100   32.3180   30.9230 O.2   144  TRP144     -0.2867
     98  CB        18.1820   32.6880   31.0930 C.3   144  TRP144      0.0550
     99  CG        16.8340   33.2640   31.3630 C.ar  144  TRP144      0.0003
    100  CD1       15.8620   32.7340   32.1570 C.ar  144  TRP144      0.0946
    101  CD2       16.3120   34.5000   30.8580 C.ar  144  TRP144      0.0152
    102  NE1       14.7680   33.5570   32.1780 N.ar  144  TRP144     -0.2442
    103  CE2       15.0160   34.6500   31.3900 C.ar  144  TRP144      0.0810
    104  CE3       16.8160   35.4930   30.0070 C.ar  144  TRP144      0.0012
    105  CZ2       14.2120   35.7520   31.0990 C.ar  144  TRP144      0.0191
    106  CZ3       16.0190   36.5890   29.7200 C.ar  144  TRP144      0.0001
    107  CH2       14.7280   36.7090   30.2650 C.ar  144  TRP144      0.0015
    108  N         21.7350   33.7250   28.3260 N.3   151  TYR151     -0.1241
    109  CA        20.9190   34.6610   27.5690 C.3   151  TYR151      0.1605
    110  C         20.7150   35.8910   28.4410 C.2   151  TYR151      0.2264
    111  O         20.2590   35.7920   29.5740 O.2   151  TYR151     -0.2867
    112  CB        19.5770   34.0220   27.2140 C.3   151  TYR151      0.0534
    113  CG        19.7240   32.7290   26.4310 C.ar  151  TYR151     -0.0201
    114  CD1       19.9120   31.5150   27.0820 C.ar  151  TYR151     -0.0009
    115  CD2       19.6990   32.7240   25.0390 C.ar  151  TYR151     -0.0009
    116  CE1       20.0710   30.3510   26.3800 C.ar  151  TYR151      0.0417
    117  CE2       19.8560   31.5580   24.3280 C.ar  151  TYR151      0.0417
    118  CZ        20.0420   30.3740   25.0010 C.ar  151  TYR151      0.1957
    119  OH        20.1930   29.2030   24.2920 O.3   151  TYR151     -0.2866
    120  N         19.4890   40.1430   28.7530 N.3   153  LEU153     -0.1245
    121  CA        18.6110   41.1450   28.1800 C.3   153  LEU153      0.1561
    122  C         19.4090   42.3130   27.6230 C.2   153  LEU153      0.2260
    123  O         20.3530   42.7840   28.2560 O.2   153  LEU153     -0.2867
    124  CB        17.6330   41.6520   29.2320 C.3   153  LEU153      0.0270
    125  CG        16.4310   40.7940   29.6090 C.3   153  LEU153      0.0019
    126  CD1       15.9140   40.0320   28.3990 C.3   153  LEU153      0.0001
    127  CD2       16.8120   39.8620   30.7210 C.3   153  LEU153      0.0001
    128  N          6.6790   39.2000   29.8250 N.3   158  MET158     -0.1245
    129  CA         7.4660   37.9990   30.0680 C.3   158  MET158      0.1570
    130  C          8.6410   38.2830   30.9840 C.2   158  MET158      0.2261
    131  O          8.9540   37.5000   31.8810 O.2   158  MET158     -0.2867
    132  CB         7.9840   37.4120   28.7550 C.3   158  MET158      0.0387
    133  CG         8.7150   36.0880   28.9310 C.3   158  MET158      0.0595
    134  SD         8.5100   34.9900   27.5230 S.3   158  MET158     -0.1393
    135  CE         9.3340   35.9680   26.2080 C.3   158  MET158      0.0692
    136  N          9.4170   37.0250   35.0280 N.3   162  HIS162     -0.1241
    137  CA        10.5530   36.3160   35.6010 C.3   162  HIS162      0.1621
    138  C         11.1690   37.0150   36.8090 C.2   162  HIS162      0.2264
    139  O         11.6270   36.3570   37.7510 O.2   162  HIS162     -0.2867
    140  CB        11.6230   36.0700   34.5320 C.3   162  HIS162      0.0745
    141  CG        11.3480   34.8760   33.6700 C.ar  162  HIS162      0.0817
    142  ND1       11.7340   33.6000   34.0230 N.ar  162  HIS162     -0.2268
    143  CD2       10.7300   34.7620   32.4700 C.ar  162  HIS162      0.1154
    144  CE1       11.3700   32.7550   33.0760 C.ar  162  HIS162      0.1986
    145  NE2       10.7610   33.4340   32.1230 N.ar  162  HIS162     -0.2212
    146  N          2.2080   35.2340   23.4880 N.3   242  HIS242     -0.1241
    147  CA         3.4350   34.7960   22.8450 C.3   242  HIS242      0.1621
    148  C          3.1670   33.8670   21.6660 C.2   242  HIS242      0.2264
    149  O          3.8760   33.9110   20.6690 O.2   242  HIS242     -0.2867
    150  CB         4.3120   34.0900   23.8690 C.3   242  HIS242      0.0745
    151  CG         5.6770   33.7440   23.3590 C.ar  242  HIS242      0.0817
    152  ND1        6.0070   32.4800   22.9140 N.ar  242  HIS242     -0.2268
    153  CD2        6.8010   34.4920   23.2370 C.ar  242  HIS242      0.1154
    154  CE1        7.2750   32.4680   22.5410 C.ar  242  HIS242      0.1986
    155  NE2        7.7790   33.6740   22.7270 N.ar  242  HIS242     -0.2212
    156  N          4.4560   34.3480   17.7570 N.3   246  LEU246     -0.1245
    157  CA         5.2020   33.2990   17.0710 C.3   246  LEU246      0.1561
    158  C          4.5190   32.9390   15.7500 C.2   246  LEU246      0.2260
    159  O          5.1840   32.6830   14.7480 O.2   246  LEU246     -0.2867
    160  CB         5.3120   32.0640   17.9770 C.3   246  LEU246      0.0270
    161  CG         6.0010   30.7910   17.4560 C.3   246  LEU246      0.0019
    162  CD1        6.5010   29.9580   18.6420 C.3   246  LEU246      0.0001
    163  CD2        5.0370   29.9780   16.5900 C.3   246  LEU246      0.0001
    164  N         10.3910   29.3270   10.8400 N.3   255  PHE255     -0.1241
    165  CA        11.5470   29.0280   11.6740 C.3   255  PHE255      0.1605
    166  C         11.2870   27.8600   12.6170 C.2   255  PHE255      0.2264
    167  O         12.2250   27.2210   13.0890 O.2   255  PHE255     -0.2867
    168  CB        11.9430   30.2600   12.4980 C.3   255  PHE255      0.0534
    169  CG        10.9850   30.5790   13.6090 C.ar  255  PHE255     -0.0203
    170  CD1       11.2970   30.2640   14.9180 C.ar  255  PHE255     -0.0042
    171  CD2        9.7750   31.1980   13.3440 C.ar  255  PHE255     -0.0042
    172  CE1       10.4260   30.5580   15.9430 C.ar  255  PHE255     -0.0003
    173  CE2        8.8960   31.4950   14.3660 C.ar  255  PHE255     -0.0003
    174  CZ         9.2250   31.1740   15.6700 C.ar  255  PHE255     -0.0000
    175  N          7.5510   21.9940   17.2330 N.3   260  MET260     -0.1245
    176  CA         6.9290   23.2900   17.4980 C.3   260  MET260      0.1570
    177  C          5.7220   23.5100   16.5980 C.2   260  MET260      0.2261
    178  O          4.7100   24.0650   17.0320 O.2   260  MET260     -0.2867
    179  CB         7.9280   24.4250   17.2760 C.3   260  MET260      0.0387
    180  CG         9.0910   24.4340   18.2450 C.3   260  MET260      0.0595
    181  SD        10.2730   25.7430   17.8640 S.3   260  MET260     -0.1393
    182  CE         9.2040   27.1870   17.9260 C.3   260  MET260      0.0692
    183  N          2.0220   24.4060   18.2890 N.3   264  PHE264     -0.1241
    184  CA         1.3930   25.7040   18.0940 C.3   264  PHE264      0.1605
    185  C          0.3240   25.6960   16.9940 C.2   264  PHE264      0.2264
    186  O         -0.3370   26.7090   16.7500 O.2   264  PHE264     -0.2867
    187  CB         2.4650   26.7580   17.7950 C.3   264  PHE264      0.0534
    188  CG         3.3850   27.0350   18.9600 C.ar  264  PHE264     -0.0203
    189  CD1        4.7060   26.6110   18.9390 C.ar  264  PHE264     -0.0042
    190  CD2        2.9290   27.7290   20.0730 C.ar  264  PHE264     -0.0042
    191  CE1        5.5540   26.8750   20.0040 C.ar  264  PHE264     -0.0003
    192  CE2        3.7740   27.9970   21.1410 C.ar  264  PHE264     -0.0003
    193  CZ         5.0880   27.5690   21.1050 C.ar  264  PHE264     -0.0000
@<TRIPOS>BOND
     1   164   165    1
     2   165   168    1
     3   165   166    1
     4   168   169    1
     5   166   167    2
     6   171   169   ar
     7   171   173   ar
     8    22    21    1
     9   169   170   ar
    10   173   174   ar
    11    20    21    1
    12    20    17    1
    13   159   158    2
    14    21    23    1
    15   170   172   ar
    16    18    17    1
    17    18    19    2
    18    16    17    1
    19   174   172   ar
    20   158   157    1
    21   163   161    1
    22   177   178    2
    23   177   176    1
    24   186   185    2
    25   185   184    1
    26   157   156    1
    27   157   160    1
    28   175   176    1
    29   179   176    1
    30   179   180    1
    31   161   160    1
    32   161   162    1
    33   187   184    1
    34   187   188    1
    35   181   182    1
    36   181   180    1
    37   184   183    1
    38    24    25    1
    39   189   188   ar
    40   189   191   ar
    41   188   190   ar
    42    26    25    1
    43    26    27    2
    44    28    25    1
    45    28    29    1
    46   191   193   ar
    47    29    30    1
    48   190   192   ar
    49     8     6    1
    50   149   148    2
    51     5     6    1
    52     5     2    1
    53     6     7    1
    54   193   192   ar
    55    32    33    1
    56     4     3    2
    57    30    31    1
    58   148   147    1
    59     3     2    1
    60     2     1    1
    61    44    45    1
    62    44    41    1
    63    54    52   ar
    64    54    56   ar
    65    12    11    2
    66    52    51   ar
    67   154   155   ar
    68   154   152   ar
    69    40    41    1
    70    40    34   am
    71    33    34    1
    72    33    36    1
    73    42    41    1
    74    42    43    2
    75   155   153   ar
    76   147   146    1
    77   147   150    1
    78   152   151   ar
    79    34    35    2
    80    36    37    1
    81     9    10    1
    82   153   151   ar
    83    56    55   ar
    84   151   150    1
    85    11    10    1
    86    51    50    1
    87    51    53   ar
    88    15    13    1
    89    50    47    1
    90    10    13    1
    91   119   118    1
    92   117   118   ar
    93   117   115   ar
    94    55    53   ar
    95    37    38    1
    96    13    14    1
    97   118   116   ar
    98   115   113   ar
    99    47    46    1
   100    47    48    1
   101    48    49    2
   102    38    39    1
   103    63    65   ar
   104    63    62   ar
   105    65    67   ar
   106    61    62    1
   107    61    58    1
   108   135   134    1
   109    62    64   ar
   110   116   114   ar
   111   113   114   ar
   112   113   112    1
   113    57    58    1
   114    58    59    1
   115    67    66   ar
   116    64    66   ar
   117   112   109    1
   118    73    72    1
   119   134   133    1
   120   109   108    1
   121   109   110    1
   122   122   121    1
   123   122   123    2
   124    93    91   ar
   125    93    92   ar
   126    81    80    2
   127    91    89   ar
   128   121   120    1
   129   121   124    1
   130    59    60    2
   131    72    69    1
   132   126   125    1
   133   110   111    2
   134   132   133    1
   135   132   129    1
   136    92    90   ar
   137    80    79    1
   138    80    82   am
   139    89    88   ar
   140   124   125    1
   141   125   127    1
   142    79    78    1
   143   106   104   ar
   144   106   107   ar
   145   128   129    1
   146    69    68    1
   147    69    70    1
   148   104   101   ar
   149   129   130    1
   150    90    88   ar
   151   107   105   ar
   152    88    87    1
   153    70    74   am
   154    70    71    2
   155    74    75    1
   156   101    99   ar
   157   101   103   ar
   158    97    96    2
   159   130   131    2
   160    78    75    1
   161    98    99    1
   162    98    95    1
   163   105   103   ar
   164    75    76    1
   165    99   100   ar
   166   103   102   ar
   167    87    84    1
   168    96    95    1
   169    94    95    1
   170   145   143   ar
   171   145   144   ar
   172   100   102   ar
   173   143   141   ar
   174    84    83    1
   175    84    85    1
   176    76    77    2
   177   144   142   ar
   178   141   142   ar
   179   141   140    1
   180    85    86    2
   181   140   137    1
   182   136   137    1
   183   137   138    1
   184   138   139    2
