@<TRIPOS>MOLECULE
tmp/6duqI01.pdb
 102 99 0 0 0
SMALL
GASTEIGER

@<TRIPOS>ATOM
      1  N       -144.8000  -64.4060  164.2910 N.3   155  THR155     -0.1218
      2  CA      -144.8900  -63.4110  163.2270 C.3   155  THR155      0.1862
      3  C       -146.3140  -63.2710  162.7230 C.2   155  THR155      0.2287
      4  O       -146.8080  -62.1530  162.5350 O.2   155  THR155     -0.2866
      5  CB      -143.9700  -63.7680  162.0660 C.3   155  THR155      0.1770
      6  OG1     -142.6130  -63.6830  162.5070 O.3   155  THR155     -0.2211
      7  CG2     -144.1850  -62.8040  160.9020 C.3   155  THR155      0.0375
      8  N       -133.0060  -52.8760  154.2130 N.3   177  PRO177     -0.2102
      9  CA      -132.4140  -54.1880  153.9320 C.3   177  PRO177      0.1504
     10  C       -132.0510  -54.9110  155.2200 C.2   177  PRO177      0.2576
     11  O       -131.5640  -54.3040  156.1780 O.2   177  PRO177     -0.2718
     12  CB      -131.1690  -53.8470  153.1050 C.3   177  PRO177      0.0282
     13  CG      -131.4600  -52.5260  152.5070 C.3   177  PRO177      0.0208
     14  CD      -132.3090  -51.7940  153.4980 C.3   177  PRO177      0.0893
     15  N       -132.3320  -56.2180  155.2420 N.am  178  LYS178     -0.1966
     16  CA      -131.9870  -57.1430  156.3210 C.3   178  LYS178      0.1728
     17  C       -132.8610  -56.9590  157.5600 C.2   178  LYS178      0.2616
     18  O       -132.4600  -57.3350  158.6690 O.2   178  LYS178     -0.2715
     19  CB      -130.5010  -57.0260  156.6870 C.3   178  LYS178      0.0311
     20  CG      -129.8790  -58.2260  157.3590 C.3   178  LYS178      0.0038
     21  CD      -128.4200  -57.9390  157.6440 C.3   178  LYS178      0.0206
     22  CE      -127.7670  -59.1140  158.3240 C.3   178  LYS178      0.1093
     23  NZ      -126.3350  -58.8700  158.6170 N.3   178  LYS178     -0.1314
     24  N       -134.0600  -56.4010  157.4060 N.am  179  ALA179     -0.1963
     25  CA      -134.9580  -56.2250  158.5390 C.3   179  ALA179      0.1728
     26  C       -135.9100  -57.3970  158.7370 C.2   179  ALA179      0.2617
     27  O       -136.4300  -57.5710  159.8440 O.2   179  ALA179     -0.2715
     28  CB      -135.7680  -54.9350  158.3760 C.3   179  ALA179      0.0334
     29  N       -136.1490  -58.1980  157.7030 N.am  180  GLY180     -0.1940
     30  CA      -136.9700  -59.3800  157.8560 C.3   180  GLY180      0.2014
     31  C       -138.1280  -59.4510  156.8850 C.2   180  GLY180      0.2639
     32  O       -139.0650  -60.2260  157.0910 O.2   180  GLY180     -0.2714
     33  N       -138.0720  -58.6520  155.8160 N.am  181  LYS181     -0.1963
     34  CA      -139.2010  -58.5630  154.8930 C.3   181  LYS181      0.1728
     35  C       -139.4480  -59.8920  154.1950 C.2   181  LYS181      0.2617
     36  O       -140.5770  -60.3930  154.1670 O.2   181  LYS181     -0.2715
     37  CB      -138.9560  -57.4680  153.8550 C.3   181  LYS181      0.0311
     38  CG      -138.7600  -56.0900  154.4280 C.3   181  LYS181      0.0038
     39  CD      -138.6860  -55.0500  153.3230 C.3   181  LYS181      0.0206
     40  CE      -137.4720  -55.2590  152.4350 C.3   181  LYS181      0.1093
     41  NZ      -136.2230  -54.8850  153.1430 N.3   181  LYS181     -0.1314
     42  N       -138.3990  -60.4710  153.6110 N.am  182  THR182     -0.1937
     43  CA      -138.5600  -61.6890  152.8270 C.3   182  THR182      0.2028
     44  C       -139.0660  -62.8440  153.6820 C.2   182  THR182      0.2642
     45  O       -140.0320  -63.5210  153.3130 O.2   182  THR182     -0.2714
     46  CB      -137.2370  -62.0530  152.1640 C.3   182  THR182      0.1808
     47  OG1     -136.8930  -61.0460  151.2040 O.3   182  THR182     -0.2208
     48  CG2     -137.3610  -63.3930  151.4720 C.3   182  THR182      0.0379
     49  N       -138.4140  -63.1010  154.8190 N.am  183  MET183     -0.1976
     50  CA      -138.8670  -64.1730  155.7010 C.3   183  MET183      0.1605
     51  C       -140.2650  -63.9170  156.2430 C.2   183  MET183      0.2287
     52  O       -141.0120  -64.8700  156.4850 O.2   183  MET183     -0.2864
     53  CB      -137.8910  -64.3600  156.8570 C.3   183  MET183      0.0413
     54  CG      -136.6820  -65.2050  156.4950 C.3   183  MET183      0.0598
     55  SD      -135.6780  -65.5400  157.9420 S.3   183  MET183     -0.1393
     56  CE      -136.8570  -66.4450  158.9470 C.3   183  MET183      0.0692
     57  N       -143.3130  -66.4520  155.8350 N.3   187  ASN187     -0.1240
     58  CA      -144.2400  -66.7750  156.9110 C.3   187  ASN187      0.1653
     59  C       -145.6880  -66.5810  156.4650 C.2   187  ASN187      0.2266
     60  O       -146.5510  -67.4370  156.7190 O.2   187  ASN187     -0.2867
     61  CB      -143.9100  -65.9040  158.1220 C.3   187  ASN187      0.1155
     62  CG      -144.4020  -66.4920  159.4120 C.2   187  ASN187      0.2627
     63  OD1     -145.5970  -66.4670  159.6930 O.2   187  ASN187     -0.2716
     64  ND2     -143.4830  -67.0150  160.2190 N.am  187  ASN187     -0.0877
     65  N       -132.5410  -62.1810  145.5190 N.3   209  ARG209     -0.1245
     66  CA      -131.4640  -63.1630  145.5820 C.3   209  ARG209      0.1563
     67  C       -131.8980  -64.4810  144.9500 C.2   209  ARG209      0.2260
     68  O       -133.0380  -64.9170  145.1480 O.2   209  ARG209     -0.2867
     69  CB      -131.0470  -63.4250  147.0290 C.3   209  ARG209      0.0307
     70  CG      -130.4750  -62.2450  147.7190 C.3   209  ARG209      0.0489
     71  CD      -130.2540  -62.4360  149.1940 C.3   209  ARG209      0.2205
     72  NE      -129.7160  -61.1700  149.6560 N.pl3 209  ARG209     -0.0865
     73  CZ      -130.4600  -60.1150  149.9630 C.cat 209  ARG209      0.5346
     74  NH1     -131.7820  -60.2000  149.9190 N.pl3 209  ARG209      0.1354
     75  NH2     -129.8850  -58.9800  150.3330 N.pl3 209  ARG209      0.1354
     76  N       -133.0960  -67.3890  147.3280 N.3   212  GLU212     -0.1245
     77  CA      -134.4530  -67.2150  147.8290 C.3   212  GLU212      0.1567
     78  C       -135.4950  -67.7840  146.8690 C.2   212  GLU212      0.2260
     79  O       -136.5430  -68.2510  147.3170 O.2   212  GLU212     -0.2867
     80  CB      -134.7140  -65.7300  148.1010 C.3   212  GLU212      0.0388
     81  CG      -133.7500  -65.1270  149.1210 C.3   212  GLU212      0.1160
     82  CD      -133.8300  -63.6140  149.1950 C.2   212  GLU212      0.3649
     83  OE1     -134.4600  -63.0070  148.3060 O.co2 212  GLU212     -0.2457
     84  OE2     -133.2610  -63.0310  150.1420 O.co2 212  GLU212     -0.2457
     85  N       -137.1670  -60.8080  166.8600 N.3   352  PHE352     -0.1228
     86  CA      -138.0020  -61.1030  165.7060 C.3   352  PHE352      0.1721
     87  C       -139.3700  -61.6090  166.1440 C.2   352  PHE352      0.2437
     88  O       -139.4710  -62.3600  167.1230 O.2   352  PHE352     -0.2733
     89  CB      -137.3240  -62.1320  164.7920 C.3   352  PHE352      0.0547
     90  CG      -136.0290  -61.6480  164.2140 C.ar  352  PHE352     -0.0202
     91  CD1     -136.0150  -60.8370  163.0910 C.ar  352  PHE352     -0.0042
     92  CD2     -134.8260  -61.9860  164.8050 C.ar  352  PHE352     -0.0042
     93  CE1     -134.8230  -60.3820  162.5640 C.ar  352  PHE352     -0.0003
     94  CE2     -133.6320  -61.5350  164.2830 C.ar  352  PHE352     -0.0003
     95  CZ      -133.6310  -60.7320  163.1600 C.ar  352  PHE352     -0.0000
     96  N       -140.4520  -61.2080  165.4410 N.am  353  PRO353     -0.2729
     97  CA      -140.4000  -60.3200  164.2720 C.3   353  PRO353      0.1401
     98  C       -140.1180  -58.8680  164.6400 C.2   353  PRO353      0.2269
     99  O       -140.6830  -58.3500  165.6010 O.2   353  PRO353     -0.2865
    100  CB      -141.7960  -60.4570  163.6660 C.3   353  PRO353      0.0296
    101  CG      -142.6670  -60.7270  164.8340 C.3   353  PRO353      0.0237
    102  CD      -141.8400  -61.5900  165.7640 C.3   353  PRO353      0.0939
@<TRIPOS>BOND
     1    67    68    2
     2    67    66    1
     3    65    66    1
     4    66    69    1
     5    78    79    2
     6    78    77    1
     7    69    70    1
     8    76    77    1
     9    70    71    1
    10    77    80    1
    11    80    81    1
    12    83    82   ar
    13    81    82    1
    14    71    72    1
    15    82    84   ar
    16    72    73    2
    17    74    73    1
    18    73    75    1
    19    47    46    1
    20    48    46    1
    21    46    43    1
    22    40    41    1
    23    40    39    1
    24    13    12    1
    25    13    14    1
    26    43    42    1
    27    43    44    1
    28    12     9    1
    29    45    44    2
    30    39    38    1
    31    14     8    1
    32    42    35   am
    33    44    49   am
    34    37    38    1
    35    37    34    1
    36     9     8    1
    37     9    10    1
    38    36    35    2
    39    35    34    1
    40    49    50    1
    41    34    33    1
    42    10    15   am
    43    10    11    2
    44    15    16    1
    45    50    51    1
    46    50    53    1
    47    33    31   am
    48    57    58    1
    49    51    52    2
    50    16    19    1
    51    16    17    1
    52    59    60    2
    53    59    58    1
    54    54    53    1
    55    54    55    1
    56    19    20    1
    57    31    32    2
    58    31    30    1
    59    58    61    1
    60    20    21    1
    61    24    17   am
    62    24    25    1
    63    17    18    2
    64    21    22    1
    65    29    30    1
    66    29    26   am
    67    55    56    1
    68    61    62    1
    69    22    23    1
    70    28    25    1
    71    25    26    1
    72    26    27    2
    73    62    63    2
    74    62    64   am
    75     7     5    1
    76     5     6    1
    77     5     2    1
    78     4     3    2
    79    93    91   ar
    80    93    95   ar
    81     3     2    1
    82    91    90   ar
    83    95    94   ar
    84     2     1    1
    85   100    97    1
    86   100   101    1
    87    90    89    1
    88    90    92   ar
    89    97    98    1
    90    97    96    1
    91    94    92   ar
    92    98    99    2
    93    89    86    1
    94   101   102    1
    95    96   102    1
    96    96    87   am
    97    86    87    1
    98    86    85    1
    99    87    88    2
