@<TRIPOS>MOLECULE
tmp/6dusA01.pdb
 112 109 0 0 0
SMALL
GASTEIGER

@<TRIPOS>ATOM
      1  N        -18.3790  -31.3290  -14.2410 N.3   162  HIS162     -0.1241
      2  CA       -17.5340  -30.5450  -15.1360 C.3   162  HIS162      0.1621
      3  C        -16.2650  -31.2820  -15.5420 C.2   162  HIS162      0.2264
      4  O        -15.7120  -31.0020  -16.6130 O.2   162  HIS162     -0.2867
      5  CB       -17.1790  -29.2070  -14.4860 C.3   162  HIS162      0.0745
      6  CG       -16.2960  -29.3350  -13.2860 C.ar  162  HIS162      0.0817
      7  ND1      -16.7780  -29.6870  -12.0440 N.ar  162  HIS162     -0.2268
      8  CD2      -14.9610  -29.1590  -13.1370 C.ar  162  HIS162      0.1154
      9  CE1      -15.7780  -29.7230  -11.1820 C.ar  162  HIS162      0.1986
     10  NE2      -14.6660  -29.4040  -11.8190 N.ar  162  HIS162     -0.2212
     11  N        -16.6060  -33.0040  -19.0740 N.3   165  PHE165     -0.1227
     12  CA       -16.5430  -32.2040  -20.2850 C.3   165  PHE165      0.1736
     13  C        -15.2580  -31.3890  -20.3840 C.2   165  PHE165      0.2595
     14  O        -14.8550  -31.0680  -21.5040 O.2   165  PHE165     -0.2718
     15  CB       -17.8110  -31.3380  -20.4630 C.3   165  PHE165      0.0547
     16  CG       -18.0940  -30.3230  -19.3760 C.ar  165  PHE165     -0.0202
     17  CD1      -17.2740  -29.2220  -19.1820 C.ar  165  PHE165     -0.0042
     18  CD2      -19.2650  -30.4120  -18.6340 C.ar  165  PHE165     -0.0042
     19  CE1      -17.5760  -28.2710  -18.2200 C.ar  165  PHE165     -0.0003
     20  CE2      -19.5780  -29.4610  -17.6740 C.ar  165  PHE165     -0.0003
     21  CZ       -18.7320  -28.3880  -17.4690 C.ar  165  PHE165     -0.0000
     22  N        -14.5500  -31.1500  -19.2700 N.am  166  ASP166     -0.1974
     23  CA       -13.1730  -30.6500  -19.3530 C.3   166  ASP166      0.1709
     24  C        -12.2760  -31.6440  -20.0790 C.2   166  ASP166      0.2293
     25  O        -11.5250  -31.2830  -21.0010 O.2   166  ASP166     -0.2864
     26  CB       -12.6110  -30.3890  -17.9520 C.3   166  ASP166      0.1436
     27  CG       -13.3330  -29.2860  -17.2280 C.2   166  ASP166      0.3671
     28  OD1      -14.1300  -28.5890  -17.8860 O.co2 166  ASP166     -0.2456
     29  OD2      -13.1060  -29.1190  -16.0090 O.co2 166  ASP166     -0.2456
     30  N        -13.1410  -31.8440  -23.6810 N.3   169  ARG169     -0.1245
     31  CA       -12.7570  -30.6010  -24.3410 C.3   169  ARG169      0.1563
     32  C        -11.2880  -30.6340  -24.7420 C.2   169  ARG169      0.2260
     33  O        -10.9320  -30.3210  -25.8880 O.2   169  ARG169     -0.2867
     34  CB       -13.0440  -29.4100  -23.4240 C.3   169  ARG169      0.0307
     35  CG       -12.8140  -28.0600  -24.0890 C.3   169  ARG169      0.0489
     36  CD       -13.0780  -26.8940  -23.1450 C.3   169  ARG169      0.2205
     37  NE       -14.3770  -26.9850  -22.4800 N.pl3 169  ARG169     -0.0865
     38  CZ       -14.7310  -26.2480  -21.4300 C.cat 169  ARG169      0.5346
     39  NH1      -13.8870  -25.3560  -20.9280 N.pl3 169  ARG169      0.1354
     40  NH2      -15.9310  -26.3960  -20.8850 N.pl3 169  ARG169      0.1354
     41  N        -16.3940  -20.8080  -24.4040 N.3   201  ASP201     -0.1239
     42  CA       -17.5780  -20.9920  -23.5730 C.3   201  ASP201      0.1674
     43  C        -18.7870  -20.3420  -24.2420 C.2   201  ASP201      0.2266
     44  O        -18.6760  -19.2880  -24.8730 O.2   201  ASP201     -0.2867
     45  CB       -17.3510  -20.3810  -22.1880 C.3   201  ASP201      0.1410
     46  CG       -16.7720  -21.3720  -21.1910 C.2   201  ASP201      0.3668
     47  OD1      -16.3940  -22.4920  -21.5990 O.co2 201  ASP201     -0.2456
     48  OD2      -16.6890  -21.0200  -19.9920 O.co2 201  ASP201     -0.2456
     49  N         -9.2270  -15.6680  -16.1750 N.3   224  SER224     -0.1217
     50  CA       -10.2860  -15.1320  -15.3390 C.3   224  SER224      0.1889
     51  C         -9.7130  -14.0960  -14.3830 C.2   224  SER224      0.2288
     52  O         -8.7210  -14.3560  -13.6890 O.2   224  SER224     -0.2866
     53  CB       -10.9700  -16.2580  -14.5650 C.3   224  SER224      0.2089
     54  OG       -12.0290  -15.7510  -13.7790 O.3   224  SER224     -0.2183
     55  N         -7.4840  -20.1640  -17.2290 N.3   233  GLN233     -0.1231
     56  CA        -8.7980  -20.7760  -17.3160 C.3   233  GLN233      0.1698
     57  C         -9.0210  -21.3100  -18.7250 C.2   233  GLN233      0.2592
     58  O         -8.5040  -20.7650  -19.7130 O.2   233  GLN233     -0.2718
     59  CB        -9.8880  -19.7710  -16.9220 C.3   233  GLN233      0.0381
     60  CG       -11.2010  -20.3920  -16.4900 C.3   233  GLN233      0.0905
     61  CD       -11.0780  -21.3000  -15.2850 C.2   233  GLN233      0.2608
     62  OE1      -11.0810  -22.5230  -15.4150 O.2   233  GLN233     -0.2717
     63  NE2      -10.9960  -20.7060  -14.1020 N.am  233  GLN233     -0.0878
     64  N         -9.8060  -22.3870  -18.7990 N.am  234  ASN234     -0.1960
     65  CA       -10.1000  -23.0880  -20.0400 C.3   234  ASN234      0.1819
     66  C        -11.4110  -22.6470  -20.6880 C.2   234  ASN234      0.2621
     67  O        -11.8670  -23.2970  -21.6350 O.2   234  ASN234     -0.2715
     68  CB       -10.1160  -24.6020  -19.7930 C.3   234  ASN234      0.1195
     69  CG       -11.2440  -25.0390  -18.8700 C.2   234  ASN234      0.2630
     70  OD1      -11.8870  -24.2160  -18.2210 O.2   234  ASN234     -0.2716
     71  ND2      -11.4820  -26.3470  -18.8060 N.am  234  ASN234     -0.0877
     72  N        -12.0280  -21.5650  -20.2030 N.am  235  GLY235     -0.1954
     73  CA       -13.2250  -21.0400  -20.8440 C.3   235  GLY235      0.1869
     74  C        -13.0030  -20.5820  -22.2710 C.2   235  GLY235      0.2309
     75  O        -13.9640  -20.4880  -23.0420 O.2   235  GLY235     -0.2863
     76  N         -8.2660  -29.9830  -16.0320 N.3   263  TYR263     -0.1241
     77  CA        -8.0560  -28.5400  -15.9980 C.3   263  TYR263      0.1605
     78  C         -6.7180  -28.1830  -15.3530 C.2   263  TYR263      0.2264
     79  O         -5.8760  -27.5310  -15.9780 O.2   263  TYR263     -0.2867
     80  CB        -9.2240  -27.8600  -15.2710 C.3   263  TYR263      0.0534
     81  CG        -8.9420  -26.4440  -14.8130 C.ar  263  TYR263     -0.0201
     82  CD1       -8.5550  -25.4610  -15.7160 C.ar  263  TYR263     -0.0009
     83  CD2       -9.0740  -26.0900  -13.4800 C.ar  263  TYR263     -0.0009
     84  CE1       -8.2990  -24.1690  -15.2970 C.ar  263  TYR263      0.0417
     85  CE2       -8.8220  -24.8020  -13.0530 C.ar  263  TYR263      0.0417
     86  CZ        -8.4360  -23.8470  -13.9640 C.ar  263  TYR263      0.1957
     87  OH        -8.1840  -22.5650  -13.5350 O.3   263  TYR263     -0.2866
     88  N        -23.2780  -24.8830  -14.2330 N.3   309  TRP309     -0.1227
     89  CA       -22.9020  -26.1360  -13.5970 C.3   309  TRP309      0.1737
     90  C        -22.6720  -26.0120  -12.0970 C.2   309  TRP309      0.2595
     91  O        -22.6470  -27.0430  -11.4140 O.2   309  TRP309     -0.2718
     92  CB       -21.6400  -26.7300  -14.2390 C.3   309  TRP309      0.0564
     93  CG       -20.4550  -25.8330  -14.1440 C.ar  309  TRP309      0.0003
     94  CD1      -20.1620  -24.7880  -14.9660 C.ar  309  TRP309      0.0946
     95  CD2      -19.4060  -25.8850  -13.1690 C.ar  309  TRP309      0.0152
     96  NE1      -18.9980  -24.1810  -14.5640 N.ar  309  TRP309     -0.2442
     97  CE2      -18.5140  -24.8360  -13.4620 C.ar  309  TRP309      0.0810
     98  CE3      -19.1360  -26.7140  -12.0770 C.ar  309  TRP309      0.0012
     99  CZ2      -17.3750  -24.5930  -12.7060 C.ar  309  TRP309      0.0191
    100  CZ3      -18.0010  -26.4700  -11.3280 C.ar  309  TRP309      0.0001
    101  CH2      -17.1350  -25.4190  -11.6460 C.ar  309  TRP309      0.0015
    102  N        -22.5630  -24.7960  -11.5550 N.am  310  ARG310     -0.1980
    103  CA       -22.0690  -24.6080  -10.1890 C.3   310  ARG310      0.1597
    104  C        -23.1400  -24.9070   -9.1500 C.2   310  ARG310      0.2287
    105  O        -22.9670  -25.7810   -8.2890 O.2   310  ARG310     -0.2864
    106  CB       -21.5820  -23.1590  -10.0050 C.3   310  ARG310      0.0334
    107  CG       -21.0910  -22.8870   -8.5780 C.3   310  ARG310      0.0492
    108  CD       -20.1110  -21.7900   -8.4350 C.3   310  ARG310      0.2205
    109  NE       -20.3110  -20.6530   -9.3320 N.pl3 310  ARG310     -0.0865
    110  CZ       -21.2660  -19.7350   -9.1130 C.cat 310  ARG310      0.5346
    111  NH1      -22.0370  -19.7870   -8.0260 N.pl3 310  ARG310      0.1354
    112  NH2      -21.4740  -18.7930  -10.0370 N.pl3 310  ARG310      0.1354
@<TRIPOS>BOND
     1    33    32    2
     2    44    43    2
     3    32    31    1
     4    41    42    1
     5    31    30    1
     6    31    34    1
     7    43    42    1
     8    35    34    1
     9    35    36    1
    10    42    45    1
    11    36    37    1
    12    75    74    2
    13    37    38    2
    14    74    73    1
    15    45    46    1
    16    67    66    2
    17    47    46   ar
    18    14    13    2
    19    38    39    1
    20    38    40    1
    21    46    48   ar
    22    25    24    2
    23    73    72    1
    24    66    72   am
    25    66    65    1
    26    15    12    1
    27    15    16    1
    28    13    12    1
    29    13    22   am
    30    12    11    1
    31    24    23    1
    32    65    68    1
    33    65    64    1
    34    68    69    1
    35    58    57    2
    36    16    17   ar
    37    16    18   ar
    38    23    22    1
    39    23    26    1
    40    17    19   ar
    41    69    71   am
    42    69    70    2
    43    64    57   am
    44    57    56    1
    45    18    20   ar
    46    19    21   ar
    47    26    27    1
    48    28    27   ar
    49    20    21   ar
    50    56    55    1
    51    56    59    1
    52    27    29   ar
    53    59    60    1
    54     4     3    2
    55    60    61    1
    56    49    50    1
    57    76    77    1
    58    77    78    1
    59    77    80    1
    60    79    78    2
    61    82    84   ar
    62    82    81   ar
    63     3     2    1
    64    62    61    2
    65    50    53    1
    66    50    51    1
    67    84    86   ar
    68    61    63   am
    69    80    81    1
    70     2     5    1
    71     2     1    1
    72    94    96   ar
    73    94    93   ar
    74    81    83   ar
    75    53    54    1
    76    96    97   ar
    77     5     6    1
    78    51    52    2
    79    92    93    1
    80    92    89    1
    81    88    89    1
    82    93    95   ar
    83    86    87    1
    84    86    85   ar
    85    89    90    1
    86    83    85   ar
    87    97    95   ar
    88    97    99   ar
    89     6     8   ar
    90     6     7   ar
    91    95    98   ar
    92     8    10   ar
    93    99   101   ar
    94    90   102   am
    95    90    91    2
    96    98   100   ar
    97     7     9   ar
    98    10     9   ar
    99   101   100   ar
   100   102   103    1
   101   103   106    1
   102   103   104    1
   103   112   110    1
   104   106   107    1
   105   109   110    2
   106   109   108    1
   107   104   105    2
   108   110   111    1
   109   107   108    1
