@<TRIPOS>MOLECULE
tmp/6dusA00.pdb
 183 181 0 0 0
SMALL
GASTEIGER

@<TRIPOS>ATOM
      1  N        -19.4140  -26.1620  -26.6290 N.3    26  GLN26      -0.1231
      2  CA       -19.6020  -27.4840  -26.0490 C.3    26  GLN26       0.1698
      3  C        -20.8230  -27.4850  -25.1450 C.2    26  GLN26       0.2592
      4  O        -20.9700  -26.6020  -24.2950 O.2    26  GLN26      -0.2718
      5  CB       -18.3560  -27.9160  -25.2600 C.3    26  GLN26       0.0381
      6  CG       -18.5570  -29.1370  -24.3680 C.3    26  GLN26       0.0905
      7  CD       -17.3010  -29.5040  -23.5960 C.2    26  GLN26       0.2608
      8  OE1      -16.6110  -28.6350  -23.0550 O.2    26  GLN26      -0.2717
      9  NE2      -16.9940  -30.7950  -23.5460 N.am   26  GLN26      -0.0878
     10  N        -21.6930  -28.4770  -25.3250 N.am   27  TRP27      -0.1962
     11  CA       -22.7910  -28.7060  -24.3910 C.3    27  TRP27       0.1771
     12  C        -22.8980  -30.1930  -24.0800 C.2    27  TRP27       0.2620
     13  O        -23.2650  -31.0020  -24.9430 O.2    27  TRP27      -0.2715
     14  CB       -24.1230  -28.1730  -24.9140 C.3    27  TRP27       0.0590
     15  CG       -25.0970  -28.1460  -23.7960 C.ar   27  TRP27       0.0006
     16  CD1      -26.1870  -28.9520  -23.6260 C.ar   27  TRP27       0.0946
     17  CD2      -25.0210  -27.3210  -22.6300 C.ar   27  TRP27       0.0152
     18  NE1      -26.8150  -28.6530  -22.4390 N.ar   27  TRP27      -0.2442
     19  CE2      -26.1170  -27.6550  -21.8090 C.ar   27  TRP27       0.0810
     20  CE3      -24.1410  -26.3170  -22.2080 C.ar   27  TRP27       0.0012
     21  CZ2      -26.3560  -27.0190  -20.5910 C.ar   27  TRP27       0.0191
     22  CZ3      -24.3830  -25.6870  -20.9970 C.ar   27  TRP27       0.0001
     23  CH2      -25.4800  -26.0420  -20.2040 C.ar   27  TRP27       0.0015
     24  N        -22.5870  -30.5480  -22.8390 N.am   28  PHE28      -0.1960
     25  CA       -22.7640  -31.9010  -22.3330 C.3    28  PHE28       0.1771
     26  C        -23.9010  -31.8500  -21.3240 C.2    28  PHE28       0.2619
     27  O        -23.8000  -31.1550  -20.3080 O.2    28  PHE28      -0.2715
     28  CB       -21.4750  -32.4280  -21.6980 C.3    28  PHE28       0.0574
     29  CG       -20.4320  -32.8630  -22.6980 C.ar   28  PHE28      -0.0200
     30  CD1      -20.4470  -32.3890  -24.0040 C.ar   28  PHE28      -0.0042
     31  CD2      -19.4350  -33.7500  -22.3310 C.ar   28  PHE28      -0.0042
     32  CE1      -19.4870  -32.7900  -24.9200 C.ar   28  PHE28      -0.0003
     33  CE2      -18.4740  -34.1540  -23.2420 C.ar   28  PHE28      -0.0003
     34  CZ       -18.5020  -33.6730  -24.5380 C.ar   28  PHE28      -0.0000
     35  N        -24.9840  -32.5680  -21.6090 N.am   29  GLU29      -0.1963
     36  CA       -26.2260  -32.4360  -20.8600 C.3    29  GLU29       0.1733
     37  C        -26.4060  -33.6400  -19.9470 C.2    29  GLU29       0.2616
     38  O        -26.5130  -34.7760  -20.4230 O.2    29  GLU29      -0.2715
     39  CB       -27.4170  -32.3020  -21.8080 C.3    29  GLU29       0.0429
     40  CG       -28.7490  -32.0880  -21.1050 C.3    29  GLU29       0.1163
     41  CD       -28.6810  -30.9810  -20.0720 C.2    29  GLU29       0.3649
     42  OE1      -28.8970  -31.2650  -18.8720 O.co2  29  GLU29      -0.2457
     43  OE2      -28.4040  -29.8270  -20.4630 O.co2  29  GLU29      -0.2457
     44  N        -26.4780  -33.3800  -18.6400 N.am   30  ARG30      -0.1977
     45  CA       -26.7080  -34.4480  -17.6730 C.3    30  ARG30       0.1597
     46  C        -28.1810  -34.8440  -17.6270 C.2    30  ARG30       0.2287
     47  O        -28.5120  -36.0190  -17.4210 O.2    30  ARG30      -0.2864
     48  CB       -26.2420  -34.0090  -16.2880 C.3    30  ARG30       0.0334
     49  CG       -26.6230  -34.9610  -15.1640 C.3    30  ARG30       0.0492
     50  CD       -25.4470  -35.1950  -14.2300 C.3    30  ARG30       0.2205
     51  NE       -25.7760  -36.0500  -13.0930 N.pl3  30  ARG30      -0.0865
     52  CZ       -26.4650  -35.6550  -12.0270 C.cat  30  ARG30       0.5346
     53  NH1      -26.9180  -34.4100  -11.9450 N.pl3  30  ARG30       0.1354
     54  NH2      -26.7050  -36.5100  -11.0410 N.pl3  30  ARG30       0.1354
     55  N        -34.9780  -32.0930  -19.1550 N.3    34  ARG34      -0.1245
     56  CA       -35.3890  -30.7120  -18.9430 C.3    34  ARG34       0.1563
     57  C        -35.6330  -29.9540  -20.2420 C.2    34  ARG34       0.2260
     58  O        -35.9520  -28.7590  -20.1930 O.2    34  ARG34      -0.2867
     59  CB       -34.3510  -29.9700  -18.0940 C.3    34  ARG34       0.0307
     60  CG       -33.1310  -29.4860  -18.8510 C.3    34  ARG34       0.0489
     61  CD       -31.9620  -29.3270  -17.8950 C.3    34  ARG34       0.2205
     62  NE       -31.0280  -28.2940  -18.3300 N.pl3  34  ARG34      -0.0865
     63  CZ       -29.8090  -28.1350  -17.8270 C.cat  34  ARG34       0.5346
     64  NH1      -29.0210  -27.1710  -18.2850 N.pl3  34  ARG34       0.1354
     65  NH2      -29.3770  -28.9430  -16.8680 N.pl3  34  ARG34       0.1354
     66  N        -27.6790  -19.8240  -23.9650 N.3    50  TYR50      -0.1241
     67  CA       -26.4690  -20.3330  -24.6020 C.3    50  TYR50       0.1605
     68  C        -26.7260  -20.7550  -26.0440 C.2    50  TYR50       0.2264
     69  O        -25.8830  -20.5220  -26.9170 O.2    50  TYR50      -0.2867
     70  CB       -25.8880  -21.4830  -23.7800 C.3    50  TYR50       0.0534
     71  CG       -25.2620  -21.0370  -22.4700 C.ar   50  TYR50      -0.0201
     72  CD1      -25.3040  -19.7050  -22.0730 C.ar   50  TYR50      -0.0009
     73  CD2      -24.6230  -21.9470  -21.6350 C.ar   50  TYR50      -0.0009
     74  CE1      -24.7380  -19.2930  -20.8860 C.ar   50  TYR50       0.0417
     75  CE2      -24.0530  -21.5430  -20.4430 C.ar   50  TYR50       0.0417
     76  CZ       -24.1150  -20.2140  -20.0740 C.ar   50  TYR50       0.1957
     77  OH       -23.5510  -19.8030  -18.8900 O.3    50  TYR50      -0.2866
     78  N        -16.6060  -33.0040  -19.0740 N.3   165  PHE165     -0.1241
     79  CA       -16.5430  -32.2040  -20.2850 C.3   165  PHE165      0.1605
     80  C        -15.2580  -31.3890  -20.3840 C.2   165  PHE165      0.2264
     81  O        -14.8550  -31.0680  -21.5040 O.2   165  PHE165     -0.2867
     82  CB       -17.8110  -31.3380  -20.4630 C.3   165  PHE165      0.0534
     83  CG       -18.0940  -30.3230  -19.3760 C.ar  165  PHE165     -0.0203
     84  CD1      -17.2740  -29.2220  -19.1820 C.ar  165  PHE165     -0.0042
     85  CD2      -19.2650  -30.4120  -18.6340 C.ar  165  PHE165     -0.0042
     86  CE1      -17.5760  -28.2710  -18.2200 C.ar  165  PHE165     -0.0003
     87  CE2      -19.5780  -29.4610  -17.6740 C.ar  165  PHE165     -0.0003
     88  CZ       -18.7320  -28.3880  -17.4690 C.ar  165  PHE165     -0.0000
     89  N        -13.1410  -31.8440  -23.6810 N.3   169  ARG169     -0.1245
     90  CA       -12.7570  -30.6010  -24.3410 C.3   169  ARG169      0.1563
     91  C        -11.2880  -30.6340  -24.7420 C.2   169  ARG169      0.2260
     92  O        -10.9320  -30.3210  -25.8880 O.2   169  ARG169     -0.2867
     93  CB       -13.0440  -29.4100  -23.4240 C.3   169  ARG169      0.0307
     94  CG       -12.8140  -28.0600  -24.0890 C.3   169  ARG169      0.0489
     95  CD       -13.0780  -26.8940  -23.1450 C.3   169  ARG169      0.2205
     96  NE       -14.3770  -26.9850  -22.4800 N.pl3 169  ARG169     -0.0865
     97  CZ       -14.7310  -26.2480  -21.4300 C.cat 169  ARG169      0.5346
     98  NH1      -13.8870  -25.3560  -20.9280 N.pl3 169  ARG169      0.1354
     99  NH2      -15.9310  -26.3960  -20.8850 N.pl3 169  ARG169      0.1354
    100  N        -11.8980  -22.8590  -29.1580 N.3   199  TYR199     -0.1241
    101  CA       -12.9820  -23.1830  -28.2410 C.3   199  TYR199      0.1605
    102  C        -13.3800  -21.9600  -27.4280 C.2   199  TYR199      0.2264
    103  O        -12.5230  -21.3010  -26.8270 O.2   199  TYR199     -0.2867
    104  CB       -12.6030  -24.3030  -27.2720 C.3   199  TYR199      0.0534
    105  CG       -13.6340  -24.3930  -26.1690 C.ar  199  TYR199     -0.0201
    106  CD1      -14.8530  -25.0210  -26.3950 C.ar  199  TYR199     -0.0009
    107  CD2      -13.4240  -23.7930  -24.9280 C.ar  199  TYR199     -0.0009
    108  CE1      -15.8200  -25.0830  -25.4130 C.ar  199  TYR199      0.0417
    109  CE2      -14.3930  -23.8430  -23.9370 C.ar  199  TYR199      0.0417
    110  CZ       -15.5870  -24.4960  -24.1860 C.ar  199  TYR199      0.1957
    111  OH       -16.5580  -24.5620  -23.2120 O.3   199  TYR199     -0.2866
    112  N        -16.3940  -20.8080  -24.4040 N.3   201  ASP201     -0.1225
    113  CA       -17.5780  -20.9920  -23.5730 C.3   201  ASP201      0.1805
    114  C        -18.7870  -20.3420  -24.2420 C.2   201  ASP201      0.2598
    115  O        -18.6760  -19.2880  -24.8730 O.2   201  ASP201     -0.2718
    116  CB       -17.3510  -20.3810  -22.1880 C.3   201  ASP201      0.1424
    117  CG       -16.7720  -21.3720  -21.1910 C.2   201  ASP201      0.3668
    118  OD1      -16.3940  -22.4920  -21.5990 O.co2 201  ASP201     -0.2456
    119  OD2      -16.6890  -21.0200  -19.9920 O.co2 201  ASP201     -0.2456
    120  N        -19.9510  -20.9780  -24.1070 N.am  202  ALA202     -0.1966
    121  CA       -21.1580  -20.4560  -24.7450 C.3   202  ALA202      0.1728
    122  C        -21.5440  -19.0670  -24.2450 C.2   202  ALA202      0.2616
    123  O        -22.2530  -18.3450  -24.9530 O.2   202  ALA202     -0.2715
    124  CB       -22.3240  -21.4240  -24.5410 C.3   202  ALA202      0.0334
    125  N        -21.0930  -18.6700  -23.0570 N.am  203  ASP203     -0.1971
    126  CA       -21.3860  -17.3510  -22.5130 C.3   203  ASP203      0.1709
    127  C        -20.3880  -16.2910  -22.9690 C.2   203  ASP203      0.2293
    128  O        -20.3940  -15.1770  -22.4350 O.2   203  ASP203     -0.2864
    129  CB       -21.4360  -17.4060  -20.9830 C.3   203  ASP203      0.1436
    130  CG       -20.0710  -17.6310  -20.3570 C.2   203  ASP203      0.3671
    131  OD1      -19.1290  -18.0380  -21.0660 O.co2 203  ASP203     -0.2456
    132  OD2      -19.9380  -17.3970  -19.1410 O.co2 203  ASP203     -0.2456
    133  N        -17.2570  -14.3360  -20.3160 N.3   300  ASP300     -0.1239
    134  CA       -17.8150  -14.9400  -19.1070 C.3   300  ASP300      0.1674
    135  C        -19.0460  -14.1790  -18.6120 C.2   300  ASP300      0.2266
    136  O        -19.1160  -13.7300  -17.4670 O.2   300  ASP300     -0.2867
    137  CB       -16.7490  -15.0380  -18.0120 C.3   300  ASP300      0.1410
    138  CG       -17.1300  -16.0140  -16.9130 C.2   300  ASP300      0.3668
    139  OD1      -18.1290  -16.7450  -17.0730 O.co2 300  ASP300     -0.2456
    140  OD2      -16.4290  -16.0540  -15.8840 O.co2 300  ASP300     -0.2456
    141  N        -21.7140  -15.4160  -17.8210 N.3   302  SER302     -0.1217
    142  CA       -22.3690  -16.1900  -16.7750 C.3   302  SER302      0.1889
    143  C        -22.0740  -15.6560  -15.3800 C.2   302  SER302      0.2288
    144  O        -22.7530  -16.0600  -14.4280 O.2   302  SER302     -0.2866
    145  CB       -21.9510  -17.6580  -16.8580 C.3   302  SER302      0.2089
    146  OG       -20.5980  -17.8140  -16.4620 O.3   302  SER302     -0.2183
    147  N        -23.7910  -19.5090  -12.8630 N.3   307  SER307     -0.1202
    148  CA       -23.0790  -20.5260  -13.6240 C.3   307  SER307      0.2020
    149  C        -24.0140  -21.6900  -13.9530 C.2   307  SER307      0.2619
    150  O        -24.9280  -22.0140  -13.1900 O.2   307  SER307     -0.2717
    151  CB       -21.8660  -21.0190  -12.8360 C.3   307  SER307      0.2103
    152  OG       -21.3330  -22.2060  -13.3910 O.3   307  SER307     -0.2182
    153  N        -23.7850  -22.3220  -15.1100 N.am  308  SER308     -0.1937
    154  CA       -24.6770  -23.3780  -15.5790 C.3   308  SER308      0.2055
    155  C        -24.4050  -24.7310  -14.9310 C.2   308  SER308      0.2643
    156  O        -25.2280  -25.6440  -15.0740 O.2   308  SER308     -0.2714
    157  CB       -24.5740  -23.5260  -17.0980 C.3   308  SER308      0.2130
    158  OG       -23.5310  -22.7220  -17.6190 O.3   308  SER308     -0.2179
    159  N        -23.2780  -24.8830  -14.2330 N.am  309  TRP309     -0.1959
    160  CA       -22.9020  -26.1360  -13.5970 C.3   309  TRP309      0.1771
    161  C        -22.6720  -26.0120  -12.0970 C.2   309  TRP309      0.2619
    162  O        -22.6470  -27.0430  -11.4140 O.2   309  TRP309     -0.2715
    163  CB       -21.6400  -26.7300  -14.2390 C.3   309  TRP309      0.0590
    164  CG       -20.4550  -25.8330  -14.1440 C.ar  309  TRP309      0.0006
    165  CD1      -20.1620  -24.7880  -14.9660 C.ar  309  TRP309      0.0946
    166  CD2      -19.4060  -25.8850  -13.1690 C.ar  309  TRP309      0.0152
    167  NE1      -18.9980  -24.1810  -14.5640 N.ar  309  TRP309     -0.2442
    168  CE2      -18.5140  -24.8360  -13.4620 C.ar  309  TRP309      0.0810
    169  CE3      -19.1360  -26.7140  -12.0770 C.ar  309  TRP309      0.0012
    170  CZ2      -17.3750  -24.5930  -12.7060 C.ar  309  TRP309      0.0191
    171  CZ3      -18.0010  -26.4700  -11.3280 C.ar  309  TRP309      0.0001
    172  CH2      -17.1350  -25.4190  -11.6460 C.ar  309  TRP309      0.0015
    173  N        -22.5630  -24.7960  -11.5550 N.am  310  ARG310     -0.1977
    174  CA       -22.0690  -24.6080  -10.1890 C.3   310  ARG310      0.1597
    175  C        -23.1400  -24.9070   -9.1500 C.2   310  ARG310      0.2287
    176  O        -22.9670  -25.7810   -8.2890 O.2   310  ARG310     -0.2864
    177  CB       -21.5820  -23.1590  -10.0050 C.3   310  ARG310      0.0334
    178  CG       -21.0910  -22.8870   -8.5780 C.3   310  ARG310      0.0492
    179  CD       -20.1110  -21.7900   -8.4350 C.3   310  ARG310      0.2205
    180  NE       -20.3110  -20.6530   -9.3320 N.pl3 310  ARG310     -0.0865
    181  CZ       -21.2660  -19.7350   -9.1130 C.cat 310  ARG310      0.5346
    182  NH1      -22.0370  -19.7870   -8.0260 N.pl3 310  ARG310      0.1354
    183  NH2      -21.4740  -18.7930  -10.0370 N.pl3 310  ARG310      0.1354
@<TRIPOS>BOND
     1   100   101    1
     2   101   102    1
     3   101   104    1
     4   102   103    2
     5   104   105    1
     6    69    68    2
     7     1     2    1
     8   106   105   ar
     9   106   108   ar
    10   105   107   ar
    11     2     5    1
    12     2     3    1
    13    68    67    1
    14    92    91    2
    15   108   110   ar
    16    10     3   am
    17    10    11    1
    18     5     6    1
    19     3     4    2
    20   123   122    2
    21    13    12    2
    22   107   109   ar
    23    32    34   ar
    24    32    30   ar
    25    14    11    1
    26    14    15    1
    27   115   114    2
    28   121   124    1
    29   121   122    1
    30   121   120    1
    31    91    90    1
    32    67    66    1
    33    67    70    1
    34    34    33   ar
    35   112   113    1
    36    11    12    1
    37     6     7    1
    38    90    89    1
    39    90    93    1
    40   122   125   am
    41   114   120   am
    42   114   113    1
    43   110   109   ar
    44   110   111    1
    45    94    93    1
    46    94    95    1
    47    12    24   am
    48    30    29   ar
    49    15    16   ar
    50    15    17   ar
    51    70    71    1
    52    16    18   ar
    53     7     9   am
    54     7     8    2
    55   113   116    1
    56    33    31   ar
    57    95    96    1
    58   125   126    1
    59   127   126    1
    60   127   128    2
    61    24    25    1
    62    29    31   ar
    63    29    28    1
    64    17    20   ar
    65    17    19   ar
    66   126   129    1
    67    96    97    2
    68    71    72   ar
    69    71    73   ar
    70    18    19   ar
    71    25    28    1
    72    25    26    1
    73    20    22   ar
    74   116   117    1
    75    72    74   ar
    76    19    21   ar
    77    39    40    1
    78    39    36    1
    79    73    75   ar
    80    35    26   am
    81    35    36    1
    82   118   117   ar
    83    81    80    2
    84    97    98    1
    85    97    99    1
    86    26    27    2
    87   117   119   ar
    88    40    41    1
    89   131   130   ar
    90    22    23   ar
    91   129   130    1
    92    74    76   ar
    93    36    37    1
    94    21    23   ar
    95    43    41   ar
    96    82    79    1
    97    82    83    1
    98    75    76   ar
    99    38    37    2
   100    80    79    1
   101   130   132   ar
   102   133   134    1
   103    79    78    1
   104    57    58    2
   105    57    56    1
   106    76    77    1
   107    41    42   ar
   108    37    44   am
   109    83    84   ar
   110    83    85   ar
   111    84    86   ar
   112    55    56    1
   113   134   135    1
   114   134   137    1
   115    56    59    1
   116    60    59    1
   117    60    61    1
   118    44    45    1
   119    85    87   ar
   120   135   136    2
   121    62    61    1
   122    62    63    2
   123    64    63    1
   124    86    88   ar
   125   137   138    1
   126    63    65    1
   127   141   142    1
   128    87    88   ar
   129    45    46    1
   130    45    48    1
   131    46    47    2
   132   158   157    1
   133   157   154    1
   134   139   138   ar
   135   138   140   ar
   136   145   142    1
   137   145   146    1
   138   142   143    1
   139    48    49    1
   140   154   153    1
   141   154   155    1
   142   143   144    2
   143    49    50    1
   144   153   149   am
   145   156   155    2
   146   165   167   ar
   147   165   164   ar
   148   155   159   am
   149   167   168   ar
   150   163   164    1
   151   163   160    1
   152   159   160    1
   153    50    51    1
   154   164   166   ar
   155   149   148    1
   156   149   150    2
   157   148   147    1
   158   148   151    1
   159   160   161    1
   160   168   166   ar
   161   168   170   ar
   162   152   151    1
   163   166   169   ar
   164    51    52    2
   165   170   172   ar
   166   161   173   am
   167   161   162    2
   168   169   171   ar
   169    52    53    1
   170    52    54    1
   171   172   171   ar
   172   173   174    1
   173   174   177    1
   174   174   175    1
   175   183   181    1
   176   177   178    1
   177   180   181    2
   178   180   179    1
   179   175   176    2
   180   181   182    1
   181   178   179    1
