@<TRIPOS>MOLECULE
tmp/6dusA03.pdb
 88 86 0 0 0
SMALL
GASTEIGER

@<TRIPOS>ATOM
      1  N        -22.5870  -30.5480  -22.8390 N.3    28  PHE28      -0.1227
      2  CA       -22.7640  -31.9010  -22.3330 C.3    28  PHE28       0.1736
      3  C        -23.9010  -31.8500  -21.3240 C.2    28  PHE28       0.2595
      4  O        -23.8000  -31.1550  -20.3080 O.2    28  PHE28      -0.2718
      5  CB       -21.4750  -32.4280  -21.6980 C.3    28  PHE28       0.0547
      6  CG       -20.4320  -32.8630  -22.6980 C.ar   28  PHE28      -0.0202
      7  CD1      -20.4470  -32.3890  -24.0040 C.ar   28  PHE28      -0.0042
      8  CD2      -19.4350  -33.7500  -22.3310 C.ar   28  PHE28      -0.0042
      9  CE1      -19.4870  -32.7900  -24.9200 C.ar   28  PHE28      -0.0003
     10  CE2      -18.4740  -34.1540  -23.2420 C.ar   28  PHE28      -0.0003
     11  CZ       -18.5020  -33.6730  -24.5380 C.ar   28  PHE28      -0.0000
     12  N        -24.9840  -32.5680  -21.6090 N.am   29  GLU29      -0.1965
     13  CA       -26.2260  -32.4360  -20.8600 C.3    29  GLU29       0.1733
     14  C        -26.4060  -33.6400  -19.9470 C.2    29  GLU29       0.2616
     15  O        -26.5130  -34.7760  -20.4230 O.2    29  GLU29      -0.2715
     16  CB       -27.4170  -32.3020  -21.8080 C.3    29  GLU29       0.0429
     17  CG       -28.7490  -32.0880  -21.1050 C.3    29  GLU29       0.1163
     18  CD       -28.6810  -30.9810  -20.0720 C.2    29  GLU29       0.3649
     19  OE1      -28.8970  -31.2650  -18.8720 O.co2  29  GLU29      -0.2457
     20  OE2      -28.4040  -29.8270  -20.4630 O.co2  29  GLU29      -0.2457
     21  N        -26.4780  -33.3800  -18.6400 N.am   30  ARG30      -0.1977
     22  CA       -26.7080  -34.4480  -17.6730 C.3    30  ARG30       0.1597
     23  C        -28.1810  -34.8440  -17.6270 C.2    30  ARG30       0.2287
     24  O        -28.5120  -36.0190  -17.4210 O.2    30  ARG30      -0.2864
     25  CB       -26.2420  -34.0090  -16.2880 C.3    30  ARG30       0.0334
     26  CG       -26.6230  -34.9610  -15.1640 C.3    30  ARG30       0.0492
     27  CD       -25.4470  -35.1950  -14.2300 C.3    30  ARG30       0.2205
     28  NE       -25.7760  -36.0500  -13.0930 N.pl3  30  ARG30      -0.0865
     29  CZ       -26.4650  -35.6550  -12.0270 C.cat  30  ARG30       0.5346
     30  NH1      -26.9180  -34.4100  -11.9450 N.pl3  30  ARG30       0.1354
     31  NH2      -26.7050  -36.5100  -11.0410 N.pl3  30  ARG30       0.1354
     32  N        -23.1040  -33.8130  -25.9520 N.3    71  ASP71      -0.1225
     33  CA       -23.1470  -35.1600  -25.3970 C.3    71  ASP71       0.1805
     34  C        -24.2930  -35.2650  -24.4060 C.2    71  ASP71       0.2598
     35  O        -24.7060  -34.2720  -23.8020 O.2    71  ASP71      -0.2718
     36  CB       -21.8260  -35.5500  -24.7250 C.3    71  ASP71       0.1424
     37  CG       -21.6210  -37.0560  -24.6760 C.2    71  ASP71       0.3668
     38  OD1      -22.4950  -37.7930  -25.1870 O.co2  71  ASP71      -0.2456
     39  OD2      -20.5870  -37.5030  -24.1350 O.co2  71  ASP71      -0.2456
     40  N        -24.7970  -36.4770  -24.2550 N.am   72  GLY72      -0.1957
     41  CA       -25.9030  -36.7690  -23.3620 C.3    72  GLY72       0.1869
     42  C        -26.8730  -37.7390  -24.0090 C.2    72  GLY72       0.2309
     43  O        -26.9200  -37.9010  -25.2290 O.2    72  GLY72      -0.2863
     44  N        -17.7500  -39.8520  -14.8250 N.3   159  ARG159     -0.1231
     45  CA       -18.0230  -38.6340  -14.0800 C.3   159  ARG159      0.1694
     46  C        -19.2930  -37.9740  -14.6020 C.2   159  ARG159      0.2592
     47  O        -19.6970  -38.1570  -15.7540 O.2   159  ARG159     -0.2718
     48  CB       -16.8490  -37.6600  -14.1710 C.3   159  ARG159      0.0321
     49  CG       -15.5020  -38.2780  -13.8410 C.3   159  ARG159      0.0489
     50  CD       -15.4380  -38.6890  -12.3800 C.3   159  ARG159      0.2205
     51  NE       -15.6380  -37.5570  -11.4790 N.pl3 159  ARG159     -0.0865
     52  CZ       -14.6610  -36.9610  -10.8050 C.cat 159  ARG159      0.5346
     53  NH1      -13.4120  -37.3900  -10.9320 N.pl3 159  ARG159      0.1354
     54  NH2      -14.9330  -35.9380  -10.0050 N.pl3 159  ARG159      0.1354
     55  N        -19.9240  -37.1900  -13.7320 N.am  160  LEU160     -0.1966
     56  CA       -21.2360  -36.6190  -14.0080 C.3   160  LEU160      0.1728
     57  C        -21.2270  -35.0970  -13.9970 C.2   160  LEU160      0.2616
     58  O        -22.2930  -34.4840  -14.1150 O.2   160  LEU160     -0.2715
     59  CB       -22.2740  -37.1570  -13.0170 C.3   160  LEU160      0.0311
     60  CG       -22.4830  -38.6740  -13.0770 C.3   160  LEU160      0.0022
     61  CD1      -23.2810  -39.1600  -11.8800 C.3   160  LEU160      0.0001
     62  CD2      -23.1570  -39.0860  -14.3810 C.3   160  LEU160      0.0001
     63  N        -20.0670  -34.4700  -13.8210 N.am  161  GLY161     -0.1955
     64  CA       -19.9760  -33.0360  -13.6730 C.3   161  GLY161      0.1869
     65  C        -19.0100  -32.4240  -14.6730 C.2   161  GLY161      0.2309
     66  O        -18.8390  -32.9110  -15.7960 O.2   161  GLY161     -0.2863
     67  N        -15.7990  -34.2410  -16.5860 N.3   164  ARG164     -0.1231
     68  CA       -15.9880  -35.0080  -17.8130 C.3   164  ARG164      0.1694
     69  C        -15.8710  -34.1200  -19.0470 C.2   164  ARG164      0.2592
     70  O        -15.1290  -34.4390  -19.9910 O.2   164  ARG164     -0.2718
     71  CB       -17.3430  -35.7150  -17.7830 C.3   164  ARG164      0.0321
     72  CG       -17.6170  -36.5290  -19.0320 C.3   164  ARG164      0.0489
     73  CD       -18.6500  -37.6200  -18.8020 C.3   164  ARG164      0.2205
     74  NE       -18.6630  -38.5710  -19.9100 N.pl3 164  ARG164     -0.0865
     75  CZ       -19.2030  -38.3270  -21.1030 C.cat 164  ARG164      0.5346
     76  NH1      -19.7770  -37.1600  -21.3500 N.pl3 164  ARG164      0.1354
     77  NH2      -19.1670  -39.2500  -22.0530 N.pl3 164  ARG164      0.1354
     78  N        -16.6060  -33.0040  -19.0740 N.am  165  PHE165     -0.1976
     79  CA       -16.5430  -32.2040  -20.2850 C.3   165  PHE165      0.1639
     80  C        -15.2580  -31.3890  -20.3840 C.2   165  PHE165      0.2290
     81  O        -14.8550  -31.0680  -21.5040 O.2   165  PHE165     -0.2864
     82  CB       -17.8110  -31.3380  -20.4630 C.3   165  PHE165      0.0560
     83  CG       -18.0940  -30.3230  -19.3760 C.ar  165  PHE165     -0.0200
     84  CD1      -17.2740  -29.2220  -19.1820 C.ar  165  PHE165     -0.0042
     85  CD2      -19.2650  -30.4120  -18.6340 C.ar  165  PHE165     -0.0042
     86  CE1      -17.5760  -28.2710  -18.2200 C.ar  165  PHE165     -0.0003
     87  CE2      -19.5780  -29.4610  -17.6740 C.ar  165  PHE165     -0.0003
     88  CZ       -18.7320  -28.3880  -17.4690 C.ar  165  PHE165     -0.0000
@<TRIPOS>BOND
     1    32    33    1
     2    33    36    1
     3    33    34    1
     4    43    42    2
     5    38    37   ar
     6     9    11   ar
     7     9     7   ar
     8    36    37    1
     9    37    39   ar
    10    11    10   ar
    11    34    40   am
    12    34    35    2
    13    40    41    1
    14    42    41    1
    15     7     6   ar
    16    10     8   ar
    17     1     2    1
    18     6     8   ar
    19     6     5    1
    20     2     5    1
    21     2     3    1
    22    77    75    1
    23    16    17    1
    24    16    13    1
    25    12     3   am
    26    12    13    1
    27    81    80    2
    28    76    75    1
    29     3     4    2
    30    17    18    1
    31    75    74    2
    32    13    14    1
    33    82    79    1
    34    82    83    1
    35    20    18   ar
    36    15    14    2
    37    80    79    1
    38    79    78    1
    39    18    19   ar
    40    70    69    2
    41    14    21   am
    42    74    73    1
    43    83    84   ar
    44    83    85   ar
    45    84    86   ar
    46    78    69   am
    47    69    68    1
    48    72    73    1
    49    72    71    1
    50    21    22    1
    51    85    87   ar
    52    86    88   ar
    53    68    71    1
    54    68    67    1
    55    87    88   ar
    56    22    23    1
    57    22    25    1
    58    23    24    2
    59    25    26    1
    60    66    65    2
    61    47    46    2
    62    26    27    1
    63    44    45    1
    64    65    64    1
    65    46    45    1
    66    46    55   am
    67    62    60    1
    68    27    28    1
    69    48    45    1
    70    48    49    1
    71    58    57    2
    72    56    57    1
    73    56    55    1
    74    56    59    1
    75    57    63   am
    76    49    50    1
    77    63    64    1
    78    28    29    2
    79    60    59    1
    80    60    61    1
    81    50    51    1
    82    29    30    1
    83    29    31    1
    84    51    52    2
    85    53    52    1
    86    52    54    1
