@<TRIPOS>MOLECULE
tmp/6duxA01.pdb
 71 69 0 0 0
SMALL
GASTEIGER

@<TRIPOS>ATOM
      1  N         31.7790   41.5070    5.9510 N.3   100  GLY100     -0.1210
      2  CA        30.4790   42.1440    5.7010 C.3   100  GLY100      0.1956
      3  C         29.2880   41.2170    5.9000 C.2   100  GLY100      0.2612
      4  O         28.2140   41.4700    5.3640 O.2   100  GLY100     -0.2717
      5  N         29.4710   40.1550    6.6880 N.am  101  VAL101     -0.1965
      6  CA        28.3790   39.1940    6.9880 C.3   101  VAL101      0.1727
      7  C         28.1430   39.2170    8.4980 C.2   101  VAL101      0.2616
      8  O         29.0880   39.3440    9.2700 O.2   101  VAL101     -0.2715
      9  CB        28.7130   37.7890    6.4590 C.3   101  VAL101      0.0290
     10  CG1       27.7540   36.7280    6.9740 C.3   101  VAL101      0.0023
     11  CG2       28.7600   37.7880    4.9360 C.3   101  VAL101      0.0023
     12  N         26.8760   39.1100    8.9070 N.am  102  LEU102     -0.1977
     13  CA        26.5440   39.1950   10.3140 C.3   102  LEU102      0.1596
     14  C         27.2220   38.0630   11.0880 C.2   102  LEU102      0.2287
     15  O         27.3630   36.9400   10.5940 O.2   102  LEU102     -0.2864
     16  CB        25.0210   39.1800   10.4980 C.3   102  LEU102      0.0297
     17  CG        24.2740   37.8920   10.1300 C.3   102  LEU102      0.0022
     18  CD1       24.2870   36.8850   11.2820 C.3   102  LEU102      0.0001
     19  CD2       22.8320   38.2070    9.7540 C.3   102  LEU102      0.0001
     20  N         19.3030   40.6470    7.0840 N.3   252  PRO252     -0.2102
     21  CA        20.7230   40.4870    7.3930 C.3   252  PRO252      0.1504
     22  C         21.5310   41.7720    7.1390 C.2   252  PRO252      0.2575
     23  O         22.5070   42.0230    7.8550 O.2   252  PRO252     -0.2718
     24  CB        21.1640   39.3310    6.4840 C.3   252  PRO252      0.0282
     25  CG        20.1620   39.3340    5.3470 C.3   252  PRO252      0.0208
     26  CD        18.8630   39.8170    5.9510 C.3   252  PRO252      0.0893
     27  N         21.0980   42.5620    6.1410 N.am  253  ASP253     -0.1974
     28  CA        21.7380   43.8290    5.7950 C.3   253  ASP253      0.1708
     29  C         21.5830   44.8000    6.9750 C.2   253  ASP253      0.2293
     30  O         22.5150   45.5400    7.3090 O.2   253  ASP253     -0.2864
     31  CB        21.2120   44.3870    4.4610 C.3   253  ASP253      0.1436
     32  CG        19.6930   44.5030    4.3240 C.2   253  ASP253      0.3671
     33  OD1       18.9530   44.0620    5.2590 O.co2 253  ASP253     -0.2456
     34  OD2       19.2460   45.0260    3.2690 O.co2 253  ASP253     -0.2456
     35  N         24.0030   43.6930    9.8290 N.3   256  VAL256     -0.1245
     36  CA        25.4020   44.0740    9.5650 C.3   256  VAL256      0.1561
     37  C         25.5600   45.5860    9.7960 C.2   256  VAL256      0.2260
     38  O         26.5260   46.0270   10.3990 O.2   256  VAL256     -0.2867
     39  CB        25.8640   43.6830    8.1430 C.3   256  VAL256      0.0252
     40  CG1       27.1940   44.3340    7.7780 C.3   256  VAL256      0.0019
     41  CG2       25.9560   42.1800    7.9620 C.3   256  VAL256      0.0019
     42  N         21.0490   32.3310    3.8660 N.3   391  LYS391     -0.1231
     43  CA        20.4260   33.5570    3.4410 C.3   391  LYS391      0.1693
     44  C         21.1700   34.7590    4.0440 C.2   391  LYS391      0.2593
     45  O         20.9120   35.9040    3.6730 O.2   391  LYS391     -0.2718
     46  CB        18.9520   33.5430    3.8490 C.3   391  LYS391      0.0285
     47  CG        18.0750   34.5910    3.1850 C.3   391  LYS391      0.0035
     48  CD        16.5980   34.3350    3.4040 C.3   391  LYS391      0.0206
     49  CE        15.7030   35.3380    2.7060 C.3   391  LYS391      0.1093
     50  NZ        15.9710   35.3870    1.2550 N.3   391  LYS391     -0.1314
     51  N         22.1160   34.4960    4.9540 N.am  392  THR392     -0.1939
     52  CA        22.8770   35.5830    5.5990 C.3   392  THR392      0.2028
     53  C         24.1260   35.9410    4.7870 C.2   392  THR392      0.2642
     54  O         24.7790   36.9400    5.0780 O.2   392  THR392     -0.2714
     55  CB        23.3470   35.1920    7.0090 C.3   392  THR392      0.1808
     56  OG1       24.2620   34.1050    6.8810 O.3   392  THR392     -0.2208
     57  CG2       22.2220   34.7970    7.9410 C.3   392  THR392      0.0379
     58  N         24.4370   35.1090    3.7880 N.am  393  VAL393     -0.1963
     59  CA        25.6510   35.2230    2.9920 C.3   393  VAL393      0.1712
     60  C         25.3040   35.6370    1.5580 C.2   393  VAL393      0.2458
     61  O         24.4790   35.0040    0.8970 O.2   393  VAL393     -0.2730
     62  CB        26.4230   33.8940    3.0540 C.3   393  VAL393      0.0289
     63  CG1       27.6230   33.8680    2.1280 C.3   393  VAL393      0.0023
     64  CG2       26.8430   33.5950    4.4790 C.3   393  VAL393      0.0023
     65  N         25.9480   36.7010    1.0230 N.am  394  PRO394     -0.2727
     66  CA        25.6330   37.1940   -0.3160 C.3   394  PRO394      0.1402
     67  C         26.1360   36.3690   -1.5170 C.2   394  PRO394      0.2269
     68  O         25.5180   36.4150   -2.5650 O.2   394  PRO394     -0.2865
     69  CB        26.3050   38.5810   -0.3450 C.3   394  PRO394      0.0296
     70  CG        27.4580   38.4800    0.6410 C.3   394  PRO394      0.0237
     71  CD        26.9770   37.5090    1.7000 C.3   394  PRO394      0.0939
@<TRIPOS>BOND
     1    68    67    2
     2    67    66    1
     3    69    66    1
     4    69    70    1
     5    66    65    1
     6    70    71    1
     7    61    60    2
     8    65    60   am
     9    65    71    1
    10    50    49    1
    11    60    59    1
    12    63    62    1
    13    49    48    1
    14    59    62    1
    15    59    58    1
    16    62    64    1
    17    47    48    1
    18    47    46    1
    19    34    32   ar
    20    43    46    1
    21    43    42    1
    22    43    44    1
    23    45    44    2
    24    58    53   am
    25    44    51   am
    26    32    31    1
    27    32    33   ar
    28    31    28    1
    29    53    54    2
    30    53    52    1
    31    11     9    1
    32    51    52    1
    33    25    26    1
    34    25    24    1
    35     4     3    2
    36    52    55    1
    37     2     3    1
    38     2     1    1
    39    28    27    1
    40    28    29    1
    41     3     5   am
    42    26    20    1
    43    27    22   am
    44     9    10    1
    45     9     6    1
    46    24    21    1
    47     5     6    1
    48    56    55    1
    49    29    30    2
    50     6     7    1
    51    55    57    1
    52    20    21    1
    53    22    21    1
    54    22    23    2
    55    40    39    1
    56    41    39    1
    57    39    36    1
    58     7    12   am
    59     7     8    2
    60    12    13    1
    61    36    37    1
    62    36    35    1
    63    19    17    1
    64    37    38    2
    65    17    16    1
    66    17    18    1
    67    13    16    1
    68    13    14    1
    69    15    14    2
