@<TRIPOS>MOLECULE
tmp/6dv4B00.pdb
 129 123 0 0 0
SMALL
GASTEIGER

@<TRIPOS>ATOM
      1  N         17.4910   26.2310   28.1790 N.3    23  LEU23      -0.1245
      2  CA        17.0660   27.1700   27.1590 C.3    23  LEU23       0.1561
      3  C         15.5740   27.0720   26.9500 C.2    23  LEU23       0.2260
      4  O         15.0740   25.9750   26.6340 O.2    23  LEU23      -0.2867
      5  CB        17.8420   26.7670   25.8740 C.3    23  LEU23       0.0270
      6  CG        17.6840   27.5940   24.6310 C.3    23  LEU23       0.0019
      7  CD1       18.2830   28.9640   24.8310 C.3    23  LEU23       0.0001
      8  CD2       18.4280   26.8460   23.5130 C.3    23  LEU23       0.0001
      9  N         12.6970   27.0810   24.6280 N.3    25  ASP25      -0.1239
     10  CA        12.8200   26.8020   23.2150 C.3    25  ASP25       0.1674
     11  C         11.4990   26.4850   22.5520 C.2    25  ASP25       0.2266
     12  O         10.9870   25.3600   22.5770 O.2    25  ASP25      -0.2867
     13  CB        13.7090   25.5510   23.0880 C.3    25  ASP25       0.1410
     14  CG        14.1290   25.3280   21.6480 C.2    25  ASP25       0.3668
     15  OD1       13.6160   26.0160   20.7200 O.co2  25  ASP25      -0.2456
     16  OD2       14.9540   24.4160   21.4310 O.co2  25  ASP25      -0.2456
     17  N         10.8910   26.2220   19.5330 N.3    27  GLY27      -0.1210
     18  CA        11.0610   25.3020   18.4140 C.3    27  GLY27       0.1956
     19  C         11.1890   23.8290   18.7750 C.2    27  GLY27       0.2612
     20  O         11.3450   22.9800   17.8940 O.2    27  GLY27      -0.2717
     21  N         11.0860   23.5020   20.0720 N.am   28  ALA28      -0.1965
     22  CA        11.1690   22.1320   20.5280 C.3    28  ALA28       0.1728
     23  C          9.7750   21.6960   21.0010 C.2    28  ALA28       0.2616
     24  O          9.1560   22.3400   21.8430 O.2    28  ALA28      -0.2715
     25  CB        12.1470   22.0210   21.6760 C.3    28  ALA28       0.0334
     26  N          9.2790   20.5680   20.4370 N.am   29  ASP29      -0.1957
     27  CA         7.9700   20.0980   20.9270 C.3    29  ASP29       0.1840
     28  C          8.0540   19.6340   22.3850 C.2    29  ASP29       0.2622
     29  O          7.1240   19.7970   23.1710 O.2    29  ASP29      -0.2715
     30  CB         7.5280   18.9000   20.1010 C.3    29  ASP29       0.1450
     31  CG         7.2780   19.1590   18.6470 C.2    29  ASP29       0.3671
     32  OD1        7.1260   20.3050   18.1790 O.co2  29  ASP29      -0.2456
     33  OD2        7.1600   18.1070   17.9690 O.co2  29  ASP29      -0.2456
     34  N          9.1640   19.0160   22.7200 N.am   30  ASP30      -0.1971
     35  CA         9.3860   18.3310   23.9990 C.3    30  ASP30       0.1709
     36  C         10.6280   18.8880   24.6860 C.2    30  ASP30       0.2293
     37  O         11.4630   19.5470   24.0990 O.2    30  ASP30      -0.2864
     38  CB         9.6090   16.8420   23.7230 C.3    30  ASP30       0.1436
     39  CG         8.5280   16.1370   22.9810 C.2    30  ASP30       0.3671
     40  OD1        7.3870   16.2550   23.4540 O.co2  30  ASP30      -0.2456
     41  OD2        8.8150   15.5150   21.9240 O.co2  30  ASP30      -0.2456
     42  N         14.1550   18.3200   26.5780 N.3    32  VAL32      -0.1245
     43  CA        15.2580   17.3620   26.4680 C.3    32  VAL32       0.1561
     44  C         16.3930   17.8310   27.3630 C.2    32  VAL32       0.2260
     45  O         16.8230   18.9880   27.2330 O.2    32  VAL32      -0.2867
     46  CB        15.7780   17.2500   24.9840 C.3    32  VAL32       0.0252
     47  CG1       16.6720   16.0260   24.8990 C.3    32  VAL32       0.0019
     48  CG2       14.6410   17.2120   24.0100 C.3    32  VAL32       0.0019
     49  N         12.2010    6.8760   22.7160 N.3    45  LYS45      -0.1231
     50  CA        11.7180    7.8600   21.7670 C.3    45  LYS45       0.1693
     51  C         12.8660    8.2870   20.8720 C.2    45  LYS45       0.2592
     52  O         14.0130    8.3400   21.3230 O.2    45  LYS45      -0.2718
     53  CB        11.1780    9.0930   22.5120 C.3    45  LYS45       0.0285
     54  CG        10.3310   10.0160   21.5980 C.3    45  LYS45       0.0035
     55  CD         9.7400   11.1020   22.4460 C.3    45  LYS45       0.0206
     56  CE         9.0770   12.1910   21.6250 C.3    45  LYS45       0.1093
     57  NZ         7.8210   11.6610   21.0160 N.3    45  LYS45      -0.1314
     58  N         12.5470    8.5360   19.6290 N.am   46  MET46      -0.1965
     59  CA        13.5270    9.0970   18.6960 C.3    46  MET46       0.1736
     60  C         13.0900   10.5100   18.3320 C.2    46  MET46       0.2616
     61  O         11.8980   10.7280   18.0460 O.2    46  MET46      -0.2715
     62  CB        13.6380    8.2190   17.4520 C.3    46  MET46       0.0427
     63  CG        14.7220    8.6990   16.5010 C.3    46  MET46       0.0599
     64  SD        15.2350    7.3390   15.4150 S.3    46  MET46      -0.1393
     65  CE        14.4910    5.9620   16.2930 C.3    46  MET46       0.0692
     66  N         14.0320   11.4300   18.3980 N.am   47  ILE47      -0.1963
     67  CA        13.6660   12.8210   18.0580 C.3    47  ILE47       0.1727
     68  C         14.6500   13.3390   17.0370 C.2    47  ILE47       0.2617
     69  O         15.8400   12.9530   17.0240 O.2    47  ILE47      -0.2715
     70  CB        13.6890   13.7260   19.3190 C.3    47  ILE47       0.0290
     71  CG1       15.0770   13.8210   19.9820 C.3    47  ILE47       0.0022
     72  CG2       12.6150   13.2930   20.3250 C.3    47  ILE47       0.0023
     73  CD1       15.1470   14.8140   21.1290 C.3    47  ILE47       0.0001
     74  N         14.1220   14.2110   16.1700 N.am   48  GLY48      -0.1940
     75  CA        14.9210   14.7290   15.0360 C.3    48  GLY48       0.2014
     76  C         15.1770   16.2020   15.2300 C.2    48  GLY48       0.2639
     77  O         14.2440   16.9610   15.4690 O.2    48  GLY48      -0.2714
     78  N         16.4400   16.5430   15.0780 N.am   49  GLY49      -0.1939
     79  CA        16.8980   17.9030   15.1740 C.3    49  GLY49       0.2014
     80  C         17.5810   18.3060   13.8870 C.2    49  GLY49       0.2638
     81  O         17.4400   17.7110   12.7770 O.2    49  GLY49      -0.2714
     82  N         18.3340   19.3870   13.9480 N.am   50  ILE50      -0.1977
     83  CA        19.0030   19.9340   12.7810 C.3    50  ILE50       0.1596
     84  C         19.9190   18.9130   12.2070 C.2    50  ILE50       0.2287
     85  O         20.0600   18.8960   10.9500 O.2    50  ILE50      -0.2864
     86  CB        19.7360   21.2380   13.1550 C.3    50  ILE50       0.0276
     87  CG1       19.9730   22.0100   11.8640 C.3    50  ILE50       0.0022
     88  CG2       20.9710   21.0320   14.0030 C.3    50  ILE50       0.0022
     89  CD1       18.7700   22.9290   11.7310 C.3    50  ILE50       0.0001
     90  N         18.6500   12.4330   13.7530 N.3    53  PHE53      -0.1241
     91  CA        17.8800   11.8620   14.8350 C.3    53  PHE53       0.1605
     92  C         18.7550   11.2830   15.9460 C.2    53  PHE53       0.2264
     93  O         19.8440   10.7390   15.6680 O.2    53  PHE53      -0.2867
     94  CB        16.9700   10.7530   14.2600 C.3    53  PHE53       0.0534
     95  CG        15.7770   11.3360   13.5130 C.ar   53  PHE53      -0.0203
     96  CD1       15.8650   11.7860   12.2030 C.ar   53  PHE53      -0.0042
     97  CD2       14.5430   11.4600   14.1290 C.ar   53  PHE53      -0.0042
     98  CE1       14.7540   12.3160   11.5720 C.ar   53  PHE53      -0.0003
     99  CE2       13.4300   11.9870   13.4830 C.ar   53  PHE53      -0.0003
    100  CZ        13.5180   12.4440   12.1800 C.ar   53  PHE53      -0.0000
    101  N         21.6510   15.5980   24.1270 N.3    80  THR80      -0.1204
    102  CA        21.4000   16.9290   23.5840 C.3    80  THR80       0.1979
    103  C         22.5520   17.8650   23.8610 C.2    80  THR80       0.2460
    104  O         23.2120   17.7590   24.8930 O.2    80  THR80      -0.2732
    105  CB        20.0870   17.4960   24.2110 C.3    80  THR80       0.1783
    106  OG1       19.9360   18.8030   23.7090 O.3    80  THR80      -0.2211
    107  CG2       20.1490   17.5050   25.7340 C.3    80  THR80       0.0376
    108  N         22.9040   18.8210   22.9930 N.am   81  PRO81      -0.2717
    109  CA        23.9710   19.7770   23.2750 C.3    81  PRO81       0.1535
    110  C         23.6980   20.7950   24.3730 C.2    81  PRO81       0.2598
    111  O         24.6520   21.3750   24.8870 O.2    81  PRO81      -0.2715
    112  CB        24.1590   20.5330   21.9470 C.3    81  PRO81       0.0310
    113  CG        23.4080   19.7680   20.9280 C.3    81  PRO81       0.0237
    114  CD        22.3470   18.9560   21.6000 C.3    81  PRO81       0.0939
    115  N         22.4310   21.0260   24.6770 N.am   82  VAL82      -0.1978
    116  CA        21.9870   22.0070   25.6690 C.3    82  VAL82       0.1596
    117  C         20.7180   21.4990   26.2910 C.2    82  VAL82       0.2287
    118  O         19.9570   20.8040   25.5970 O.2    82  VAL82      -0.2864
    119  CB        21.7510   23.3720   24.9860 C.3    82  VAL82       0.0276
    120  CG1       20.6090   23.2520   24.0000 C.3    82  VAL82       0.0022
    121  CG2       21.4660   24.4900   25.9660 C.3    82  VAL82       0.0022
    122  N         17.0070   21.8030   27.0510 N.3    84  ILE84      -0.1245
    123  CA        15.9740   22.5500   26.3150 C.3    84  ILE84       0.1561
    124  C         14.6260   22.3580   26.9660 C.2    84  ILE84       0.2260
    125  O         14.2150   21.2000   27.2350 O.2    84  ILE84      -0.2867
    126  CB        15.9230   21.9780   24.8680 C.3    84  ILE84       0.0252
    127  CG1       17.2450   22.2980   24.1680 C.3    84  ILE84       0.0019
    128  CG2       14.6590   22.4330   24.1750 C.3    84  ILE84       0.0019
    129  CD1       17.3620   23.7940   24.1190 C.3    84  ILE84       0.0001
@<TRIPOS>BOND
     1    85    84    2
     2    98   100   ar
     3    98    96   ar
     4    89    87    1
     5    87    86    1
     6   100    99   ar
     7    96    95   ar
     8    84    83    1
     9    81    80    2
    10    83    86    1
    11    83    82    1
    12    86    88    1
    13    99    97   ar
    14    95    97   ar
    15    95    94    1
    16    90    91    1
    17    80    82   am
    18    80    79    1
    19    94    91    1
    20    91    92    1
    21    75    76    1
    22    75    74    1
    23    78    79    1
    24    78    76   am
    25    76    77    2
    26    64    65    1
    27    64    63    1
    28    93    92    2
    29    74    68   am
    30    63    62    1
    31    69    68    2
    32    68    67    1
    33    62    59    1
    34    20    19    2
    35    33    31   ar
    36    61    60    2
    37    67    66    1
    38    67    70    1
    39    32    31   ar
    40    60    66   am
    41    60    59    1
    42    18    19    1
    43    18    17    1
    44    31    30    1
    45    59    58    1
    46    19    21   am
    47    70    71    1
    48    70    72    1
    49    58    51   am
    50    71    73    1
    51    21    22    1
    52    30    27    1
    53    26    27    1
    54    26    23   am
    55    22    23    1
    56    22    25    1
    57    15    14   ar
    58    51    52    2
    59    51    50    1
    60    27    28    1
    61   113   114    1
    62   113   112    1
    63    23    24    2
    64    57    56    1
    65    16    14   ar
    66    54    55    1
    67    54    53    1
    68   114   108    1
    69    56    55    1
    70    14    13    1
    71    50    53    1
    72    50    49    1
    73    41    39   ar
    74   112   109    1
    75    28    34   am
    76    28    29    2
    77    11    12    2
    78    11    10    1
    79    34    35    1
    80    39    40   ar
    81    39    38    1
    82   108   109    1
    83   108   103   am
    84    13    10    1
    85    10     9    1
    86   109   110    1
    87     8     6    1
    88   102   103    1
    89   102   101    1
    90   102   105    1
    91   106   105    1
    92    38    35    1
    93   103   104    2
    94    35    36    1
    95   120   119    1
    96    48    46    1
    97    37    36    2
    98   129   127    1
    99   127   126    1
   100   128   126    1
   101   105   107    1
   102   110   115   am
   103   110   111    2
   104     6     7    1
   105     6     5    1
   106   115   116    1
   107   126   123    1
   108    47    46    1
   109    46    43    1
   110   119   116    1
   111   119   121    1
   112   118   117    2
   113   116   117    1
   114     5     2    1
   115   123   124    1
   116   123   122    1
   117    43    42    1
   118    43    44    1
   119     4     3    2
   120     3     2    1
   121   124   125    2
   122     2     1    1
   123    45    44    2
