@<TRIPOS>MOLECULE
tmp/6dvhC00.pdb
 201 190 0 0 0
SMALL
GASTEIGER

@<TRIPOS>ATOM
      1  N         80.0200   24.7600   41.0060 N.3    45  TYR45      -0.1227
      2  CA        80.0650   25.5780   42.2160 C.3    45  TYR45       0.1736
      3  C         78.9220   25.2200   43.1610 C.2    45  TYR45       0.2595
      4  O         79.0900   25.1950   44.3900 O.2    45  TYR45      -0.2718
      5  CB        80.0110   27.0660   41.8170 C.3    45  TYR45       0.0548
      6  CG        80.4300   27.9430   42.9790 C.ar   45  TYR45      -0.0200
      7  CD1       81.7490   28.2200   43.2030 C.ar   45  TYR45      -0.0009
      8  CD2       79.5060   28.4510   43.8520 C.ar   45  TYR45      -0.0009
      9  CE1       82.1550   29.0030   44.2760 C.ar   45  TYR45       0.0417
     10  CE2       79.8890   29.2030   44.9440 C.ar   45  TYR45       0.0417
     11  CZ        81.2140   29.4850   45.1350 C.ar   45  TYR45       0.1957
     12  OH        81.6090   30.2090   46.2330 O.3    45  TYR45      -0.2866
     13  N         77.7340   25.0230   42.6110 N.am   46  VAL46      -0.1980
     14  CA        76.5450   24.7920   43.4250 C.3    46  VAL46       0.1595
     15  C         76.5060   23.3720   43.9420 C.2    46  VAL46       0.2287
     16  O         76.1670   23.1720   45.1090 O.2    46  VAL46      -0.2864
     17  CB        75.2600   25.1140   42.6320 C.3    46  VAL46       0.0276
     18  CG1       74.0150   24.7910   43.4410 C.3    46  VAL46       0.0022
     19  CG2       75.2430   26.6140   42.2580 C.3    46  VAL46       0.0022
     20  N         78.9160   16.7240   53.1840 N.3    56  GLN56      -0.1245
     21  CA        77.7250   17.1610   52.4810 C.3    56  GLN56       0.1566
     22  C         76.7080   16.0320   52.3310 C.2    56  GLN56       0.2260
     23  O         75.5070   16.2620   52.4850 O.2    56  GLN56      -0.2867
     24  CB        78.1690   17.7170   51.1120 C.3    56  GLN56       0.0367
     25  CG        77.0800   18.0280   50.1440 C.3    56  GLN56       0.0905
     26  CD        77.6730   18.8320   48.9520 C.2    56  GLN56       0.2608
     27  OE1       77.9740   19.9960   49.1100 O.2    56  GLN56      -0.2717
     28  NE2       77.8300   18.1970   47.8000 N.am   56  GLN56      -0.0878
     29  N         75.2690   14.9660   55.9410 N.3    59  ASN59      -0.1240
     30  CA        74.2600   15.8980   56.4390 C.3    59  ASN59       0.1653
     31  C         72.8810   15.4080   56.0400 C.2    59  ASN59       0.2266
     32  O         71.9240   15.5250   56.8110 O.2    59  ASN59      -0.2867
     33  CB        74.4110   17.3070   55.8660 C.3    59  ASN59       0.1155
     34  CG        75.5610   18.0850   56.4160 C.2    59  ASN59       0.2627
     35  OD1       76.0650   17.8570   57.5280 O.2    59  ASN59      -0.2716
     36  ND2       75.9320   19.1230   55.6420 N.am   59  ASN59      -0.0877
     37  N         68.0810   30.1200   52.8930 N.3    97  ALA97      -0.1231
     38  CA        69.4200   30.3640   53.4030 C.3    97  ALA97       0.1679
     39  C         70.2370   31.1770   52.3940 C.2    97  ALA97       0.2434
     40  O         69.9500   31.1630   51.1950 O.2    97  ALA97      -0.2733
     41  CB        70.1000   29.0270   53.7110 C.3    97  ALA97       0.0304
     42  N         71.2370   31.9260   52.8700 N.am   98  PRO98      -0.2718
     43  CA        71.9970   32.8020   51.9700 C.3    98  PRO98       0.1535
     44  C         72.7930   31.9870   50.9650 C.2    98  PRO98       0.2598
     45  O         73.3650   30.9550   51.2900 O.2    98  PRO98      -0.2715
     46  CB        72.9150   33.6030   52.9170 C.3    98  PRO98       0.0310
     47  CG        73.0210   32.6940   54.1570 C.3    98  PRO98       0.0237
     48  CD        71.7320   31.9800   54.2750 C.3    98  PRO98       0.0939
     49  N         72.7520   32.4360   49.7130 N.am   99  ILE99      -0.1964
     50  CA        73.4510   31.7860   48.5890 C.3    99  ILE99       0.1727
     51  C         74.0810   32.8690   47.7540 C.2    99  ILE99       0.2617
     52  O         73.3780   33.6180   47.0710 O.2    99  ILE99      -0.2715
     53  CB        72.5170   30.9050   47.7320 C.3    99  ILE99       0.0290
     54  CG1       72.0490   29.7280   48.5830 C.3    99  ILE99       0.0022
     55  CG2       73.2020   30.4190   46.4470 C.3    99  ILE99       0.0023
     56  CD1       71.3450   28.6090   47.8130 C.3    99  ILE99       0.0001
     57  N         75.4060   32.9730   47.8180 N.am  100  GLY100     -0.1940
     58  CA        76.0620   34.1290   47.1790 C.3   100  GLY100      0.2014
     59  C         76.1040   34.0720   45.6460 C.2   100  GLY100      0.2638
     60  O         76.3720   35.1060   45.0300 O.2   100  GLY100     -0.2714
     61  N         75.8540   32.9150   45.0210 N.am  101  VAL101     -0.1977
     62  CA        75.7870   32.8570   43.5540 C.3   101  VAL101      0.1596
     63  C         74.3650   32.5770   43.0560 C.2   101  VAL101      0.2287
     64  O         74.1860   32.1800   41.9230 O.2   101  VAL101     -0.2864
     65  CB        76.7440   31.7960   42.9670 C.3   101  VAL101      0.0276
     66  CG1       78.1780   32.0800   43.3220 C.3   101  VAL101      0.0022
     67  CG2       76.3050   30.4130   43.4180 C.3   101  VAL101      0.0022
     68  N         72.8570   36.9820   50.8830 N.3   129  SER129     -0.1217
     69  CA        74.3050   36.9540   51.0720 C.3   129  SER129      0.1889
     70  C         74.8520   38.3600   50.9050 C.2   129  SER129      0.2288
     71  O         74.2110   39.2230   50.2980 O.2   129  SER129     -0.2866
     72  CB        74.9600   35.9920   50.0570 C.3   129  SER129      0.2089
     73  OG        76.4000   36.0870   50.1600 O.3   129  SER129     -0.2183
     74  N         77.3560   38.6210   49.0980 N.3   131  LEU131     -0.1245
     75  CA        77.6620   38.4630   47.6890 C.3   131  LEU131      0.1561
     76  C         76.3400   38.4110   46.9530 C.2   131  LEU131      0.2260
     77  O         75.4930   37.5560   47.2760 O.2   131  LEU131     -0.2867
     78  CB        78.4100   37.1630   47.4310 C.3   131  LEU131      0.0270
     79  CG        79.9310   37.1110   47.4720 C.3   131  LEU131      0.0019
     80  CD1       80.6260   38.3890   47.4930 C.3   131  LEU131      0.0001
     81  CD2       80.2950   36.2560   48.6220 C.3   131  LEU131      0.0001
     82  N         72.9090   38.6520   55.5570 N.3   151  GLN151     -0.1245
     83  CA        74.0290   37.8100   55.9520 C.3   151  GLN151      0.1566
     84  C         75.3260   38.5390   55.6410 C.2   151  GLN151      0.2260
     85  O         75.6240   38.8270   54.4720 O.2   151  GLN151     -0.2867
     86  CB        74.0000   36.4590   55.2290 C.3   151  GLN151      0.0367
     87  CG        75.2110   35.6080   55.5710 C.3   151  GLN151      0.0905
     88  CD        76.2880   35.7140   54.5170 C.2   151  GLN151      0.2608
     89  OE1       75.9880   35.6260   53.3200 O.2   151  GLN151     -0.2717
     90  NE2       77.5280   35.9360   54.9390 N.am  151  GLN151     -0.0878
     91  N         79.3240   38.8410   55.4240 N.3   153  TYR153     -0.1241
     92  CA        80.6760   38.2850   55.3420 C.3   153  TYR153      0.1605
     93  C         81.5670   39.4020   55.8720 C.2   153  TYR153      0.2264
     94  O         81.8450   40.3670   55.1620 O.2   153  TYR153     -0.2867
     95  CB        81.0410   37.8920   53.9130 C.3   153  TYR153      0.0534
     96  CG        80.7090   36.4610   53.5690 C.ar  153  TYR153     -0.0201
     97  CD1       80.8940   35.4390   54.4840 C.ar  153  TYR153     -0.0009
     98  CD2       80.1740   36.1400   52.3450 C.ar  153  TYR153     -0.0009
     99  CE1       80.5460   34.1290   54.1630 C.ar  153  TYR153      0.0417
    100  CE2       79.8590   34.8360   51.9910 C.ar  153  TYR153      0.0417
    101  CZ        80.0550   33.8410   52.9120 C.ar  153  TYR153      0.1957
    102  OH        79.7590   32.5230   52.6030 O.3   153  TYR153     -0.2866
    103  N         78.2630   34.9980   59.3570 N.3   179  THR179     -0.1218
    104  CA        78.7070   33.6400   59.0100 C.3   179  THR179      0.1862
    105  C         80.1290   33.4300   59.5200 C.2   179  THR179      0.2287
    106  O         81.0480   34.1950   59.1800 O.2   179  THR179     -0.2866
    107  CB        78.6270   33.4130   57.5080 C.3   179  THR179      0.1770
    108  OG1       77.2500   33.4700   57.0810 O.3   179  THR179     -0.2211
    109  CG2       79.1280   32.0080   57.1540 C.3   179  THR179      0.0375
    110  N         75.9210   32.2610   62.5190 N.3   267  LYS267     -0.1245
    111  CA        75.7360   31.1060   61.6540 C.3   267  LYS267      0.1561
    112  C         76.9940   30.2470   61.5870 C.2   267  LYS267      0.2260
    113  O         78.0960   30.7410   61.3410 O.2   267  LYS267     -0.2867
    114  CB        75.3230   31.5660   60.2430 C.3   267  LYS267      0.0271
    115  CG        75.1540   30.4900   59.1620 C.3   267  LYS267      0.0035
    116  CD        74.6210   31.1870   57.8750 C.3   267  LYS267      0.0206
    117  CE        74.2420   30.1490   56.8580 C.3   267  LYS267      0.1093
    118  NZ        75.4470   29.8350   56.0200 N.3   267  LYS267     -0.1314
    119  N         74.6300   25.1820   61.7620 N.3   289  SER289     -0.1217
    120  CA        74.9190   24.9740   60.3450 C.3   289  SER289      0.1889
    121  C         76.3460   24.4680   60.2270 C.2   289  SER289      0.2288
    122  O         77.1980   24.7940   61.0680 O.2   289  SER289     -0.2866
    123  CB        74.7680   26.2900   59.5560 C.3   289  SER289      0.2089
    124  OG        75.2450   26.2210   58.2200 O.3   289  SER289     -0.2183
    125  N         77.4050   24.8480   56.7970 N.3   291  HIS291     -0.1226
    126  CA        77.6140   25.3890   55.4590 C.3   291  HIS291      0.1752
    127  C         77.4090   24.3050   54.3920 C.2   291  HIS291      0.2596
    128  O         78.0310   24.3190   53.3160 O.2   291  HIS291     -0.2718
    129  CB        79.0070   25.9970   55.3610 C.3   291  HIS291      0.0759
    130  CG        79.0780   27.1990   54.4850 C.ar  291  HIS291      0.0818
    131  ND1       79.2610   28.4710   54.9840 N.ar  291  HIS291     -0.2268
    132  CD2       79.0040   27.3340   53.1380 C.ar  291  HIS291      0.1154
    133  CE1       79.2520   29.3400   53.9930 C.ar  291  HIS291      0.1986
    134  NE2       79.1640   28.6740   52.8630 N.ar  291  HIS291     -0.2212
    135  N         76.5290   23.3510   54.6780 N.am  292  GLY292     -0.1957
    136  CA        76.2680   22.2990   53.7000 C.3   292  GLY292      0.1869
    137  C         77.4200   21.3710   53.4250 C.2   292  GLY292      0.2309
    138  O         77.3910   20.6570   52.4100 O.2   292  GLY292     -0.2863
    139  N         80.2130   22.4250   52.5610 N.3   294  ARG294     -0.1245
    140  CA        80.8710   23.0220   51.4160 C.3   294  ARG294      0.1563
    141  C         82.2290   23.6300   51.7290 C.2   294  ARG294      0.2260
    142  O         83.0300   23.8320   50.8010 O.2   294  ARG294     -0.2867
    143  CB        79.9850   24.0970   50.8180 C.3   294  ARG294      0.0307
    144  CG        78.6900   23.6250   50.2610 C.3   294  ARG294      0.0489
    145  CD        77.8470   24.8380   49.8570 C.3   294  ARG294      0.2205
    146  NE        78.5120   25.8240   48.9860 N.pl3 294  ARG294     -0.0865
    147  CZ        78.5640   25.7440   47.6570 C.cat 294  ARG294      0.5346
    148  NH1       78.0740   24.6840   47.0850 N.pl3 294  ARG294      0.1354
    149  NH2       79.1420   26.6800   46.9420 N.pl3 294  ARG294      0.1354
    150  N         70.2260   24.7980   59.3760 N.3   321  ASP321     -0.1225
    151  CA        70.3070   24.3490   57.9870 C.3   321  ASP321      0.1805
    152  C         71.4180   23.3320   57.8850 C.2   321  ASP321      0.2598
    153  O         72.1420   23.0680   58.8600 O.2   321  ASP321     -0.2718
    154  CB        70.5160   25.5110   56.9800 C.3   321  ASP321      0.1424
    155  CG        71.9570   26.0350   56.9020 C.2   321  ASP321      0.3668
    156  OD1       72.9220   25.3710   57.3460 O.co2 321  ASP321     -0.2456
    157  OD2       72.1200   27.1580   56.3600 O.co2 321  ASP321     -0.2456
    158  N         71.5030   22.7560   56.6840 N.am  322  SER322     -0.1938
    159  CA        72.5530   21.8570   56.1770 C.3   322  SER322      0.2055
    160  C         71.9980   20.4470   56.0550 C.2   322  SER322      0.2644
    161  O         72.0920   19.6490   56.9840 O.2   322  SER322     -0.2714
    162  CB        73.8290   21.8750   57.0250 C.3   322  SER322      0.2130
    163  OG        74.4970   23.1460   56.8900 O.3   322  SER322     -0.2179
    164  N         71.4230   20.1400   54.8950 N.am  323  GLY323     -0.1939
    165  CA        70.9520   18.7990   54.5600 C.3   323  GLY323      0.2014
    166  C         69.4430   18.6910   54.3670 C.2   323  GLY323      0.2639
    167  O         68.9490   17.6110   54.0110 O.2   323  GLY323     -0.2714
    168  N         68.6890   19.7700   54.5370 N.am  324  ILE324     -0.1963
    169  CA        67.2630   19.7190   54.2730 C.3   324  ILE324      0.1727
    170  C         67.0200   19.5210   52.7720 C.2   324  ILE324      0.2616
    171  O         67.4940   20.3020   51.9450 O.2   324  ILE324     -0.2715
    172  CB        66.5940   21.0090   54.7760 C.3   324  ILE324      0.0290
    173  CG1       66.8940   21.2340   56.2810 C.3   324  ILE324      0.0022
    174  CG2       65.1320   20.9410   54.4410 C.3   324  ILE324      0.0023
    175  CD1       66.0810   20.4500   57.1620 C.3   324  ILE324      0.0001
    176  N         66.2360   18.4920   52.4180 N.am  325  ARG325     -0.1977
    177  CA        65.8760   18.2260   51.0120 C.3   325  ARG325      0.1597
    178  C         64.3730   18.1000   50.8150 C.2   325  ARG325      0.2287
    179  O         63.8750   18.4030   49.7170 O.2   325  ARG325     -0.2864
    180  CB        66.5570   16.9180   50.5150 C.3   325  ARG325      0.0334
    181  CG        68.0810   16.9410   50.5860 C.3   325  ARG325      0.0492
    182  CD        68.6540   17.9210   49.5770 C.3   325  ARG325      0.2205
    183  NE        70.1150   18.0370   49.6100 N.pl3 325  ARG325     -0.0865
    184  CZ        70.7830   18.9530   50.2980 C.cat 325  ARG325      0.5346
    185  NH1       70.1320   19.7990   51.1190 N.pl3 325  ARG325      0.1354
    186  NH2       72.0820   19.0290   50.2060 N.pl3 325  ARG325      0.1354
    187  N         68.7380   25.4710   51.2610 N.3   344  GLY344     -0.1210
    188  CA        69.8160   25.8830   50.3990 C.3   344  GLY344      0.1956
    189  C         69.7140   25.2460   49.0110 C.2   344  GLY344      0.2611
    190  O         68.9510   25.7070   48.1330 O.2   344  GLY344     -0.2717
    191  N         70.4590   24.1540   48.8100 N.am  345  ARG345     -0.1979
    192  CA        70.5080   23.5220   47.4900 C.3   345  ARG345      0.1597
    193  C         69.1400   23.4260   46.8120 C.2   345  ARG345      0.2287
    194  O         69.0450   23.7410   45.6170 O.2   345  ARG345     -0.2864
    195  CB        71.0930   22.1040   47.6090 C.3   345  ARG345      0.0334
    196  CG        72.3560   21.8480   46.7410 C.3   345  ARG345      0.0492
    197  CD        73.5680   22.7290   47.1370 C.3   345  ARG345      0.2205
    198  NE        74.0960   22.3390   48.4550 N.pl3 345  ARG345     -0.0865
    199  CZ        75.3210   21.9170   48.7050 C.cat 345  ARG345      0.5346
    200  NH1       75.6410   21.5850   49.9380 N.pl3 345  ARG345      0.1354
    201  NH2       76.2640   21.8530   47.7770 N.pl3 345  ARG345      0.1354
@<TRIPOS>BOND
     1     1     2    1
     2     5     2    1
     3     5     6    1
     4    64    63    2
     5     2     3    1
     6    19    17    1
     7    13     3   am
     8    13    14    1
     9    17    14    1
    10    17    18    1
    11    65    66    1
    12    65    67    1
    13    65    62    1
    14     6     7   ar
    15     6     8   ar
    16    63    62    1
    17     3     4    2
    18     7     9   ar
    19    14    15    1
    20    62    61    1
    21     8    10   ar
    22    15    16    2
    23     9    11   ar
    24    10    11   ar
    25    61    59   am
    26    60    59    2
    27    11    12    1
    28   194   193    2
    29    59    58    1
    30    55    53    1
    31   196   197    1
    32   196   195    1
    33   193   192    1
    34   149   147    1
    35    76    77    2
    36    76    75    1
    37    52    51    2
    38   148   147    1
    39   197   198    1
    40    58    57    1
    41    78    79    1
    42    78    75    1
    43    79    80    1
    44    79    81    1
    45   192   195    1
    46   192   191    1
    47   147   146    2
    48    75    74    1
    49    53    54    1
    50    53    50    1
    51    51    57   am
    52    51    50    1
    53   201   199    1
    54    28    26   am
    55    56    54    1
    56   190   189    2
    57   198   199    2
    58    50    49    1
    59   199   200    1
    60   191   189   am
    61    26    27    2
    62    26    25    1
    63   146   145    1
    64   189   188    1
    65   182   183    1
    66   182   181    1
    67   183   184    2
    68    49    44   am
    69   179   178    2
    70   145   144    1
    71    72    73    1
    72    72    69    1
    73    25    24    1
    74   186   184    1
    75   144   143    1
    76    71    70    2
    77   184   185    1
    78   188   187    1
    79   180   181    1
    80   180   177    1
    81   142   141    2
    82   178   177    1
    83   143   140    1
    84    68    69    1
    85    70    69    1
    86    44    45    2
    87    44    43    1
    88   177   176    1
    89    24    21    1
    90    40    39    2
    91   140   141    1
    92   140   139    1
    93   171   170    2
    94    43    42    1
    95    43    46    1
    96   100    98   ar
    97   100   101   ar
    98    22    21    1
    99    22    23    2
   100    98    96   ar
   101    39    42   am
   102    39    38    1
   103   138   137    2
   104   176   170   am
   105    21    20    1
   106   102   101    1
   107   170   169    1
   108   134   132   ar
   109   134   133   ar
   110    42    48    1
   111    37    38    1
   112   101    99   ar
   113    46    47    1
   114   132   130   ar
   115   128   127    2
   116    89    88    2
   117    38    41    1
   118   137   136    1
   119    96    95    1
   120    96    97   ar
   121   136   135    1
   122    95    92    1
   123   133   131   ar
   124   167   166    2
   125    47    48    1
   126    99    97   ar
   127   169   168    1
   128   169   172    1
   129   166   168   am
   130   166   165    1
   131   127   135   am
   132   127   126    1
   133   174   172    1
   134    85    84    2
   135   130   131   ar
   136   130   129    1
   137    88    90   am
   138    88    87    1
   139   165   164    1
   140   172   173    1
   141   164   160   am
   142    94    93    2
   143    86    87    1
   144    86    83    1
   145    92    91    1
   146    92    93    1
   147   129   126    1
   148   126   125    1
   149    82    83    1
   150    84    83    1
   151    36    34   am
   152    33    34    1
   153    33    30    1
   154    29    30    1
   155   118   117    1
   156    31    30    1
   157    31    32    2
   158   160   159    1
   159   160   161    2
   160   159   158    1
   161   159   162    1
   162   173   175    1
   163   157   155   ar
   164    34    35    2
   165   158   152   am
   166   117   116    1
   167   163   162    1
   168   155   154    1
   169   155   156   ar
   170   154   151    1
   171   108   107    1
   172   109   107    1
   173   107   104    1
   174   116   115    1
   175   152   151    1
   176   152   153    2
   177   151   150    1
   178   124   123    1
   179   104   103    1
   180   104   105    1
   181   115   114    1
   182   106   105    2
   183   123   120    1
   184   121   120    1
   185   121   122    2
   186   114   111    1
   187   120   119    1
   188   113   112    2
   189   112   111    1
   190   111   110    1
