@<TRIPOS>MOLECULE
tmp/6dviD00.pdb
 217 205 0 0 0
SMALL
GASTEIGER

@<TRIPOS>ATOM
      1  N         16.2500   54.2910   63.9460 N.3    45  TYR45      -0.1227
      2  CA        16.7930   53.6700   65.1550 C.3    45  TYR45       0.1736
      3  C         17.3180   54.7340   66.1160 C.2    45  TYR45       0.2595
      4  O         17.0340   54.6870   67.3130 O.2    45  TYR45      -0.2718
      5  CB        17.9140   52.6720   64.8620 C.3    45  TYR45       0.0548
      6  CG        18.1350   51.8200   66.1070 C.ar   45  TYR45      -0.0200
      7  CD1       17.1460   50.9500   66.5360 C.ar   45  TYR45      -0.0009
      8  CD2       19.2770   51.9350   66.8940 C.ar   45  TYR45      -0.0009
      9  CE1       17.2910   50.2050   67.6690 C.ar   45  TYR45       0.0417
     10  CE2       19.4210   51.1800   68.0400 C.ar   45  TYR45       0.0417
     11  CZ        18.4120   50.3230   68.4100 C.ar   45  TYR45       0.1957
     12  OH        18.5060   49.5600   69.5370 O.3    45  TYR45      -0.2866
     13  N         18.0420   55.7320   65.6020 N.am   46  VAL46      -0.1980
     14  CA        18.6960   56.6940   66.4800 C.3    46  VAL46       0.1595
     15  C         17.7180   57.7350   67.0150 C.2    46  VAL46       0.2287
     16  O         17.8300   58.1820   68.1660 O.2    46  VAL46      -0.2864
     17  CB        19.8650   57.3390   65.7310 C.3    46  VAL46       0.0276
     18  CG1       20.6610   58.2260   66.6400 C.3    46  VAL46       0.0022
     19  CG2       20.7130   56.2440   65.1480 C.3    46  VAL46       0.0022
     20  N         10.3220   59.9020   75.8150 N.3    56  GLN56      -0.1245
     21  CA        11.3950   60.4830   75.0210 C.3    56  GLN56       0.1566
     22  C         11.2930   62.0090   75.0130 C.2    56  GLN56       0.2260
     23  O         12.3120   62.7160   75.1010 O.2    56  GLN56      -0.2867
     24  CB        11.3420   59.9280   73.5930 C.3    56  GLN56       0.0367
     25  CG        12.1040   60.7970   72.6350 C.3    56  GLN56       0.0905
     26  CD        12.7030   60.0300   71.4930 C.2    56  GLN56       0.2608
     27  OE1       13.5120   59.1480   71.6930 O.2    56  GLN56      -0.2717
     28  NE2       12.2940   60.3690   70.2820 N.am   56  GLN56      -0.0878
     29  N         11.6770   64.1990   78.5100 N.3    59  ASN59      -0.1240
     30  CA        13.0470   64.4550   78.9570 C.3    59  ASN59       0.1653
     31  C         13.4990   65.8200   78.4590 C.2    59  ASN59       0.2266
     32  O         14.3340   66.4850   79.0810 O.2    59  ASN59      -0.2867
     33  CB        14.0060   63.3630   78.4810 C.3    59  ASN59       0.1155
     34  CG        13.7570   62.0320   79.1520 C.2    59  ASN59       0.2627
     35  OD1       13.2570   61.9680   80.2790 O.2    59  ASN59      -0.2716
     36  ND2       14.1050   60.9520   78.4660 N.am   59  ASN59      -0.0877
     37  N         27.6730   59.8410   76.0380 N.3    97  ALA97      -0.1231
     38  CA        26.9700   58.6750   76.5820 C.3    97  ALA97       0.1679
     39  C         27.0790   57.4800   75.6290 C.2    97  ALA97       0.2434
     40  O         27.2850   57.6490   74.4250 O.2    97  ALA97      -0.2733
     41  CB        25.4960   59.0010   76.8390 C.3    97  ALA97       0.0304
     42  N         26.9260   56.2570   76.1470 N.am   98  PRO98      -0.2718
     43  CA        27.1110   55.0710   75.2960 C.3    98  PRO98       0.1535
     44  C         26.1140   54.9920   74.1350 C.2    98  PRO98       0.2598
     45  O         24.9150   55.2280   74.2810 O.2    98  PRO98      -0.2715
     46  CB        26.9370   53.8980   76.2760 C.3    98  PRO98       0.0310
     47  CG        26.2360   54.4740   77.4730 C.3    98  PRO98       0.0237
     48  CD        26.6870   55.9050   77.5570 C.3    98  PRO98       0.0939
     49  N         26.6380   54.6620   72.9590 N.am   99  ILE99      -0.1964
     50  CA        25.7700   54.4020   71.8200 C.3    99  ILE99       0.1727
     51  C         26.2650   53.2450   70.9740 C.2    99  ILE99       0.2617
     52  O         27.2170   53.3830   70.2020 O.2    99  ILE99      -0.2715
     53  CB        25.6160   55.6830   70.9560 C.3    99  ILE99       0.0290
     54  CG1       24.9880   56.7690   71.8240 C.3    99  ILE99       0.0022
     55  CG2       24.8370   55.3240   69.7040 C.3    99  ILE99       0.0023
     56  CD1       24.6560   58.0440   71.0730 C.3    99  ILE99       0.0001
     57  N         25.5890   52.0910   71.1050 N.am  100  GLY100     -0.1940
     58  CA        26.0390   50.8710   70.4530 C.3   100  GLY100      0.2014
     59  C         26.2990   50.9950   68.9620 C.2   100  GLY100      0.2638
     60  O         27.1960   50.3360   68.4370 O.2   100  GLY100     -0.2714
     61  N         25.5340   51.8420   68.2620 N.am  101  VAL101     -0.1977
     62  CA        25.5420   51.8900   66.8030 C.3   101  VAL101      0.1596
     63  C         26.1560   53.1810   66.2530 C.2   101  VAL101      0.2287
     64  O         26.1230   53.3980   65.0470 O.2   101  VAL101     -0.2864
     65  CB        24.1220   51.6760   66.2310 C.3   101  VAL101      0.0276
     66  CG1       23.6510   50.2010   66.4580 C.3   101  VAL101      0.0022
     67  CG2       23.1140   52.7420   66.7930 C.3   101  VAL101      0.0022
     68  N         30.0570   51.9350   74.3480 N.3   129  SER129     -0.1217
     69  CA        29.0730   50.8620   74.5110 C.3   129  SER129      0.1889
     70  C         29.8110   49.5270   74.3790 C.2   129  SER129      0.2288
     71  O         30.9230   49.4640   73.8360 O.2   129  SER129     -0.2866
     72  CB        27.9410   50.9490   73.4840 C.3   129  SER129      0.2089
     73  OG        27.0090   49.8660   73.6180 O.3   129  SER129     -0.2183
     74  N         28.5400   47.2990   72.4590 N.3   131  LEU131     -0.1245
     75  CA        28.4020   47.3180   71.0120 C.3   131  LEU131      0.1561
     76  C         29.3670   48.3490   70.4500 C.2   131  LEU131      0.2260
     77  O         29.3880   49.4920   70.9020 O.2   131  LEU131     -0.2867
     78  CB        26.9730   47.6540   70.6110 C.3   131  LEU131      0.0270
     79  CG        25.8250   46.7470   71.0840 C.3   131  LEU131      0.0019
     80  CD1       24.4940   47.5340   71.2330 C.3   131  LEU131      0.0001
     81  CD2       25.6520   45.5590   70.1320 C.3   131  LEU131      0.0001
     82  N         31.1450   50.9010   79.0070 N.3   151  GLN151     -0.1245
     83  CA        29.7810   50.5560   79.3830 C.3   151  GLN151      0.1566
     84  C         29.5150   49.0990   78.9930 C.2   151  GLN151      0.2260
     85  O         29.5180   48.7480   77.8070 O.2   151  GLN151     -0.2867
     86  CB        28.8030   51.5300   78.7210 C.3   151  GLN151      0.0367
     87  CG        27.3420   51.2180   78.9080 C.3   151  GLN151      0.0905
     88  CD        26.8880   50.1670   77.9390 C.2   151  GLN151      0.2608
     89  OE1       27.3020   50.1580   76.7820 O.2   151  GLN151     -0.2717
     90  NE2       26.0080   49.2840   78.3840 N.am  151  GLN151     -0.0878
     91  N         27.2610   45.5310   78.8450 N.3   153  TYR153     -0.1241
     92  CA        25.9650   44.8560   78.7510 C.3   153  TYR153      0.1605
     93  C         26.1510   43.4690   79.3910 C.2   153  TYR153      0.2264
     94  O         26.8970   42.6480   78.8510 O.2   153  TYR153     -0.2867
     95  CB        25.5490   44.7160   77.2780 C.3   153  TYR153      0.0534
     96  CG        24.8490   45.8890   76.5970 C.ar  153  TYR153     -0.0201
     97  CD1       23.4690   46.0310   76.6800 C.ar  153  TYR153     -0.0009
     98  CD2       25.5530   46.8180   75.8240 C.ar  153  TYR153     -0.0009
     99  CE1       22.8090   47.0800   76.0530 C.ar  153  TYR153      0.0417
    100  CE2       24.8940   47.8770   75.1810 C.ar  153  TYR153      0.0417
    101  CZ        23.5230   47.9980   75.3010 C.ar  153  TYR153      0.1957
    102  OH        22.8570   49.0340   74.6850 O.3   153  TYR153     -0.2866
    103  N         24.7440   48.9230   82.5720 N.3   179  THR179     -0.1218
    104  CA        23.4210   49.4600   82.2340 C.3   179  THR179      0.1862
    105  C         22.3210   48.4880   82.6590 C.2   179  THR179      0.2287
    106  O         22.2700   47.3240   82.2120 O.2   179  THR179     -0.2866
    107  CB        23.3060   49.7990   80.7420 C.3   179  THR179      0.1770
    108  OG1       24.1320   50.9400   80.4300 O.3   179  THR179     -0.2211
    109  CG2       21.8530   50.1360   80.3920 C.3   179  THR179      0.0375
    110  N         24.0270   52.5410   85.7360 N.3   211  LYS211     -0.1245
    111  CA        23.4170   53.4040   84.7380 C.3   211  LYS211      0.1561
    112  C         21.9310   53.0860   84.5700 C.2   211  LYS211      0.2260
    113  O         21.5550   51.9300   84.3310 O.2   211  LYS211     -0.2867
    114  CB        24.1160   53.2700   83.3740 C.3   211  LYS211      0.0271
    115  CG        23.3580   53.9940   82.2480 C.3   211  LYS211      0.0035
    116  CD        24.1850   54.1190   80.9570 C.3   211  LYS211      0.0206
    117  CE        23.4790   55.0420   79.9100 C.3   211  LYS211      0.1093
    118  NZ        22.3920   54.3480   79.1520 N.3   211  LYS211     -0.1314
    119  N         24.2300   56.8310   88.0760 N.3   231  TYR231     -0.1241
    120  CA        24.0770   57.4520   86.7450 C.3   231  TYR231      0.1605
    121  C         22.5850   57.4980   86.4350 C.2   231  TYR231      0.2264
    122  O         21.9870   56.4890   86.0530 O.2   231  TYR231     -0.2867
    123  CB        24.8880   56.6640   85.7120 C.3   231  TYR231      0.0534
    124  CG        24.8960   57.1550   84.2870 C.ar  231  TYR231     -0.0201
    125  CD1       24.0290   58.1360   83.8330 C.ar  231  TYR231     -0.0009
    126  CD2       25.7780   56.6020   83.3860 C.ar  231  TYR231     -0.0009
    127  CE1       24.0600   58.5520   82.5250 C.ar  231  TYR231      0.0417
    128  CE2       25.8030   56.9840   82.0740 C.ar  231  TYR231      0.0417
    129  CZ        24.9500   57.9530   81.6380 C.ar  231  TYR231      0.1957
    130  OH        25.0380   58.2970   80.3150 O.3   231  TYR231     -0.2866
    131  N         19.1670   58.2440   84.5280 N.3   233  SER233     -0.1217
    132  CA        18.8770   58.0100   83.1280 C.3   233  SER233      0.1889
    133  C         17.5870   57.2060   83.0120 C.2   233  SER233      0.2288
    134  O         17.3330   56.3300   83.8280 O.2   233  SER233     -0.2866
    135  CB        20.0670   57.2920   82.4540 C.3   233  SER233      0.2089
    136  OG        19.9290   57.1430   81.0430 O.3   233  SER233     -0.2183
    137  N         17.1230   55.9620   79.7910 N.3   235  HIS235     -0.1226
    138  CA        17.5220   55.5070   78.4470 C.3   235  HIS235      0.1752
    139  C         16.9250   56.4000   77.3610 C.2   235  HIS235      0.2596
    140  O         16.2650   55.9270   76.4560 O.2   235  HIS235     -0.2718
    141  CB        17.1120   54.0470   78.2080 C.3   235  HIS235      0.0759
    142  CG        18.0910   53.2330   77.4130 C.ar  235  HIS235      0.0818
    143  ND1       19.1840   52.6190   77.9860 N.ar  235  HIS235     -0.2268
    144  CD2       18.1140   52.8890   76.1000 C.ar  235  HIS235      0.1154
    145  CE1       19.8460   51.9450   77.0630 C.ar  235  HIS235      0.1986
    146  NE2       19.2170   52.0870   75.9090 N.ar  235  HIS235     -0.2212
    147  N         17.1320   57.7060   77.4720 N.am  236  GLY236     -0.1957
    148  CA        16.6030   58.6050   76.4580 C.3   236  GLY236      0.1869
    149  C         15.1630   58.3070   76.0700 C.2   236  GLY236      0.2309
    150  O         14.7620   58.5830   74.9280 O.2   236  GLY236     -0.2863
    151  N         13.8340   55.4400   75.6080 N.3   238  ARG238     -0.1245
    152  CA        14.0060   54.5050   74.5050 C.3   238  ARG238      0.1563
    153  C         13.4310   53.1230   74.7600 C.2   238  ARG238      0.2260
    154  O         13.0370   52.4390   73.8040 O.2   238  ARG238     -0.2867
    155  CB        15.5100   54.3340   74.2520 C.3   238  ARG238      0.0307
    156  CG        15.9650   54.4150   72.8890 C.3   238  ARG238      0.0489
    157  CD        17.2430   55.2760   72.7570 C.3   238  ARG238      0.2205
    158  NE        17.9960   54.6430   71.6900 N.pl3 238  ARG238     -0.0865
    159  CZ        17.7700   54.8120   70.4000 C.cat 238  ARG238      0.5346
    160  NH1       16.8570   55.6840   69.9680 N.pl3 238  ARG238      0.1354
    161  NH2       18.5110   54.1160   69.5530 N.pl3 238  ARG238      0.1354
    162  N         21.9830   61.6940   82.5520 N.3   265  ASP265     -0.1225
    163  CA        21.6490   61.8810   81.1310 C.3   265  ASP265      0.1805
    164  C         20.1750   61.5790   80.8650 C.2   265  ASP265      0.2598
    165  O         19.4510   61.0540   81.7270 O.2   265  ASP265     -0.2718
    166  CB        22.5880   61.0580   80.2110 C.3   265  ASP265      0.1424
    167  CG        22.0730   59.6620   79.8730 C.2   265  ASP265      0.3668
    168  OD1       20.9100   59.2750   80.1390 O.co2 265  ASP265     -0.2456
    169  OD2       22.8920   58.9440   79.2880 O.co2 265  ASP265     -0.2456
    170  N         19.7570   61.9590   79.6500 N.am  266  SER266     -0.1938
    171  CA        18.4370   61.7750   79.0410 C.3   266  SER266      0.2055
    172  C         17.7110   63.1180   78.8330 C.2   266  SER266      0.2644
    173  O         17.0310   63.6320   79.7340 O.2   266  SER266     -0.2714
    174  CB        17.5160   60.8430   79.8250 C.3   266  SER266      0.2130
    175  OG        17.6070   59.5160   79.3320 O.3   266  SER266     -0.2179
    176  N         17.8180   63.6730   77.6330 N.am  267  GLY267     -0.1939
    177  CA        17.0700   64.8560   77.2800 C.3   267  GLY267      0.2014
    178  C         17.9290   66.0320   76.9070 C.2   267  GLY267      0.2639
    179  O         17.3990   67.0090   76.3530 O.2   267  GLY267     -0.2714
    180  N         19.2400   65.9660   77.1520 N.am  268  ILE268     -0.1963
    181  CA        20.1060   67.1300   76.9980 C.3   268  ILE268      0.1727
    182  C         20.2500   67.4590   75.5140 C.2   268  ILE268      0.2616
    183  O         20.5090   66.5760   74.6870 O.2   268  ILE268     -0.2715
    184  CB        21.4810   66.8980   77.6640 C.3   268  ILE268      0.0290
    185  CG1       21.3410   66.6870   79.1940 C.3   268  ILE268      0.0022
    186  CG2       22.4760   68.0550   77.2390 C.3   268  ILE268      0.0023
    187  CD1       21.5130   67.9320   80.1190 C.3   268  ILE268      0.0001
    188  N         20.1000   68.7410   75.1790 N.am  269  ARG269     -0.1977
    189  CA        20.0760   69.2060   73.7960 C.3   269  ARG269      0.1597
    190  C         20.7810   70.5430   73.5760 C.2   269  ARG269      0.2287
    191  O         21.1180   70.8610   72.4280 O.2   269  ARG269     -0.2864
    192  CB        18.6200   69.3550   73.3160 C.3   269  ARG269      0.0334
    193  CG        17.7580   68.0980   73.4200 C.3   269  ARG269      0.0492
    194  CD        17.9990   67.1840   72.2400 C.3   269  ARG269      0.2205
    195  NE        17.2090   65.9780   72.2990 N.pl3 269  ARG269     -0.0865
    196  CZ        17.5350   64.9290   73.0360 C.cat 269  ARG269      0.5346
    197  NH1       18.6330   64.9550   73.7730 N.pl3 269  ARG269      0.1354
    198  NH2       16.7570   63.8590   73.0540 N.pl3 269  ARG269      0.1354
    199  N         25.8310   63.4080   80.4940 N.3   286  GLY286     -0.1225
    200  CA        26.0500   62.7000   79.2480 C.3   286  GLY286      0.1811
    201  C         25.2450   63.2700   78.1060 C.2   286  GLY286      0.2280
    202  O         24.2620   63.9470   78.3910 O.2   286  GLY286     -0.2866
    203  N         23.6950   62.0100   74.3060 N.3   288  GLY288     -0.1210
    204  CA        23.3990   61.0370   73.2730 C.3   288  GLY288      0.1956
    205  C         23.0510   61.7110   71.9570 C.2   288  GLY288      0.2611
    206  O         23.9450   62.1440   71.2180 O.2   288  GLY288     -0.2717
    207  N         21.7480   61.8350   71.6630 N.am  289  ARG289     -0.1979
    208  CA        21.3280   62.3120   70.3540 C.3   289  ARG289      0.1597
    209  C         22.2470   63.3470   69.7100 C.2   289  ARG289      0.2287
    210  O         22.5790   63.1980   68.5160 O.2   289  ARG289     -0.2864
    211  CB        19.9160   62.9280   70.4030 C.3   289  ARG289      0.0334
    212  CG        18.8680   61.9590   70.0640 C.3   289  ARG289      0.0492
    213  CD        18.9320   60.7410   71.0640 C.3   289  ARG289      0.2205
    214  NE        17.8090   59.8760   70.8250 N.pl3 289  ARG289     -0.0865
    215  CZ        16.8510   59.5830   71.6720 C.cat 289  ARG289      0.5346
    216  NH1       16.8730   60.0000   72.9320 N.pl3 289  ARG289      0.1354
    217  NH2       15.8710   58.7980   71.2300 N.pl3 289  ARG289      0.1354
@<TRIPOS>BOND
     1     1     2    1
     2     5     2    1
     3     5     6    1
     4    64    63    2
     5    19    17    1
     6     2     3    1
     7    13     3   am
     8    13    14    1
     9    17    14    1
    10    17    18    1
    11     6     7   ar
    12     6     8   ar
    13     3     4    2
    14    65    66    1
    15    65    67    1
    16    65    62    1
    17    63    62    1
    18    14    15    1
    19     7     9   ar
    20    62    61    1
    21     8    10   ar
    22    15    16    2
    23     9    11   ar
    24    10    11   ar
    25    61    59   am
    26    11    12    1
    27    60    59    2
    28   210   209    2
    29    59    58    1
    30   161   159    1
    31    55    53    1
    32   209   208    1
    33   160   159    1
    34   212   211    1
    35   212   213    1
    36    81    79    1
    37    52    51    2
    38    28    26   am
    39   208   211    1
    40   208   207    1
    41   159   158    2
    42    76    77    2
    43    76    75    1
    44    58    57    1
    45    78    75    1
    46    78    79    1
    47   214   213    1
    48   214   215    2
    49    53    50    1
    50    53    54    1
    51    51    57   am
    52    51    50    1
    53    75    74    1
    54    56    54    1
    55    79    80    1
    56   206   205    2
    57   217   215    1
    58    26    27    2
    59    26    25    1
    60   207   205   am
    61   215   216    1
    62   158   157    1
    63    50    49    1
    64   205   204    1
    65   194   195    1
    66   194   193    1
    67   195   196    2
    68   191   190    2
    69    25    24    1
    70   157   156    1
    71   156   155    1
    72    49    44   am
    73   196   198    1
    74   196   197    1
    75   204   203    1
    76   192   193    1
    77   192   189    1
    78    72    73    1
    79    72    69    1
    80   190   189    1
    81    24    21    1
    82   189   188    1
    83   154   153    2
    84    71    70    2
    85    44    45    2
    86    44    43    1
    87   155   152    1
    88    68    69    1
    89    70    69    1
    90    40    39    2
    91   152   153    1
    92   152   151    1
    93   102   101    1
    94   183   182    2
    95   150   149    2
    96    22    21    1
    97    22    23    2
    98    21    20    1
    99   188   182   am
   100   100   101   ar
   101   100    98   ar
   102    43    42    1
   103    43    46    1
   104   101    99   ar
   105   182   181    1
   106    39    42   am
   107    39    38    1
   108    98    96   ar
   109   146   144   ar
   110   146   145   ar
   111    37    38    1
   112    99    97   ar
   113   149   148    1
   114   144   142   ar
   115    42    48    1
   116    46    47    1
   117   179   178    2
   118   140   139    2
   119   148   147    1
   120    38    41    1
   121    96    97   ar
   122    96    95    1
   123    89    88    2
   124   178   180   am
   125   178   177    1
   126   181   180    1
   127   181   184    1
   128   145   143   ar
   129   186   184    1
   130    95    92    1
   131   177   176    1
   132   139   147   am
   133   139   138    1
   134   142   143   ar
   135   142   141    1
   136    47    48    1
   137   176   172   am
   138   184   185    1
   139    85    84    2
   140    88    90   am
   141    88    87    1
   142   201   202    2
   143   201   200    1
   144   141   138    1
   145   138   137    1
   146    31    30    1
   147    31    32    2
   148    36    34   am
   149    33    30    1
   150    33    34    1
   151    29    30    1
   152    86    87    1
   153    86    83    1
   154    92    91    1
   155    92    93    1
   156   172   171    1
   157   172   173    2
   158    94    93    2
   159    84    83    1
   160    82    83    1
   161   171   170    1
   162   171   174    1
   163    34    35    2
   164   118   117    1
   165   185   187    1
   166   200   199    1
   167   169   167   ar
   168   175   174    1
   169   170   164   am
   170   167   168   ar
   171   167   166    1
   172   117   116    1
   173   166   163    1
   174   130   129    1
   175   109   107    1
   176   108   107    1
   177   107   104    1
   178   164   163    1
   179   164   165    2
   180   116   115    1
   181   136   135    1
   182   163   162    1
   183   129   128   ar
   184   129   127   ar
   185   128   126   ar
   186   106   105    2
   187   104   103    1
   188   104   105    1
   189   115   114    1
   190   135   132    1
   191   127   125   ar
   192   133   132    1
   193   133   134    2
   194   132   131    1
   195   114   111    1
   196   126   124   ar
   197   125   124   ar
   198   124   123    1
   199   113   112    2
   200   112   111    1
   201   111   110    1
   202   123   120    1
   203   122   121    2
   204   121   120    1
   205   120   119    1
