@<TRIPOS>MOLECULE
tmp/6dvlA00.pdb
 158 154 0 0 0
SMALL
GASTEIGER

@<TRIPOS>ATOM
      1  N         -1.1200    6.0060  -41.6720 N.3    18  ASP18      -0.1239
      2  CA        -2.0020    6.5960  -40.6620 C.3    18  ASP18       0.1674
      3  C         -2.0620    5.6070  -39.4960 C.2    18  ASP18       0.2266
      4  O         -2.8940    4.6990  -39.4790 O.2    18  ASP18      -0.2867
      5  CB        -3.3860    6.8920  -41.2220 C.3    18  ASP18       0.1410
      6  CG        -4.3100    7.5190  -40.1940 C.2    18  ASP18       0.3668
      7  OD1       -3.8140    7.9730  -39.1400 O.co2  18  ASP18      -0.2456
      8  OD2       -5.5340    7.5500  -40.4370 O.co2  18  ASP18      -0.2456
      9  N         -5.4420    4.9380  -37.6500 N.3    21  HIS21      -0.1227
     10  CA        -6.5920    4.3790  -38.3450 C.3    21  HIS21       0.1737
     11  C         -7.3360    3.4320  -37.4050 C.2    21  HIS21       0.2438
     12  O         -6.7090    2.5530  -36.7980 O.2    21  HIS21      -0.2733
     13  CB        -6.1370    3.6500  -39.6110 C.3    21  HIS21       0.0758
     14  CG        -7.2580    3.1910  -40.4930 C.ar   21  HIS21       0.0818
     15  ND1       -8.1300    2.1890  -40.1290 N.ar   21  HIS21      -0.2268
     16  CD2       -7.6270    3.5760  -41.7380 C.ar   21  HIS21       0.1154
     17  CE1       -8.9980    1.9860  -41.1040 C.ar   21  HIS21       0.1986
     18  NE2       -8.7140    2.8140  -42.0930 N.ar   21  HIS21      -0.2212
     19  N         -8.6540    3.5850  -37.2470 N.am   22  PRO22      -0.2729
     20  CA        -9.3790    2.8110  -36.2230 C.3    22  PRO22       0.1401
     21  C         -9.3050    1.3010  -36.3880 C.2    22  PRO22       0.2269
     22  O         -9.5110    0.5840  -35.4000 O.2    22  PRO22      -0.2865
     23  CB       -10.8220    3.3120  -36.3680 C.3    22  PRO22       0.0296
     24  CG       -10.6830    4.6790  -36.9230 C.3    22  PRO22       0.0237
     25  CD        -9.4940    4.6360  -37.8390 C.3    22  PRO22       0.0939
     26  N        -11.4420    2.4980  -49.6140 N.3    89  SER89      -0.1217
     27  CA       -11.1100    2.4750  -48.1860 C.3    89  SER89       0.1889
     28  C        -10.2990    1.2310  -47.8120 C.2    89  SER89       0.2288
     29  O        -10.7450    0.3670  -47.0540 O.2    89  SER89      -0.2866
     30  CB       -12.3790    2.5800  -47.3330 C.3    89  SER89       0.2089
     31  OG       -13.2210    3.6160  -47.8050 O.3    89  SER89      -0.2183
     32  N        -11.1350   -7.6490  -41.2210 N.3   129  PRO129     -0.2116
     33  CA       -12.4960   -8.1580  -41.4580 C.3   129  PRO129      0.1372
     34  C        -12.6970   -8.6160  -42.8940 C.2   129  PRO129      0.2244
     35  O        -11.7760   -8.5130  -43.7110 O.2   129  PRO129     -0.2868
     36  CB       -13.3850   -6.9560  -41.1160 C.3   129  PRO129      0.0268
     37  CG       -12.4930   -5.7640  -41.2920 C.3   129  PRO129      0.0207
     38  CD       -11.1290   -6.2180  -40.8720 C.3   129  PRO129      0.0892
     39  N        -16.4090   -8.9470  -44.6170 N.3   131  HIS131     -0.1226
     40  CA       -17.7210   -8.9590  -45.2590 C.3   131  HIS131      0.1752
     41  C        -17.9070   -7.8650  -46.3110 C.2   131  HIS131      0.2596
     42  O        -18.9060   -7.9030  -47.0360 O.2   131  HIS131     -0.2718
     43  CB       -18.8280   -8.8810  -44.2010 C.3   131  HIS131      0.0759
     44  CG       -18.9170   -7.5600  -43.5050 C.ar  131  HIS131      0.0818
     45  ND1      -20.0990   -7.0760  -42.9870 N.ar  131  HIS131     -0.2268
     46  CD2      -17.9760   -6.6250  -43.2360 C.ar  131  HIS131      0.1154
     47  CE1      -19.8830   -5.8950  -42.4350 C.ar  131  HIS131      0.1986
     48  NE2      -18.6030   -5.5990  -42.5720 N.ar  131  HIS131     -0.2212
     49  N        -16.9820   -6.9130  -46.4360 N.am  132  HIS132     -0.1975
     50  CA       -17.0300   -5.9690  -47.5490 C.3   132  HIS132      0.1656
     51  C        -16.2970   -6.4670  -48.7870 C.2   132  HIS132      0.2291
     52  O        -16.4940   -5.9040  -49.8700 O.2   132  HIS132     -0.2864
     53  CB       -16.4460   -4.6140  -47.1390 C.3   132  HIS132      0.0771
     54  CG       -17.2690   -3.8890  -46.1240 C.ar  132  HIS132      0.0820
     55  ND1      -18.6020   -3.6010  -46.3190 N.ar  132  HIS132     -0.2267
     56  CD2      -16.9500   -3.3930  -44.9060 C.ar  132  HIS132      0.1154
     57  CE1      -19.0720   -2.9620  -45.2630 C.ar  132  HIS132      0.1986
     58  NE2      -18.0890   -2.8220  -44.3910 N.ar  132  HIS132     -0.2212
     59  N        -13.5270   -1.6520  -48.0290 N.3   140  GLY140     -0.1210
     60  CA       -13.8550   -1.3400  -46.6500 C.3   140  GLY140      0.1956
     61  C        -13.0820   -2.1010  -45.5930 C.2   140  GLY140      0.2611
     62  O        -13.6890   -2.7370  -44.7260 O.2   140  GLY140     -0.2717
     63  N        -11.7510   -2.0430  -45.6560 N.am  141  PHE141     -0.1976
     64  CA       -10.8230   -2.6980  -44.7350 C.3   141  PHE141      0.1639
     65  C        -10.7630   -4.2070  -44.9320 C.2   141  PHE141      0.2290
     66  O        -10.0290   -4.8810  -44.1960 O.2   141  PHE141     -0.2864
     67  CB       -11.1360   -2.4340  -43.2490 C.3   141  PHE141      0.0560
     68  CG       -11.4960   -1.0060  -42.9180 C.ar  141  PHE141     -0.0200
     69  CD1      -11.0470    0.0580  -43.6900 C.ar  141  PHE141     -0.0042
     70  CD2      -12.2780   -0.7340  -41.8060 C.ar  141  PHE141     -0.0042
     71  CE1      -11.3900    1.3590  -43.3680 C.ar  141  PHE141     -0.0003
     72  CE2      -12.6160    0.5650  -41.4760 C.ar  141  PHE141     -0.0003
     73  CZ       -12.1720    1.6130  -42.2600 C.ar  141  PHE141     -0.0000
     74  N        -22.9540   -6.6110  -37.8570 N.3   170  ASP170     -0.1239
     75  CA       -22.1140   -5.4420  -38.0500 C.3   170  ASP170      0.1674
     76  C        -22.9720   -4.2730  -38.5230 C.2   170  ASP170      0.2266
     77  O        -23.9640   -4.4520  -39.2330 O.2   170  ASP170     -0.2867
     78  CB       -21.0170   -5.7700  -39.0660 C.3   170  ASP170      0.1410
     79  CG       -20.0200   -4.6460  -39.2450 C.2   170  ASP170      0.3668
     80  OD1      -20.4090   -3.5620  -39.7260 O.co2 170  ASP170     -0.2456
     81  OD2      -18.8370   -4.8510  -38.9100 O.co2 170  ASP170     -0.2456
     82  N        -22.5350   -2.1470  -40.6880 N.3   172  HIS172     -0.1241
     83  CA       -22.4620   -1.9180  -42.1220 C.3   172  HIS172      0.1621
     84  C        -23.0220   -3.1140  -42.8810 C.2   172  HIS172      0.2264
     85  O        -22.9460   -4.2560  -42.4220 O.2   172  HIS172     -0.2867
     86  CB       -21.0190   -1.6580  -42.5630 C.3   172  HIS172      0.0745
     87  CG       -20.3930   -0.4660  -41.9080 C.ar  172  HIS172      0.0817
     88  ND1      -19.5670   -0.5680  -40.8110 N.ar  172  HIS172     -0.2268
     89  CD2      -20.4820    0.8550  -42.1900 C.ar  172  HIS172      0.1154
     90  CE1      -19.1700    0.6380  -40.4460 C.ar  172  HIS172      0.1986
     91  NE2      -19.7110    1.5190  -41.2680 N.ar  172  HIS172     -0.2212
     92  N        -26.9890    6.6400  -47.8310 N.3   199  ALA199     -0.1231
     93  CA       -25.8850    7.5530  -47.5680 C.3   199  ALA199      0.1694
     94  C        -24.8270    6.9600  -46.6490 C.2   199  ALA199      0.2592
     95  O        -23.6650    7.3780  -46.7130 O.2   199  ALA199     -0.2718
     96  CB       -26.4100    8.8560  -46.9560 C.3   199  ALA199      0.0304
     97  N        -25.1940    6.0120  -45.7940 N.am  200  PHE200     -0.1962
     98  CA       -24.2250    5.3540  -44.9310 C.3   200  PHE200      0.1771
     99  C        -23.4000    4.3610  -45.7460 C.2   200  PHE200      0.2619
    100  O        -23.8790    3.7840  -46.7260 O.2   200  PHE200     -0.2715
    101  CB       -24.9430    4.6450  -43.7800 C.3   200  PHE200      0.0574
    102  CG       -24.0950    4.4430  -42.5530 C.ar  200  PHE200     -0.0200
    103  CD1      -23.7580    5.5150  -41.7430 C.ar  200  PHE200     -0.0042
    104  CD2      -23.6640    3.1760  -42.1920 C.ar  200  PHE200     -0.0042
    105  CE1      -22.9880    5.3300  -40.6070 C.ar  200  PHE200     -0.0003
    106  CE2      -22.8950    2.9850  -41.0560 C.ar  200  PHE200     -0.0003
    107  CZ       -22.5560    4.0640  -40.2640 C.ar  200  PHE200     -0.0000
    108  N        -22.1430    4.1860  -45.3450 N.am  201  PHE201     -0.1974
    109  CA       -21.2580    3.2630  -46.0430 C.3   201  PHE201      0.1639
    110  C        -21.8630    1.8600  -46.0310 C.2   201  PHE201      0.2290
    111  O        -22.4000    1.4280  -45.0040 O.2   201  PHE201     -0.2864
    112  CB       -19.8770    3.2540  -45.3790 C.3   201  PHE201      0.0560
    113  CG       -18.8440    2.4570  -46.1260 C.ar  201  PHE201     -0.0200
    114  CD1      -18.6540    1.1100  -45.8560 C.ar  201  PHE201     -0.0042
    115  CD2      -18.0620    3.0550  -47.1000 C.ar  201  PHE201     -0.0042
    116  CE1      -17.7080    0.3760  -46.5480 C.ar  201  PHE201     -0.0003
    117  CE2      -17.1120    2.3270  -47.7930 C.ar  201  PHE201     -0.0003
    118  CZ       -16.9350    0.9870  -47.5160 C.ar  201  PHE201     -0.0000
    119  N        -22.8060    2.9340  -49.1070 N.3   203  ASN203     -0.1240
    120  CA       -23.4240    3.9200  -50.0010 C.3   203  ASN203      0.1653
    121  C        -24.0280    3.2810  -51.2500 C.2   203  ASN203      0.2266
    122  O        -23.8420    3.7710  -52.3650 O.2   203  ASN203     -0.2867
    123  CB       -22.4180    5.0030  -50.4000 C.3   203  ASN203      0.1155
    124  CG       -21.5670    5.4620  -49.2390 C.2   203  ASN203      0.2627
    125  OD1      -20.5100    4.8940  -48.9690 O.2   203  ASN203     -0.2716
    126  ND2      -22.0240    6.4940  -48.5430 N.am  203  ASN203     -0.0877
    127  N        -19.4620   -2.5400  -34.3050 N.3   263  ASP263     -0.1239
    128  CA       -19.4690   -1.1050  -34.5490 C.3   263  ASP263      0.1674
    129  C        -20.8570   -0.4960  -34.4220 C.2   263  ASP263      0.2266
    130  O        -21.0030    0.7140  -34.6110 O.2   263  ASP263     -0.2867
    131  CB       -18.8780   -0.7990  -35.9260 C.3   263  ASP263      0.1410
    132  CG       -19.2550   -1.8300  -36.9620 C.2   263  ASP263      0.3668
    133  OD1      -20.1440   -2.6630  -36.6870 O.co2 263  ASP263     -0.2456
    134  OD2      -18.6510   -1.8080  -38.0550 O.co2 263  ASP263     -0.2456
    135  N        -17.5260    5.0150  -35.7190 N.3   270  LEU270     -0.1245
    136  CA       -17.9920    4.7970  -37.0810 C.3   270  LEU270      0.1561
    137  C        -19.4570    4.4000  -37.1770 C.2   270  LEU270      0.2260
    138  O        -20.0370    4.5130  -38.2610 O.2   270  LEU270     -0.2867
    139  CB       -17.1510    3.7140  -37.7760 C.3   270  LEU270      0.0270
    140  CG       -15.6870    3.9920  -38.1330 C.3   270  LEU270      0.0019
    141  CD1      -15.5440    5.3440  -38.8010 C.3   270  LEU270      0.0001
    142  CD2      -14.7740    3.8860  -36.9180 C.3   270  LEU270      0.0001
    143  N        -16.2920   -5.7570  -37.9350 N.3   301  GLY301     -0.1225
    144  CA       -15.9690   -4.4010  -37.5470 C.3   301  GLY301      0.1811
    145  C        -16.0500   -4.1820  -36.0460 C.2   301  GLY301      0.2280
    146  O        -16.1290   -5.1160  -35.2460 O.2   301  GLY301     -0.2866
    147  N        -14.8120   -0.5820  -33.4530 N.3   303  TYR303     -0.1241
    148  CA       -13.6350    0.2690  -33.3800 C.3   303  TYR303      0.1605
    149  C        -13.4790    1.0400  -32.0790 C.2   303  TYR303      0.2264
    150  O        -12.4440    1.6890  -31.8970 O.2   303  TYR303     -0.2867
    151  CB       -13.6300    1.2430  -34.5670 C.3   303  TYR303      0.0534
    152  CG       -13.8040    0.4940  -35.8640 C.ar  303  TYR303     -0.0201
    153  CD1      -12.7400   -0.1930  -36.4330 C.ar  303  TYR303     -0.0009
    154  CD2      -15.0430    0.4180  -36.4870 C.ar  303  TYR303     -0.0009
    155  CE1      -12.8950   -0.9050  -37.6000 C.ar  303  TYR303      0.0417
    156  CE2      -15.2070   -0.2910  -37.6580 C.ar  303  TYR303      0.0417
    157  CZ       -14.1270   -0.9520  -38.2100 C.ar  303  TYR303      0.1957
    158  OH       -14.2690   -1.6670  -39.3730 O.3   303  TYR303     -0.2866
@<TRIPOS>BOND
     1   122   121    2
     2   121   120    1
     3   123   120    1
     4   123   124    1
     5   120   119    1
     6    52    51    2
     7    26    27    1
     8   124   125    2
     9   124   126   am
    10    51    50    1
    11    27    28    1
    12    27    30    1
    13    59    60    1
    14    92    93    1
    15    28    29    2
    16    31    30    1
    17   117   118   ar
    18   117   115   ar
    19    93    96    1
    20    93    94    1
    21    50    53    1
    22    50    49    1
    23   118   116   ar
    24    53    54    1
    25   115   113   ar
    26    42    41    2
    27   100    99    2
    28    95    94    2
    29    60    61    1
    30    94    97   am
    31   116   114   ar
    32    49    41   am
    33    55    54   ar
    34    55    57   ar
    35    41    40    1
    36   113   114   ar
    37   113   112    1
    38    54    56   ar
    39   109   110    1
    40   109   112    1
    41   109   108    1
    42   110   111    2
    43    97    98    1
    44    99   108   am
    45    99    98    1
    46    63    61   am
    47    63    64    1
    48    61    62    2
    49    57    58   ar
    50    40    39    1
    51    40    43    1
    52    65    64    1
    53    65    66    2
    54    98   101    1
    55    56    58   ar
    56    64    67    1
    57    43    44    1
    58   101   102    1
    59    35    34    2
    60    69    71   ar
    61    69    68   ar
    62    44    46   ar
    63    44    45   ar
    64    71    73   ar
    65    67    68    1
    66    46    48   ar
    67    45    47   ar
    68    68    70   ar
    69    34    33    1
    70    84    85    2
    71    84    83    1
    72    48    47   ar
    73    86    83    1
    74    86    87    1
    75   102   104   ar
    76   102   103   ar
    77    73    72   ar
    78   104   106   ar
    79    89    87   ar
    80    89    91   ar
    81    83    82    1
    82    18    16   ar
    83    18    17   ar
    84    87    88   ar
    85    70    72   ar
    86   103   105   ar
    87    16    14   ar
    88     1     2    1
    89    33    32    1
    90    33    36    1
    91    37    36    1
    92    37    38    1
    93    91    90   ar
    94     5     2    1
    95     5     6    1
    96    32    38    1
    97    17    15   ar
    98   106   107   ar
    99    88    90   ar
   100     2     3    1
   101   105   107   ar
   102    14    15   ar
   103    14    13    1
   104     8     6   ar
   105     6     7   ar
   106    80    79   ar
   107    13    10    1
   108     3     4    2
   109   158   157    1
   110    79    78    1
   111    79    81   ar
   112    77    76    2
   113    78    75    1
   114   141   140    1
   115    76    75    1
   116    10     9    1
   117    10    11    1
   118   138   137    2
   119   157   156   ar
   120   157   155   ar
   121   140   139    1
   122   140   142    1
   123   134   132   ar
   124    75    74    1
   125   143   144    1
   126    25    19    1
   127    25    24    1
   128   139   136    1
   129   156   154   ar
   130   155   153   ar
   131   144   145    1
   132    11    19   am
   133    11    12    2
   134    19    20    1
   135   137   136    1
   136   136   135    1
   137   132   133   ar
   138   132   131    1
   139    24    23    1
   140   154   152   ar
   141   153   152   ar
   142    21    20    1
   143    21    22    2
   144    23    20    1
   145   145   146    2
   146   131   128    1
   147   152   151    1
   148   130   129    2
   149   151   148    1
   150   128   129    1
   151   128   127    1
   152   147   148    1
   153   148   149    1
   154   149   150    2
