@<TRIPOS>MOLECULE
tmp/6dvmC01.pdb
 166 162 0 0 0
SMALL
GASTEIGER

@<TRIPOS>ATOM
      1  N         32.6770    5.2310  -24.9910 N.3    19  ASP19      -0.1239
      2  CA        33.8010    4.8200  -25.8310 C.3    19  ASP19       0.1674
      3  C         33.6860    5.6270  -27.1180 C.2    19  ASP19       0.2266
      4  O         32.9330    5.2470  -28.0260 O.2    19  ASP19      -0.2867
      5  CB        33.7990    3.3210  -26.1030 C.3    19  ASP19       0.1410
      6  CG        34.9350    2.8920  -27.0280 C.2    19  ASP19       0.3668
      7  OD1       35.7590    3.7490  -27.4150 O.co2  19  ASP19      -0.2456
      8  OD2       34.9820    1.7020  -27.4010 O.co2  19  ASP19      -0.2456
      9  N         35.5870    5.7490  -29.4590 N.3    21  HIS21      -0.1226
     10  CA        36.1890    5.0140  -30.5620 C.3    21  HIS21       0.1752
     11  C         35.4280    3.7400  -30.8980 C.2    21  HIS21       0.2596
     12  O         35.9650    2.8730  -31.5930 O.2    21  HIS21      -0.2718
     13  CB        37.6490    4.7130  -30.2200 C.3    21  HIS21       0.0759
     14  CG        38.4010    5.9260  -29.7730 C.ar   21  HIS21       0.0818
     15  ND1       38.6700    6.1860  -28.4470 N.ar   21  HIS21      -0.2268
     16  CD2       38.8890    6.9760  -30.4720 C.ar   21  HIS21       0.1154
     17  CE1       39.3260    7.3280  -28.3520 C.ar   21  HIS21       0.1986
     18  NE2       39.4760    7.8270  -29.5660 N.ar   21  HIS21      -0.2212
     19  N         34.2060    3.6020  -30.4040 N.am   22  HIS22      -0.1962
     20  CA        33.4240    2.4120  -30.6940 C.3    22  HIS22       0.1772
     21  C         33.2280    2.2970  -32.2050 C.2    22  HIS22       0.2462
     22  O         33.0320    3.3110  -32.8800 O.2    22  HIS22      -0.2730
     23  CB        32.0750    2.4930  -29.9930 C.3    22  HIS22       0.0785
     24  CG        31.2300    1.2870  -30.1900 C.ar   22  HIS22       0.0821
     25  ND1       30.5790    1.0240  -31.3780 N.ar   22  HIS22      -0.2267
     26  CD2       30.9250    0.2690  -29.3540 C.ar   22  HIS22       0.1154
     27  CE1       29.8880   -0.0970  -31.2530 C.ar   22  HIS22       0.1986
     28  NE2       30.0830   -0.5750  -30.0320 N.ar   22  HIS22      -0.2212
     29  N         33.3180    1.0930  -32.7660 N.am   23  PRO23      -0.2727
     30  CA        33.2630    0.9430  -34.2400 C.3    23  PRO23       0.1402
     31  C         32.0810    1.6330  -34.9400 C.2    23  PRO23       0.2269
     32  O         32.2310    2.0900  -36.0900 O.2    23  PRO23      -0.2865
     33  CB        33.1750   -0.5830  -34.4210 C.3    23  PRO23       0.0296
     34  CG        33.9320   -1.1300  -33.2290 C.3    23  PRO23       0.0237
     35  CD        33.6080   -0.1740  -32.0740 C.3    23  PRO23       0.0939
     36  N         22.2250   -7.2280  -25.9650 N.3    89  ASN89      -0.1225
     37  CA        23.4690   -7.7280  -26.5470 C.3    89  ASN89       0.1785
     38  C         24.0470   -6.6510  -27.4650 C.2    89  ASN89       0.2597
     39  O         23.4530   -6.3270  -28.4980 O.2    89  ASN89      -0.2718
     40  CB        23.1320   -8.9880  -27.3370 C.3    89  ASN89       0.1169
     41  CG        24.3480   -9.6980  -27.8880 C.2    89  ASN89       0.2627
     42  OD1       25.4470   -9.1310  -27.9750 O.2    89  ASN89      -0.2716
     43  ND2       24.1550  -10.9580  -28.2680 N.am   89  ASN89      -0.0877
     44  N         25.1800   -6.0560  -27.0800 N.am   90  SER90      -0.1952
     45  CA        25.9360   -5.1640  -27.9750 C.3    90  SER90       0.1924
     46  C         25.1260   -3.9380  -28.4130 C.2    90  SER90       0.2314
     47  O         24.9680   -3.6780  -29.6080 O.2    90  SER90      -0.2863
     48  CB        26.4520   -5.9180  -29.2000 C.3    90  SER90       0.2116
     49  OG        27.2550   -7.0100  -28.8090 O.3    90  SER90      -0.2180
     50  N         22.1140    1.0470  -37.5720 N.3   130  PRO130     -0.2116
     51  CA        21.6380   -0.0250  -38.4590 C.3   130  PRO130      0.1372
     52  C         20.4180   -0.7320  -37.8980 C.2   130  PRO130      0.2244
     53  O         19.9420   -0.4170  -36.7960 O.2   130  PRO130     -0.2868
     54  CB        22.8450   -0.9800  -38.5260 C.3   130  PRO130      0.0268
     55  CG        23.5670   -0.7530  -37.2050 C.3   130  PRO130      0.0207
     56  CD        23.4320    0.7530  -36.9800 C.3   130  PRO130      0.0892
     57  N         19.3560   -4.5740  -38.9380 N.3   132  HIS132     -0.1226
     58  CA        18.9670   -5.9610  -39.2360 C.3   132  HIS132      0.1752
     59  C         19.0660   -6.9320  -38.0490 C.2   132  HIS132      0.2596
     60  O         18.4710   -8.0150  -38.1220 O.2   132  HIS132     -0.2718
     61  CB        19.6570   -6.5140  -40.4840 C.3   132  HIS132      0.0759
     62  CG        21.1280   -6.7230  -40.3180 C.ar  132  HIS132      0.0818
     63  ND1       21.8110   -7.6750  -41.0520 N.ar  132  HIS132     -0.2268
     64  CD2       22.0530   -6.1070  -39.5420 C.ar  132  HIS132      0.1154
     65  CE1       23.0910   -7.6460  -40.7080 C.ar  132  HIS132      0.1986
     66  NE2       23.2610   -6.7010  -39.8050 N.ar  132  HIS132     -0.2212
     67  N         19.7560   -6.5860  -36.9690 N.am  133  HIS133     -0.1975
     68  CA        19.7550   -7.4460  -35.7850 C.3   133  HIS133      0.1656
     69  C         18.5870   -7.1630  -34.8480 C.2   133  HIS133      0.2291
     70  O         18.3730   -7.9310  -33.8920 O.2   133  HIS133     -0.2864
     71  CB        21.0650   -7.2880  -34.9780 C.3   133  HIS133      0.0771
     72  CG        22.3140   -7.6710  -35.7220 C.ar  133  HIS133      0.0820
     73  ND1       22.5190   -8.9370  -36.2290 N.ar  133  HIS133     -0.2267
     74  CD2       23.4350   -6.9630  -35.9940 C.ar  133  HIS133      0.1154
     75  CE1       23.7090   -8.9830  -36.8110 C.ar  133  HIS133      0.1986
     76  NE2       24.2880   -7.7990  -36.6770 N.ar  133  HIS133     -0.2212
     77  N         22.9480   -5.7300  -31.2460 N.3   141  GLY141     -0.1210
     78  CA        23.9580   -5.5940  -32.2830 C.3   141  GLY141      0.1956
     79  C         23.9640   -4.2600  -32.9940 C.2   141  GLY141      0.2612
     80  O         24.0510   -4.2060  -34.2300 O.2   141  GLY141     -0.2717
     81  N         23.8700   -3.1770  -32.2240 N.am  142  PHE142     -0.1962
     82  CA        23.9470   -1.7950  -32.6820 C.3   142  PHE142      0.1771
     83  C         22.6110   -1.3580  -33.2720 C.2   142  PHE142      0.2619
     84  O         22.5240   -0.2140  -33.7290 O.2   142  PHE142     -0.2715
     85  CB        25.0620   -1.4950  -33.7150 C.3   142  PHE142      0.0574
     86  CG        26.4460   -2.0220  -33.3500 C.ar  142  PHE142     -0.0200
     87  CD1       26.7950   -2.3640  -32.0610 C.ar  142  PHE142     -0.0042
     88  CD2       27.3950   -2.1500  -34.3570 C.ar  142  PHE142     -0.0042
     89  CE1       28.1080   -2.8580  -31.7870 C.ar  142  PHE142     -0.0003
     90  CE2       28.6670   -2.6200  -34.0950 C.ar  142  PHE142     -0.0003
     91  CZ        29.0150   -2.9660  -32.8000 C.ar  142  PHE142     -0.0000
     92  N         21.5820   -2.2180  -33.2790 N.am  143  CYS143     -0.1968
     93  CA        20.3160   -1.9530  -33.9620 C.3   143  CYS143      0.1712
     94  C         19.1590   -1.8150  -32.9750 C.2   143  CYS143      0.2296
     95  O         19.0120   -2.6350  -32.0710 O.2   143  CYS143     -0.2864
     96  CB        19.9640   -3.1170  -34.9020 C.3   143  CYS143      0.0983
     97  SG        21.2830   -3.5360  -36.0980 S.3   143  CYS143     -0.0798
     98  N         25.4080   -7.7270  -45.5530 N.3   171  ASP171     -0.1239
     99  CA        26.2150   -7.4940  -44.3720 C.3   171  ASP171      0.1674
    100  C         26.8930   -8.8070  -43.9770 C.2   171  ASP171      0.2266
    101  O         26.3370   -9.8880  -44.1870 O.2   171  ASP171     -0.2867
    102  CB        25.2860   -6.9830  -43.2700 C.3   171  ASP171      0.1410
    103  CG        26.0110   -6.5570  -42.0390 C.2   171  ASP171      0.3668
    104  OD1       26.4650   -7.4460  -41.3000 O.co2 171  ASP171     -0.2456
    105  OD2       26.0800   -5.3350  -41.7850 O.co2 171  ASP171     -0.2456
    106  N         27.2490  -10.1340  -41.2150 N.3   173  HIS173     -0.1241
    107  CA        26.5500  -10.8140  -40.1310 C.3   173  HIS173      0.1621
    108  C         25.1530  -11.2170  -40.5680 C.2   173  HIS173      0.2264
    109  O         24.5350  -10.5750  -41.4160 O.2   173  HIS173     -0.2867
    110  CB        26.4160   -9.9020  -38.9100 C.3   173  HIS173      0.0745
    111  CG        27.7350   -9.3960  -38.4050 C.ar  173  HIS173      0.0817
    112  ND1       28.2260   -8.1520  -38.7390 N.ar  173  HIS173     -0.2268
    113  CD2       28.6770   -9.9750  -37.6200 C.ar  173  HIS173      0.1154
    114  CE1       29.4030   -7.9720  -38.1570 C.ar  173  HIS173      0.1986
    115  NE2       29.7030   -9.0660  -37.4760 N.ar  173  HIS173     -0.2212
    116  N         29.4310  -13.7340  -34.5030 N.3   202  PHE202     -0.1241
    117  CA        28.2660  -12.9610  -34.0890 C.3   202  PHE202      0.1605
    118  C         27.2050  -12.9870  -35.1960 C.2   202  PHE202      0.2264
    119  O         27.5480  -12.8280  -36.3750 O.2   202  PHE202     -0.2867
    120  CB        28.6940  -11.5070  -33.8120 C.3   202  PHE202      0.0534
    121  CG        27.5780  -10.6540  -33.2660 C.ar  202  PHE202     -0.0203
    122  CD1       26.7770   -9.8940  -34.1160 C.ar  202  PHE202     -0.0042
    123  CD2       27.2840  -10.6690  -31.8950 C.ar  202  PHE202     -0.0042
    124  CE1       25.7180   -9.1450  -33.6110 C.ar  202  PHE202     -0.0003
    125  CE2       26.2450   -9.9210  -31.3810 C.ar  202  PHE202     -0.0003
    126  CZ        25.4430   -9.1580  -32.2580 C.ar  202  PHE202     -0.0000
    127  N         25.9870  -15.5090  -33.2360 N.3   204  ASN204     -0.1240
    128  CA        26.2960  -16.6830  -32.4100 C.3   204  ASN204      0.1653
    129  C         25.1250  -17.6520  -32.2970 C.2   204  ASN204      0.2266
    130  O         24.9550  -18.3020  -31.2610 O.2   204  ASN204     -0.2867
    131  CB        26.7800  -16.2830  -31.0050 C.3   204  ASN204      0.1155
    132  CG        27.8710  -15.2300  -31.0380 C.2   204  ASN204      0.2627
    133  OD1       27.6030  -14.0440  -30.8740 O.2   204  ASN204     -0.2716
    134  ND2       29.1090  -15.6720  -31.2250 N.am  204  ASN204     -0.0877
    135  N         30.6180   -4.5020  -44.0270 N.3   264  ASP264     -0.1239
    136  CA        31.5780   -5.1420  -43.1420 C.3   264  ASP264      0.1674
    137  C         32.1170   -6.4590  -43.6900 C.2   264  ASP264      0.2266
    138  O         33.0210   -7.0270  -43.0800 O.2   264  ASP264     -0.2867
    139  CB        31.0420   -5.2600  -41.6980 C.3   264  ASP264      0.1410
    140  CG        29.6230   -5.7800  -41.6150 C.2   264  ASP264      0.3668
    141  OD1       29.0490   -6.2090  -42.6490 O.co2 264  ASP264     -0.2456
    142  OD2       29.0890   -5.7480  -40.4600 O.co2 264  ASP264     -0.2456
    143  N         36.4380   -5.9110  -38.4840 N.3   271  LEU271     -0.1245
    144  CA        35.5550   -6.8320  -37.7890 C.3   271  LEU271      0.1561
    145  C         35.1670   -8.0260  -38.6450 C.2   271  LEU271      0.2260
    146  O         35.0830   -9.1440  -38.1290 O.2   271  LEU271     -0.2867
    147  CB        34.2800   -6.1220  -37.3170 C.3   271  LEU271      0.0270
    148  CG        34.4870   -5.0090  -36.2880 C.3   271  LEU271      0.0019
    149  CD1       33.1460   -4.6150  -35.6350 C.3   271  LEU271      0.0001
    150  CD2       35.5220   -5.4110  -35.2530 C.3   271  LEU271      0.0001
    151  N         25.8810   -2.4190  -41.4300 N.3   302  GLY302     -0.1225
    152  CA        27.2050   -2.2990  -40.8230 C.3   302  GLY302      0.1811
    153  C         28.3040   -1.9020  -41.8040 C.2   302  GLY302      0.2280
    154  O         28.0620   -1.5070  -42.9480 O.2   302  GLY302     -0.2866
    155  N         32.7910   -0.9250  -41.0440 N.3   304  TYR304     -0.1241
    156  CA        33.5580   -0.2620  -39.9830 C.3   304  TYR304      0.1605
    157  C         34.8910    0.3020  -40.4130 C.2   304  TYR304      0.2264
    158  O         35.5300    0.9770  -39.5980 O.2   304  TYR304     -0.2867
    159  CB        33.7290   -1.1920  -38.7650 C.3   304  TYR304      0.0534
    160  CG        32.3580   -1.6160  -38.3560 C.ar  304  TYR304     -0.0201
    161  CD1       31.5020   -0.7000  -37.7450 C.ar  304  TYR304     -0.0009
    162  CD2       31.8470   -2.8740  -38.7180 C.ar  304  TYR304     -0.0009
    163  CE1       30.1840   -1.0420  -37.4530 C.ar  304  TYR304      0.0417
    164  CE2       30.5480   -3.2310  -38.3990 C.ar  304  TYR304      0.0417
    165  CZ        29.7270   -2.3160  -37.7780 C.ar  304  TYR304      0.1957
    166  OH        28.4230   -2.6540  -37.4980 O.3   304  TYR304     -0.2866
@<TRIPOS>BOND
     1    98    99    1
     2    99   100    1
     3    99   102    1
     4   101   100    2
     5   135   136    1
     6   137   136    1
     7   137   138    2
     8   102   103    1
     9   136   139    1
    10   154   153    2
    11   141   140   ar
    12   103   105   ar
    13   103   104   ar
    14   153   152    1
    15   139   140    1
    16   140   142   ar
    17   151   152    1
    18   109   108    2
    19   106   107    1
    20    63    65   ar
    21    63    62   ar
    22   155   156    1
    23    65    66   ar
    24   108   107    1
    25    61    62    1
    26    61    58    1
    27   157   156    1
    28   157   158    2
    29    62    64   ar
    30   107   110    1
    31   156   159    1
    32    66    64   ar
    33    58    57    1
    34    58    59    1
    35   110   111    1
    36   159   160    1
    37   112   111   ar
    38   112   114   ar
    39   162   164   ar
    40   162   160   ar
    41   145   146    2
    42   145   144    1
    43    54    51    1
    44    54    55    1
    45   143   144    1
    46    51    52    1
    47    51    50    1
    48   111   113   ar
    49   164   165   ar
    50   160   161   ar
    51   114   115   ar
    52    60    59    2
    53    59    67   am
    54    52    53    2
    55   144   147    1
    56   165   166    1
    57   165   163   ar
    58   161   163   ar
    59   113   115   ar
    60    50    56    1
    61   147   148    1
    62    55    56    1
    63    67    68    1
    64    75    76   ar
    65    75    73   ar
    66    76    74   ar
    67   119   118    2
    68   148   149    1
    69   148   150    1
    70    73    72   ar
    71    97    96    1
    72    32    31    2
    73    74    72   ar
    74    68    71    1
    75    68    69    1
    76    72    71    1
    77   118   117    1
    78    31    30    1
    79    96    93    1
    80    69    70    2
    81   116   117    1
    82    33    30    1
    83    33    34    1
    84    88    90   ar
    85    88    86   ar
    86    30    29    1
    87    80    79    2
    88   122   124   ar
    89   122   121   ar
    90    90    91   ar
    91   117   120    1
    92    93    92    1
    93    93    94    1
    94   120   121    1
    95    84    83    2
    96    85    86    1
    97    85    82    1
    98   124   126   ar
    99    86    87   ar
   100    92    83   am
   101    83    82    1
   102   121   123   ar
   103   127   128    1
   104    34    35    1
   105    79    78    1
   106    79    81   am
   107    94    95    2
   108    22    21    2
   109    91    89   ar
   110    29    21   am
   111    29    35    1
   112    82    81    1
   113   128   129    1
   114   128   131    1
   115   129   130    2
   116    78    77    1
   117   126   125   ar
   118    21    20    1
   119    87    89   ar
   120   123   125   ar
   121    12    11    2
   122    25    27   ar
   123    25    24   ar
   124    27    28   ar
   125   134   132   am
   126   132   131    1
   127   132   133    2
   128    11    10    1
   129    11    19   am
   130    20    19    1
   131    20    23    1
   132    10    13    1
   133    10     9    1
   134    16    14   ar
   135    16    18   ar
   136    13    14    1
   137    24    23    1
   138    24    26   ar
   139    28    26   ar
   140    14    15   ar
   141    47    46    2
   142    18    17   ar
   143    48    49    1
   144    48    45    1
   145    39    38    2
   146    15    17   ar
   147    46    45    1
   148    43    41   am
   149     4     3    2
   150    45    44    1
   151    42    41    2
   152    41    40    1
   153    38    44   am
   154    38    37    1
   155     7     6   ar
   156     8     6   ar
   157    40    37    1
   158     3     2    1
   159     6     5    1
   160    37    36    1
   161     5     2    1
   162     2     1    1
