@<TRIPOS>MOLECULE
tmp/6dvnA00.pdb
 160 156 0 0 0
SMALL
GASTEIGER

@<TRIPOS>ATOM
      1  N        -30.1970   -2.8410   19.1080 N.3    19  ASP19      -0.1239
      2  CA       -29.8750   -3.9980   19.9380 C.3    19  ASP19       0.1674
      3  C        -30.2040   -5.2480   19.1340 C.2    19  ASP19       0.2266
      4  O        -31.3810   -5.5870   18.9750 O.2    19  ASP19      -0.2867
      5  CB       -30.6550   -3.9590   21.2500 C.3    19  ASP19       0.1410
      6  CG       -30.3170   -5.1200   22.1700 C.2    19  ASP19       0.3668
      7  OD1      -29.3430   -5.8510   21.8890 O.co2  19  ASP19      -0.2456
      8  OD2      -31.0310   -5.3030   23.1800 O.co2  19  ASP19      -0.2456
      9  N        -29.5570   -8.1790   20.1130 N.3    21  HIS21      -0.1226
     10  CA       -29.8160   -9.2410   21.0740 C.3    21  HIS21       0.1752
     11  C        -31.1910   -9.1260   21.7170 C.2    21  HIS21       0.2596
     12  O        -31.4770   -9.8480   22.6770 O.2    21  HIS21      -0.2718
     13  CB       -28.7360   -9.2420   22.1580 C.3    21  HIS21       0.0759
     14  CG       -27.3410   -9.3080   21.6220 C.ar   21  HIS21       0.0818
     15  ND1      -26.3330   -8.4840   22.0700 N.ar   21  HIS21      -0.2268
     16  CD2      -26.7850  -10.1020   20.6770 C.ar   21  HIS21       0.1154
     17  CE1      -25.2160   -8.7660   21.4240 C.ar   21  HIS21       0.1986
     18  NE2      -25.4640   -9.7450   20.5720 N.ar   21  HIS21      -0.2212
     19  N        -32.0370   -8.2300   21.2210 N.am   22  HIS22      -0.1962
     20  CA       -33.3570   -8.0530   21.8040 C.3    22  HIS22       0.1772
     21  C        -34.1750   -9.3320   21.6360 C.2    22  HIS22       0.2462
     22  O        -34.1120   -9.9730   20.5820 O.2    22  HIS22      -0.2730
     23  CB       -34.0760   -6.8750   21.1470 C.3    22  HIS22       0.0785
     24  CG       -35.3090   -6.4410   21.8730 C.ar   22  HIS22       0.0821
     25  ND1      -36.5220   -7.0770   21.7250 N.ar   22  HIS22      -0.2267
     26  CD2      -35.5150   -5.4380   22.7590 C.ar   22  HIS22       0.1154
     27  CE1      -37.4230   -6.4830   22.4870 C.ar   22  HIS22       0.1986
     28  NE2      -36.8380   -5.4850   23.1240 N.ar   22  HIS22      -0.2212
     29  N        -34.9480   -9.7320   22.6490 N.am   23  PRO23      -0.2727
     30  CA       -35.6510  -11.0240   22.5720 C.3    23  PRO23       0.1402
     31  C        -36.7010  -11.1060   21.4730 C.2    23  PRO23       0.2269
     32  O        -37.0260  -12.2200   21.0430 O.2    23  PRO23      -0.2865
     33  CB       -36.2850  -11.1650   23.9640 C.3    23  PRO23       0.0296
     34  CG       -36.3190   -9.7690   24.5210 C.3    23  PRO23       0.0237
     35  CD       -35.1080   -9.0900   23.9630 C.3    23  PRO23       0.0939
     36  N        -44.4530    2.3690   26.0760 N.3    89  ASN89      -0.1225
     37  CA       -43.9690    1.3820   27.0350 C.3    89  ASN89       0.1785
     38  C        -43.4770    0.1630   26.2640 C.2    89  ASN89       0.2597
     39  O        -44.2800   -0.5880   25.7000 O.2    89  ASN89      -0.2718
     40  CB       -45.0820    1.0090   28.0130 C.3    89  ASN89       0.1169
     41  CG       -44.6130    0.0750   29.1170 C.2    89  ASN89       0.2627
     42  OD1      -43.5270   -0.5020   29.0500 O.2    89  ASN89      -0.2716
     43  ND2      -45.4430   -0.0840   30.1380 N.am   89  ASN89      -0.0877
     44  N        -42.1570   -0.0230   26.2240 N.am   90  SER90      -0.1952
     45  CA       -41.5270   -1.2200   25.6640 C.3    90  SER90       0.1924
     46  C        -41.8560   -1.3860   24.1770 C.2    90  SER90       0.2314
     47  O        -42.4600   -2.3730   23.7510 O.2    90  SER90      -0.2863
     48  CB       -41.9330   -2.4650   26.4620 C.3    90  SER90       0.2116
     49  OG       -41.6980   -2.2870   27.8490 O.3    90  SER90      -0.2180
     50  N        -46.2430   -9.1060   17.6140 N.3   130  PRO130     -0.2116
     51  CA       -47.4830   -9.5040   18.2990 C.3   130  PRO130      0.1372
     52  C        -48.4650   -8.3510   18.4480 C.2   130  PRO130      0.2244
     53  O        -48.1890   -7.2340   17.9970 O.2   130  PRO130     -0.2868
     54  CB       -46.9840  -10.0050   19.6600 C.3   130  PRO130      0.0268
     55  CG       -45.6880   -9.2960   19.8690 C.3   130  PRO130      0.0207
     56  CD       -45.0700   -9.1870   18.5020 C.3   130  PRO130      0.0892
     57  N        -51.4330   -8.2780   21.3080 N.3   132  HIS132     -0.1226
     58  CA       -52.4250   -8.2220   22.3790 C.3   132  HIS132      0.1752
     59  C        -52.1460   -7.1490   23.4290 C.2   132  HIS132      0.2596
     60  O        -53.0310   -6.8720   24.2430 O.2   132  HIS132     -0.2718
     61  CB       -52.5680   -9.5940   23.0550 C.3   132  HIS132      0.0759
     62  CG       -51.3940  -10.0030   23.8920 C.ar  132  HIS132      0.0818
     63  ND1      -51.5070  -10.8970   24.9340 N.ar  132  HIS132     -0.2268
     64  CD2      -50.0850   -9.6610   23.8330 C.ar  132  HIS132      0.1154
     65  CE1      -50.3220  -11.0810   25.4870 C.ar  132  HIS132      0.1986
     66  NE2      -49.4410  -10.3420   24.8380 N.ar  132  HIS132     -0.2212
     67  N        -50.9630   -6.5340   23.4370 N.am  133  HIS133     -0.1975
     68  CA       -50.7280   -5.3970   24.3190 C.3   133  HIS133      0.1656
     69  C        -51.1390   -4.0710   23.6940 C.2   133  HIS133      0.2291
     70  O        -51.1700   -3.0550   24.3980 O.2   133  HIS133     -0.2864
     71  CB       -49.2510   -5.3150   24.7230 C.3   133  HIS133      0.0771
     72  CG       -48.7880   -6.4450   25.5900 C.ar  133  HIS133      0.0820
     73  ND1      -49.3970   -6.7690   26.7830 N.ar  133  HIS133     -0.2267
     74  CD2      -47.7620   -7.3170   25.4420 C.ar  133  HIS133      0.1154
     75  CE1      -48.7720   -7.7970   27.3290 C.ar  133  HIS133      0.1986
     76  NE2      -47.7760   -8.1490   26.5350 N.ar  133  HIS133     -0.2212
     77  N        -45.7270   -2.8520   24.5950 N.3   141  GLY141     -0.1210
     78  CA       -45.1420   -4.1760   24.7290 C.3   141  GLY141      0.1956
     79  C        -44.8820   -4.9210   23.4360 C.2   141  GLY141      0.2611
     80  O        -45.3660   -6.0430   23.2590 O.2   141  GLY141     -0.2717
     81  N        -44.1230   -4.3060   22.5280 N.am  142  PHE142     -0.1976
     82  CA       -43.7520   -4.8460   21.2200 C.3   142  PHE142      0.1639
     83  C        -44.9420   -4.9990   20.2790 C.2   142  PHE142      0.2290
     84  O        -44.8020   -5.6280   19.2240 O.2   142  PHE142     -0.2864
     85  CB       -43.0380   -6.2040   21.3170 C.3   142  PHE142      0.0560
     86  CG       -41.9990   -6.2860   22.4050 C.ar  142  PHE142     -0.0200
     87  CD1      -41.2080   -5.1950   22.7280 C.ar  142  PHE142     -0.0042
     88  CD2      -41.8150   -7.4700   23.1040 C.ar  142  PHE142     -0.0042
     89  CE1      -40.2610   -5.2830   23.7330 C.ar  142  PHE142     -0.0003
     90  CE2      -40.8680   -7.5650   24.1060 C.ar  142  PHE142     -0.0003
     91  CZ       -40.0920   -6.4700   24.4230 C.ar  142  PHE142     -0.0000
     92  N        -50.8150  -16.5390   26.4160 N.3   171  ASP171     -0.1239
     93  CA       -49.5540  -15.8380   26.6080 C.3   171  ASP171      0.1674
     94  C        -49.3470  -15.5770   28.0940 C.2   171  ASP171      0.2266
     95  O        -50.3040  -15.3820   28.8470 O.2   171  ASP171     -0.2867
     96  CB       -49.5590  -14.5240   25.8140 C.3   171  ASP171      0.1410
     97  CG       -48.2320  -13.7750   25.8810 C.2   171  ASP171      0.3668
     98  OD1      -47.8450  -13.3270   26.9810 O.co2 171  ASP171     -0.2456
     99  OD2      -47.5830  -13.6210   24.8230 O.co2 171  ASP171     -0.2456
    100  N        -48.3420  -13.0820   29.5640 N.3   173  HIS173     -0.1241
    101  CA       -48.6910  -11.7210   29.9390 C.3   173  HIS173      0.1621
    102  C        -50.1740  -11.4600   29.7010 C.2   173  HIS173      0.2264
    103  O        -50.7970  -12.0540   28.8190 O.2   173  HIS173     -0.2867
    104  CB       -47.8610  -10.7040   29.1520 C.3   173  HIS173      0.0745
    105  CG       -46.3860  -10.8150   29.3830 C.ar  173  HIS173      0.0817
    106  ND1      -45.5470  -11.4900   28.5240 N.ar  173  HIS173     -0.2268
    107  CD2      -45.6000  -10.3320   30.3750 C.ar  173  HIS173      0.1154
    108  CE1      -44.3070  -11.4190   28.9740 C.ar  173  HIS173      0.1986
    109  NE2      -44.3120  -10.7230   30.0970 N.ar  173  HIS173     -0.2212
    110  N        -45.3240   -7.5230   34.2340 N.3   202  PHE202     -0.1241
    111  CA       -45.7520   -6.7680   33.0650 C.3   202  PHE202      0.1605
    112  C        -47.0860   -7.3150   32.5580 C.2   202  PHE202      0.2264
    113  O        -47.2720   -8.5370   32.5110 O.2   202  PHE202     -0.2867
    114  CB       -44.6830   -6.8560   31.9690 C.3   202  PHE202      0.0534
    115  CG       -44.9730   -6.0160   30.7550 C.ar  202  PHE202     -0.0203
    116  CD1      -44.5430   -4.6980   30.6880 C.ar  202  PHE202     -0.0042
    117  CD2      -45.6570   -6.5480   29.6760 C.ar  202  PHE202     -0.0042
    118  CE1      -44.8030   -3.9220   29.5680 C.ar  202  PHE202     -0.0003
    119  CE2      -45.9210   -5.7790   28.5560 C.ar  202  PHE202     -0.0003
    120  CZ       -45.4920   -4.4640   28.5020 C.ar  202  PHE202     -0.0000
    121  N        -48.0830   -4.8160   34.5180 N.3   204  ASN204     -0.1240
    122  CA       -48.0220   -4.1100   35.8020 C.3   204  ASN204      0.1653
    123  C        -49.3020   -3.3410   36.1220 C.2   204  ASN204      0.2266
    124  O        -49.2520   -2.2730   36.7380 O.2   204  ASN204     -0.2867
    125  CB       -46.8240   -3.1540   35.8500 C.3   204  ASN204      0.1155
    126  CG       -45.5580   -3.7750   35.2930 C.2   204  ASN204      0.2627
    127  OD1      -45.2900   -3.6940   34.0930 O.2   204  ASN204     -0.2716
    128  ND2      -44.7720   -4.4000   36.1630 N.am  204  ASN204     -0.0877
    129  N        -44.3460  -17.7150   25.8270 N.3   264  ASP264     -0.1239
    130  CA       -43.4060  -17.2560   26.8400 C.3   264  ASP264      0.1674
    131  C        -43.7140  -17.8090   28.2250 C.2   264  ASP264      0.2266
    132  O        -42.9870  -17.5030   29.1730 O.2   264  ASP264     -0.2867
    133  CB       -43.3730  -15.7240   26.8790 C.3   264  ASP264      0.1410
    134  CG       -44.7350  -15.1020   26.6500 C.2   264  ASP264      0.3668
    135  OD1      -45.7480  -15.8330   26.6920 O.co2 264  ASP264     -0.2456
    136  OD2      -44.7900  -13.8750   26.4170 O.co2 264  ASP264     -0.2456
    137  N        -37.8080  -15.0830   30.1660 N.3   271  LEU271     -0.1245
    138  CA       -38.4820  -14.0620   30.9600 C.3   271  LEU271      0.1561
    139  C        -39.8310  -14.4830   31.5260 C.2   271  LEU271      0.2260
    140  O        -40.3190  -13.8170   32.4480 O.2   271  LEU271     -0.2867
    141  CB       -38.6670  -12.7720   30.1390 C.3   271  LEU271      0.0270
    142  CG       -39.2790  -12.8210   28.7350 C.3   271  LEU271      0.0019
    143  CD1      -40.8000  -12.8290   28.7820 C.3   271  LEU271      0.0001
    144  CD2      -38.7890  -11.6310   27.9240 C.3   271  LEU271      0.0001
    145  N        -46.2790  -13.8470   21.9330 N.3   302  GLY302     -0.1225
    146  CA       -44.9340  -13.8110   22.4660 C.3   302  GLY302      0.1811
    147  C        -44.2860  -15.1820   22.5260 C.2   302  GLY302      0.2280
    148  O        -44.7610  -16.1620   21.9470 O.2   302  GLY302     -0.2866
    149  N        -39.9350  -16.4450   23.6300 N.3   304  TYR304     -0.1241
    150  CA       -38.6110  -15.9100   23.3480 C.3   304  TYR304      0.1605
    151  C        -37.4690  -16.9030   23.5050 C.2   304  TYR304      0.2264
    152  O        -36.3090  -16.5110   23.3290 O.2   304  TYR304     -0.2867
    153  CB       -38.3630  -14.6800   24.2300 C.3   304  TYR304      0.0534
    154  CG       -39.4890  -13.6950   24.0710 C.ar  304  TYR304     -0.0201
    155  CD1      -39.5900  -12.9190   22.9240 C.ar  304  TYR304     -0.0009
    156  CD2      -40.4900  -13.5890   25.0290 C.ar  304  TYR304     -0.0009
    157  CE1      -40.6320  -12.0380   22.7490 C.ar  304  TYR304      0.0417
    158  CE2      -41.5400  -12.7080   24.8640 C.ar  304  TYR304      0.0417
    159  CZ       -41.6030  -11.9340   23.7200 C.ar  304  TYR304      0.1957
    160  OH       -42.6420  -11.0550   23.5430 O.3   304  TYR304     -0.2866
@<TRIPOS>BOND
     1    50    51    1
     2    50    56    1
     3    53    52    2
     4    51    52    1
     5    51    54    1
     6    56    55    1
     7     4     3    2
     8     1     2    1
     9     3     2    1
    10    84    83    2
    11    54    55    1
    12     2     5    1
    13     9    10    1
    14    83    82    1
    15    18    16   ar
    16    18    17   ar
    17    22    21    2
    18    16    14   ar
    19    32    31    2
    20    10    11    1
    21    10    13    1
    22    23    20    1
    23    23    24    1
    24    82    85    1
    25    82    81    1
    26    19    11   am
    27    19    20    1
    28     5     6    1
    29    57    58    1
    30    85    86    1
    31    17    15   ar
    32    31    30    1
    33    14    15   ar
    34    14    13    1
    35    21    20    1
    36    21    29   am
    37    11    12    2
    38    25    24   ar
    39    25    27   ar
    40    24    26   ar
    41     7     6   ar
    42   145   146    1
    43   148   147    2
    44     6     8   ar
    45    58    61    1
    46    58    59    1
    47    86    87   ar
    48    86    88   ar
    49   146   147    1
    50    27    28   ar
    51    81    79   am
    52    30    29    1
    53    30    33    1
    54    29    35    1
    55    87    89   ar
    56   157   155   ar
    57   157   159   ar
    58    26    28   ar
    59   155   154   ar
    60    61    62    1
    61    88    90   ar
    62    80    79    2
    63   152   151    2
    64   150   151    1
    65   150   149    1
    66   150   153    1
    67    59    67   am
    68    59    60    2
    69    79    78    1
    70    67    68    1
    71   160   159    1
    72    69    68    1
    73    69    70    2
    74   159   158   ar
    75    89    91   ar
    76    47    46    2
    77    64    62   ar
    78    64    66   ar
    79    62    63   ar
    80    35    34    1
    81    33    34    1
    82   154   153    1
    83   154   156   ar
    84    90    91   ar
    85    46    45    1
    86    68    71    1
    87    77    78    1
    88    71    72    1
    89    99    97   ar
    90    66    65   ar
    91   158   156   ar
    92    63    65   ar
    93    74    72   ar
    94    74    76   ar
    95    72    73   ar
    96    45    44    1
    97    45    48    1
    98    39    38    2
    99    96    97    1
   100    96    93    1
   101   129   130    1
   102    97    98   ar
   103    36    37    1
   104    44    38   am
   105    38    37    1
   106    92    93    1
   107   136   134   ar
   108    48    49    1
   109    76    75   ar
   110    93    94    1
   111   134   135   ar
   112   134   133    1
   113    73    75   ar
   114   130   133    1
   115   130   131    1
   116    37    40    1
   117   144   142    1
   118    40    41    1
   119    94    95    2
   120   131   132    2
   121   120   119   ar
   122   120   118   ar
   123   106   108   ar
   124   106   105   ar
   125   119   117   ar
   126   142   143    1
   127   142   141    1
   128   103   102    2
   129   108   109   ar
   130    42    41    2
   131    41    43   am
   132   104   105    1
   133   104   101    1
   134   105   107   ar
   135   100   101    1
   136   118   116   ar
   137   117   115   ar
   138   102   101    1
   139   109   107   ar
   140   141   138    1
   141   137   138    1
   142   116   115   ar
   143   115   114    1
   144   138   139    1
   145   139   140    2
   146   114   111    1
   147   113   112    2
   148   112   111    1
   149   111   110    1
   150   127   126    2
   151   121   122    1
   152   126   125    1
   153   126   128   am
   154   122   125    1
   155   122   123    1
   156   123   124    2
