@<TRIPOS>MOLECULE
tmp/6dvoA01.pdb
 140 136 0 0 0
SMALL
GASTEIGER

@<TRIPOS>ATOM
      1  N        -48.0470  -35.2670   -2.0170 N.3    18  ASP18      -0.1239
      2  CA       -47.0940  -35.1800   -3.1270 C.3    18  ASP18       0.1674
      3  C        -45.7600  -34.7230   -2.5410 C.2    18  ASP18       0.2266
      4  O        -45.5010  -33.5240   -2.4210 O.2    18  ASP18      -0.2867
      5  CB       -47.5950  -34.2300   -4.2100 C.3    18  ASP18       0.1410
      6  CG       -46.6700  -34.1680   -5.4090 C.2    18  ASP18       0.3668
      7  OD1      -45.6130  -34.8310   -5.3870 O.co2  18  ASP18      -0.2456
      8  OD2      -47.0060  -33.4560   -6.3820 O.co2  18  ASP18      -0.2456
      9  N        -43.5970  -32.0850   -4.4710 N.3    21  HIS21      -0.1227
     10  CA       -43.9860  -30.6940   -4.6210 C.3    21  HIS21       0.1737
     11  C        -42.7760  -29.8050   -4.3550 C.2    21  HIS21       0.2438
     12  O        -42.0500  -30.0320   -3.3790 O.2    21  HIS21      -0.2733
     13  CB       -45.1200  -30.3540   -3.6580 C.3    21  HIS21       0.0758
     14  CG       -45.7590  -29.0300   -3.9230 C.ar   21  HIS21       0.0818
     15  ND1      -45.1340  -27.8350   -3.6410 N.ar   21  HIS21      -0.2268
     16  CD2      -46.9620  -28.7120   -4.4570 C.ar   21  HIS21       0.1154
     17  CE1      -45.9270  -26.8360   -3.9840 C.ar   21  HIS21       0.1986
     18  NE2      -47.0420  -27.3410   -4.4830 N.ar   21  HIS21      -0.2212
     19  N        -42.5250  -28.7910   -5.1870 N.am   22  PRO22      -0.2729
     20  CA       -41.2460  -28.0640   -5.1000 C.3    22  PRO22       0.1401
     21  C        -41.0940  -27.1850   -3.8660 C.2    22  PRO22       0.2269
     22  O        -39.9600  -26.8070   -3.5430 O.2    22  PRO22      -0.2865
     23  CB       -41.2330  -27.2240   -6.3850 C.3    22  PRO22       0.0296
     24  CG       -42.6720  -27.1060   -6.7730 C.3    22  PRO22       0.0237
     25  CD       -43.3220  -28.3870   -6.3590 C.3    22  PRO22       0.0939
     26  N        -53.6070  -23.1260   -5.4250 N.3    89  SER89      -0.1217
     27  CA       -52.2460  -23.6370   -5.2500 C.3    89  SER89       0.1889
     28  C        -51.8010  -23.5950   -3.7820 C.2    89  SER89       0.2288
     29  O        -50.8130  -22.9510   -3.4180 O.2    89  SER89      -0.2866
     30  CB       -51.2700  -22.8650   -6.1430 C.3    89  SER89       0.2089
     31  OG       -51.6740  -22.9260   -7.4980 O.3    89  SER89      -0.2183
     32  N        -43.7300  -19.2380    2.0300 N.3   129  PRO129     -0.2116
     33  CA       -43.6360  -17.8460    1.5640 C.3   129  PRO129      0.1372
     34  C        -44.9100  -17.0650    1.8420 C.2   129  PRO129      0.2244
     35  O        -45.8700  -17.6160    2.3940 O.2   129  PRO129     -0.2868
     36  CB       -43.3700  -17.9930    0.0560 C.3   129  PRO129      0.0268
     37  CG       -43.9270  -19.3120   -0.3030 C.3   129  PRO129      0.0207
     38  CD       -43.7660  -20.1980    0.9130 C.3   129  PRO129      0.0892
     39  N        -45.9130  -13.6510   -0.2430 N.3   131  HIS131     -0.1226
     40  CA       -46.3390  -12.5000   -1.0390 C.3   131  HIS131      0.1752
     41  C        -47.5820  -12.7610   -1.8870 C.2   131  HIS131      0.2596
     42  O        -48.1780  -11.7980   -2.3780 O.2   131  HIS131     -0.2718
     43  CB       -45.1860  -11.9900   -1.9150 C.3   131  HIS131      0.0759
     44  CG       -44.7720  -12.9230   -3.0120 C.ar  131  HIS131      0.0818
     45  ND1      -44.2130  -12.4760   -4.1890 N.ar  131  HIS131     -0.2268
     46  CD2      -44.8170  -14.2740   -3.1070 C.ar  131  HIS131      0.1154
     47  CE1      -43.9390  -13.5080   -4.9680 C.ar  131  HIS131      0.1986
     48  NE2      -44.2920  -14.6110   -4.3340 N.ar  131  HIS131     -0.2212
     49  N        -48.0070  -14.0110   -2.0550 N.am  132  HIS132     -0.1975
     50  CA       -49.2580  -14.2810   -2.7520 C.3   132  HIS132      0.1656
     51  C        -50.4730  -14.2050   -1.8350 C.2   132  HIS132      0.2291
     52  O        -51.6030  -14.1540   -2.3350 O.2   132  HIS132     -0.2864
     53  CB       -49.2160  -15.6630   -3.4200 C.3   132  HIS132      0.0771
     54  CG       -48.3210  -15.7330   -4.6180 C.ar  132  HIS132      0.0820
     55  ND1      -48.3960  -14.8290   -5.6570 N.ar  132  HIS132     -0.2267
     56  CD2      -47.3410  -16.6070   -4.9500 C.ar  132  HIS132      0.1154
     57  CE1      -47.4990  -15.1390   -6.5750 C.ar  132  HIS132      0.1986
     58  NE2      -46.8480  -16.2140   -6.1730 N.ar  132  HIS132     -0.2212
     59  N        -51.1340  -19.5650   -3.7130 N.3   140  GLY140     -0.1210
     60  CA       -49.8050  -19.7770   -4.2640 C.3   140  GLY140      0.1956
     61  C        -48.7090  -20.0850   -3.2580 C.2   140  GLY140      0.2612
     62  O        -47.6600  -19.4260   -3.2530 O.2   140  GLY140     -0.2717
     63  N        -48.9480  -21.0780   -2.3990 N.am  141  PHE141     -0.1962
     64  CA       -48.0420  -21.6090   -1.3800 C.3   141  PHE141      0.1771
     65  C        -47.9780  -20.6870   -0.1630 C.2   141  PHE141      0.2619
     66  O        -47.2180  -20.9870    0.7720 O.2   141  PHE141     -0.2715
     67  CB       -46.5970  -21.8460   -1.8700 C.3   141  PHE141      0.0574
     68  CG       -46.4720  -22.5670   -3.2070 C.ar  141  PHE141     -0.0200
     69  CD1      -47.5090  -23.3180   -3.7430 C.ar  141  PHE141     -0.0042
     70  CD2      -45.2820  -22.4930   -3.9150 C.ar  141  PHE141     -0.0042
     71  CE1      -47.3620  -23.9690   -4.9620 C.ar  141  PHE141     -0.0003
     72  CE2      -45.1310  -23.1430   -5.1340 C.ar  141  PHE141     -0.0003
     73  CZ       -46.1720  -23.8860   -5.6530 C.ar  141  PHE141     -0.0000
     74  N        -48.7520  -19.6030   -0.1240 N.am  142  CYS142     -0.1968
     75  CA       -48.6280  -18.5640    0.8930 C.3   142  CYS142      0.1712
     76  C        -49.8820  -18.5000    1.7570 C.2   142  CYS142      0.2296
     77  O        -51.0020  -18.4700    1.2320 O.2   142  CYS142     -0.2864
     78  CB       -48.3820  -17.2040    0.2350 C.3   142  CYS142      0.0983
     79  SG       -46.9190  -17.1490   -0.8190 S.3   142  CYS142     -0.0798
     80  N        -38.8100  -11.8990   -6.4880 N.3   170  ASP170     -0.1239
     81  CA       -39.3860  -13.1910   -6.8350 C.3   170  ASP170      0.1674
     82  C        -39.9080  -13.1370   -8.2680 C.2   170  ASP170      0.2266
     83  O        -40.4270  -12.1100   -8.7080 O.2   170  ASP170     -0.2867
     84  CB       -40.5140  -13.5100   -5.8470 C.3   170  ASP170      0.1410
     85  CG       -41.0490  -14.9250   -5.9800 C.2   170  ASP170      0.3668
     86  OD1      -41.7180  -15.2200   -6.9920 O.co2 170  ASP170     -0.2456
     87  OD2      -40.8200  -15.7400   -5.0570 O.co2 170  ASP170     -0.2456
     88  N        -42.4160  -14.2780   -9.5620 N.3   172  HIS172     -0.1241
     89  CA       -43.8620  -14.1450   -9.6570 C.3   172  HIS172      0.1621
     90  C        -44.3160  -12.8200   -9.0600 C.2   172  HIS172      0.2264
     91  O        -43.6880  -12.2760   -8.1480 O.2   172  HIS172     -0.2867
     92  CB       -44.5650  -15.3070   -8.9540 C.3   172  HIS172      0.0745
     93  CG       -44.1910  -16.6490   -9.4990 C.ar  172  HIS172      0.0817
     94  ND1      -43.2300  -17.4450   -8.9180 N.ar  172  HIS172     -0.2268
     95  CD2      -44.6350  -17.3260  -10.5840 C.ar  172  HIS172      0.1154
     96  CE1      -43.1040  -18.5600   -9.6130 C.ar  172  HIS172      0.1986
     97  NE2      -43.9420  -18.5100  -10.6330 N.ar  172  HIS172     -0.2212
     98  N        -48.0310  -17.5270  -13.6650 N.3   201  PHE201     -0.1241
     99  CA       -48.6600  -17.4350  -12.3550 C.3   201  PHE201      0.1605
    100  C        -48.3150  -16.0930  -11.7070 C.2   201  PHE201      0.2264
    101  O        -47.1660  -15.6430  -11.7980 O.2   201  PHE201     -0.2867
    102  CB       -48.1970  -18.5880  -11.4600 C.3   201  PHE201      0.0534
    103  CG       -48.9510  -18.6770  -10.1610 C.ar  201  PHE201     -0.0203
    104  CD1      -50.1470  -19.3640  -10.0960 C.ar  201  PHE201     -0.0042
    105  CD2      -48.4760  -18.0470   -9.0190 C.ar  201  PHE201     -0.0042
    106  CE1      -50.8540  -19.4340   -8.9150 C.ar  201  PHE201     -0.0003
    107  CE2      -49.1790  -18.1160   -7.8290 C.ar  201  PHE201     -0.0003
    108  CZ       -50.3690  -18.8120   -7.7760 C.ar  201  PHE201     -0.0000
    109  N        -36.5820  -17.6680   -7.5010 N.3   263  ASP263     -0.1239
    110  CA       -37.0720  -18.4780   -8.6000 C.3   263  ASP263      0.1674
    111  C        -36.8880  -17.8130   -9.9580 C.2   263  ASP263      0.2266
    112  O        -37.2760  -18.4000  -10.9720 O.2   263  ASP263     -0.2867
    113  CB       -38.5480  -18.8490   -8.3820 C.3   263  ASP263      0.1410
    114  CG       -39.3710  -17.7080   -7.8180 C.2   263  ASP263      0.3668
    115  OD1      -38.8500  -16.5780   -7.7190 O.co2 263  ASP263     -0.2456
    116  OD2      -40.5460  -17.9500   -7.4600 O.co2 263  ASP263     -0.2456
    117  N        -39.2650  -23.6100  -12.2230 N.3   270  LEU270     -0.1245
    118  CA       -40.5450  -22.9300  -12.3510 C.3   270  LEU270      0.1561
    119  C        -40.4300  -21.5330  -12.9380 C.2   270  LEU270      0.2260
    120  O        -41.4090  -21.0390  -13.5050 O.2   270  LEU270     -0.2867
    121  CB       -41.2390  -22.8380  -10.9810 C.3   270  LEU270      0.0270
    122  CG       -41.3920  -24.1400  -10.1900 C.3   270  LEU270      0.0019
    123  CD1      -42.2460  -23.9410   -8.9520 C.3   270  LEU270      0.0001
    124  CD2      -41.9880  -25.2200  -11.0510 C.3   270  LEU270      0.0001
    125  N        -40.1590  -17.3570   -2.7960 N.3   301  GLY301     -0.1225
    126  CA       -40.0150  -18.5600   -3.5870 C.3   301  GLY301      0.1811
    127  C        -38.5740  -18.8240   -3.9880 C.2   301  GLY301      0.2280
    128  O        -37.6270  -18.2170   -3.4820 O.2   301  GLY301     -0.2866
    129  N        -36.8940  -22.5740   -6.0760 N.3   303  TYR303     -0.1241
    130  CA       -37.1380  -24.0050   -5.9610 C.3   303  TYR303      0.1605
    131  C        -36.0030  -24.8880   -6.4390 C.2   303  TYR303      0.2264
    132  O        -36.0860  -26.1070   -6.2610 O.2   303  TYR303     -0.2867
    133  CB       -38.4300  -24.3700   -6.7060 C.3   303  TYR303      0.0534
    134  CG       -39.5240  -23.4750   -6.2080 C.ar  303  TYR303     -0.0201
    135  CD1      -40.0880  -23.6870   -4.9520 C.ar  303  TYR303     -0.0009
    136  CD2      -39.9190  -22.3560   -6.9320 C.ar  303  TYR303     -0.0009
    137  CE1      -41.0520  -22.8470   -4.4570 C.ar  303  TYR303      0.0417
    138  CE2      -40.8810  -21.5060   -6.4400 C.ar  303  TYR303      0.0417
    139  CZ       -41.4430  -21.7580   -5.2020 C.ar  303  TYR303      0.1957
    140  OH       -42.4090  -20.9230   -4.7070 O.3   303  TYR303     -0.2866
@<TRIPOS>BOND
     1    98    99    1
     2   120   119    2
     3   119   118    1
     4    99   100    1
     5    99   102    1
     6   118   117    1
     7   118   121    1
     8   101   100    2
     9   102   103    1
    10   124   122    1
    11   121   122    1
    12   112   111    2
    13    97    95   ar
    14    97    96   ar
    15    95    93   ar
    16   122   123    1
    17   103   104   ar
    18   103   105   ar
    19   104   106   ar
    20   111   110    1
    21    89    88    1
    22    89    90    1
    23    89    92    1
    24    96    94   ar
    25    93    92    1
    26    93    94   ar
    27    90    91    2
    28   105   107   ar
    29   106   108   ar
    30    83    82    2
    31   110   113    1
    32   110   109    1
    33   113   114    1
    34    82    81    1
    35   107   108   ar
    36   114   115   ar
    37   114   116   ar
    38    31    30    1
    39    86    85   ar
    40   136   138   ar
    41   136   134   ar
    42    81    80    1
    43    81    84    1
    44    24    23    1
    45    24    25    1
    46   133   134    1
    47   133   130    1
    48    57    58   ar
    49    57    55   ar
    50   138   139   ar
    51   131   132    2
    52   131   130    1
    53    23    20    1
    54     8     6   ar
    55    25    19    1
    56   134   135   ar
    57    58    56   ar
    58    30    27    1
    59   129   130    1
    60    85    84    1
    61    85    87   ar
    62    55    54   ar
    63    73    72   ar
    64    73    71   ar
    65    26    27    1
    66     6     7   ar
    67     6     5    1
    68    27    28    1
    69   139   140    1
    70   139   137   ar
    71    19    20    1
    72    19    11   am
    73    72    70   ar
    74    20    21    1
    75    47    48   ar
    76    47    45   ar
    77    71    69   ar
    78   135   137   ar
    79    56    54   ar
    80    10     9    1
    81    10    11    1
    82    10    13    1
    83    54    53    1
    84    18    16   ar
    85    18    17   ar
    86    16    14   ar
    87    11    12    2
    88    48    46   ar
    89    60    59    1
    90    60    61    1
    91     5     2    1
    92    45    44   ar
    93   127   126    1
    94   127   128    2
    95    17    15   ar
    96    14    13    1
    97    14    15   ar
    98    70    68   ar
    99    21    22    2
   100    28    29    2
   101    69    68   ar
   102   126   125    1
   103    53    50    1
   104    61    62    2
   105    61    63   am
   106    68    67    1
   107     2     3    1
   108     2     1    1
   109    46    44   ar
   110    44    43    1
   111    50    49    1
   112    50    51    1
   113     3     4    2
   114    63    64    1
   115    42    41    2
   116    52    51    2
   117    49    41   am
   118    43    40    1
   119    41    40    1
   120    67    64    1
   121    64    65    1
   122    40    39    1
   123    79    78    1
   124    37    36    1
   125    37    38    1
   126    65    74   am
   127    65    66    2
   128    74    75    1
   129    36    33    1
   130    78    75    1
   131    75    76    1
   132    38    32    1
   133    77    76    2
   134    33    34    1
   135    33    32    1
   136    34    35    2
