@<TRIPOS>MOLECULE
tmp/6dvrA01.pdb
 143 142 0 0 0
SMALL
GASTEIGER

@<TRIPOS>ATOM
      1  N        -39.9970  -35.2720  -30.0010 N.3     2  TYR2       -0.1241
      2  CA       -41.3820  -35.0790  -29.5400 C.3     2  TYR2        0.1605
      3  C        -41.6360  -35.9170  -28.2790 C.2     2  TYR2        0.2264
      4  O        -42.0020  -35.3820  -27.2250 O.2     2  TYR2       -0.2867
      5  CB       -42.3590  -35.4280  -30.6660 C.3     2  TYR2        0.0534
      6  CG       -43.8220  -35.3460  -30.3080 C.ar    2  TYR2       -0.0201
      7  CD1      -44.4720  -34.1250  -30.2130 C.ar    2  TYR2       -0.0009
      8  CD2      -44.5690  -36.4950  -30.0940 C.ar    2  TYR2       -0.0009
      9  CE1      -45.8230  -34.0430  -29.9040 C.ar    2  TYR2        0.0417
     10  CE2      -45.9170  -36.4320  -29.7730 C.ar    2  TYR2        0.0417
     11  CZ       -46.5480  -35.2020  -29.6790 C.ar    2  TYR2        0.1957
     12  OH       -47.8780  -35.1590  -29.3750 O.3     2  TYR2       -0.2866
     13  N        -39.3850  -35.1120  -25.1380 N.3     5  PHE5       -0.1227
     14  CA       -39.9100  -33.9860  -24.3560 C.3     5  PHE5        0.1736
     15  C        -40.8790  -34.4810  -23.2680 C.2     5  PHE5        0.2595
     16  O        -40.8500  -34.0170  -22.1200 O.2     5  PHE5       -0.2718
     17  CB       -40.5860  -32.9980  -25.3090 C.3     5  PHE5        0.0547
     18  CG       -41.4010  -31.9130  -24.6580 C.ar    5  PHE5       -0.0202
     19  CD1      -40.8270  -30.6980  -24.3160 C.ar    5  PHE5       -0.0042
     20  CD2      -42.7570  -32.0890  -24.4280 C.ar    5  PHE5       -0.0042
     21  CE1      -41.5880  -29.6920  -23.7380 C.ar    5  PHE5       -0.0003
     22  CE2      -43.5130  -31.0870  -23.8410 C.ar    5  PHE5       -0.0003
     23  CZ       -42.9280  -29.8900  -23.4950 C.ar    5  PHE5       -0.0000
     24  N        -41.7220  -35.4390  -23.6220 N.am    6  TYR6       -0.1976
     25  CA       -42.8040  -35.8850  -22.7480 C.3     6  TYR6        0.1639
     26  C        -42.2970  -36.8910  -21.7030 C.2     6  TYR6        0.2290
     27  O        -43.0420  -37.2770  -20.7920 O.2     6  TYR6       -0.2864
     28  CB       -43.9260  -36.4690  -23.6060 C.3     6  TYR6        0.0560
     29  CG       -44.8310  -35.4280  -24.2150 C.ar    6  TYR6       -0.0198
     30  CD1      -45.4740  -34.5030  -23.4140 C.ar    6  TYR6       -0.0009
     31  CD2      -45.0780  -35.3940  -25.5780 C.ar    6  TYR6       -0.0009
     32  CE1      -46.3340  -33.5580  -23.9450 C.ar    6  TYR6        0.0417
     33  CE2      -45.9530  -34.4700  -26.1220 C.ar    6  TYR6        0.0417
     34  CZ       -46.5580  -33.5290  -25.3090 C.ar    6  TYR6        0.1957
     35  OH       -47.4290  -32.5990  -25.8020 O.3     6  TYR6       -0.2866
     36  N        -46.1960  -29.7750  -15.2840 N.3    14  ASN14      -0.1225
     37  CA       -46.7250  -28.4970  -15.7520 C.3    14  ASN14       0.1785
     38  C        -48.1890  -28.6530  -16.1920 C.2    14  ASN14       0.2597
     39  O        -49.0300  -27.8040  -15.8830 O.2    14  ASN14      -0.2718
     40  CB       -45.8630  -27.9140  -16.8710 C.3    14  ASN14       0.1169
     41  CG       -44.4950  -27.4660  -16.4030 C.2    14  ASN14       0.2627
     42  OD1      -44.2670  -27.2760  -15.2040 O.2    14  ASN14      -0.2716
     43  ND2      -43.5840  -27.2960  -17.3490 N.am   14  ASN14      -0.0877
     44  N        -48.4900  -29.7580  -16.8660 N.am   15  MET15      -0.1979
     45  CA       -49.8580  -30.0060  -17.3170 C.3    15  MET15       0.1605
     46  C        -50.7420  -30.4450  -16.1460 C.2    15  MET15       0.2287
     47  O        -51.8860  -30.0280  -16.0670 O.2    15  MET15      -0.2864
     48  CB       -49.8840  -31.0540  -18.4320 C.3    15  MET15       0.0413
     49  CG       -49.1470  -30.5800  -19.6850 C.3    15  MET15       0.0598
     50  SD       -49.1530  -31.7700  -21.0450 S.3    15  MET15      -0.1393
     51  CE       -48.0200  -33.0010  -20.4060 C.3    15  MET15       0.0692
     52  N        -50.4390  -29.6490  -12.9110 N.3    17  GLN17      -0.1245
     53  CA       -50.6830  -28.5470  -11.9800 C.3    17  GLN17       0.1566
     54  C        -51.5110  -27.4410  -12.6530 C.2    17  GLN17       0.2260
     55  O        -51.8610  -26.4660  -12.0040 O.2    17  GLN17      -0.2867
     56  CB       -49.3610  -28.0290  -11.4070 C.3    17  GLN17       0.0367
     57  CG       -48.4970  -27.2680  -12.3980 C.3    17  GLN17       0.0905
     58  CD       -47.0960  -27.1000  -11.8610 C.2    17  GLN17       0.2608
     59  OE1      -46.8180  -27.4310  -10.7110 O.2    17  GLN17      -0.2717
     60  NE2      -46.2010  -26.5880  -12.6930 N.am   17  GLN17      -0.0878
     61  N        -57.0680  -27.6820  -16.7500 N.3    21  ARG21      -0.1245
     62  CA       -56.9790  -29.0240  -17.3200 C.3    21  ARG21       0.1563
     63  C        -57.4930  -30.0460  -16.2960 C.2    21  ARG21       0.2260
     64  O        -58.5620  -30.6320  -16.4610 O.2    21  ARG21      -0.2867
     65  CB       -55.5390  -29.3930  -17.6930 C.3    21  ARG21       0.0307
     66  CG       -55.1320  -29.1100  -19.1300 C.3    21  ARG21       0.0489
     67  CD       -53.6810  -29.5090  -19.3230 C.3    21  ARG21       0.2205
     68  NE       -53.1280  -29.2110  -20.6440 N.pl3  21  ARG21      -0.0865
     69  CZ       -52.2760  -28.2350  -20.9150 C.cat  21  ARG21       0.5346
     70  NH1      -52.0310  -27.2800  -20.0310 N.pl3  21  ARG21       0.1354
     71  NH2      -51.6430  -28.2310  -22.0710 N.pl3  21  ARG21       0.1354
     72  N        -55.7340  -31.5580  -27.1120 N.3   112  MET112     -0.1230
     73  CA       -55.9400  -30.2340  -27.6840 C.3   112  MET112      0.1702
     74  C        -54.6100  -29.4710  -27.7250 C.2   112  MET112      0.2593
     75  O        -53.8270  -29.4610  -26.7550 O.2   112  MET112     -0.2718
     76  CB       -56.9540  -29.4260  -26.8740 C.3   112  MET112      0.0401
     77  CG       -58.3740  -29.9700  -26.9260 C.3   112  MET112      0.0596
     78  SD       -58.7150  -31.1890  -25.6150 S.3   112  MET112     -0.1393
     79  CE       -58.6830  -30.1710  -24.1430 C.3   112  MET112      0.0692
     80  N        -54.3930  -28.7750  -28.8320 N.am  113  GLY113     -0.1942
     81  CA       -53.2660  -27.8530  -28.9770 C.3   113  GLY113      0.2014
     82  C        -53.7420  -26.4500  -29.2780 C.2   113  GLY113      0.2638
     83  O        -54.9310  -26.1590  -29.2330 O.2   113  GLY113     -0.2714
     84  N        -52.8000  -25.5500  -29.5500 N.am  114  TYR114     -0.1973
     85  CA       -53.1880  -24.2010  -29.9770 C.3   114  TYR114      0.1639
     86  C        -54.1880  -24.2820  -31.1390 C.2   114  TYR114      0.2290
     87  O        -54.0530  -25.1360  -32.0140 O.2   114  TYR114     -0.2864
     88  CB       -51.9770  -23.4230  -30.4820 C.3   114  TYR114      0.0560
     89  CG       -50.9490  -23.0310  -29.4540 C.ar  114  TYR114     -0.0198
     90  CD1      -51.3010  -22.5360  -28.2080 C.ar  114  TYR114     -0.0009
     91  CD2      -49.6090  -23.0670  -29.7790 C.ar  114  TYR114     -0.0009
     92  CE1      -50.3430  -22.1300  -27.2950 C.ar  114  TYR114      0.0417
     93  CE2      -48.6370  -22.6560  -28.8860 C.ar  114  TYR114      0.0417
     94  CZ       -49.0040  -22.1780  -27.6430 C.ar  114  TYR114      0.1957
     95  OH       -48.0580  -21.7540  -26.7610 O.3   114  TYR114     -0.2866
     96  N        -53.4480  -27.8620  -33.3270 N.3   118  ASN118     -0.1225
     97  CA       -52.0160  -27.9130  -33.3580 C.3   118  ASN118      0.1785
     98  C        -51.5210  -29.1130  -32.5340 C.2   118  ASN118      0.2597
     99  O        -52.1650  -29.4970  -31.5520 O.2   118  ASN118     -0.2718
    100  CB       -51.3870  -26.6210  -32.8490 C.3   118  ASN118      0.1169
    101  CG       -49.9360  -26.5290  -33.2450 C.2   118  ASN118      0.2627
    102  OD1      -49.5950  -26.8480  -34.3880 O.2   118  ASN118     -0.2716
    103  ND2      -49.0920  -26.1580  -32.2950 N.am  118  ASN118     -0.0877
    104  N        -50.4010  -29.6800  -32.9860 N.am  119  GLU119     -0.1979
    105  CA       -49.7580  -30.9090  -32.4240 C.3   119  GLU119      0.1602
    106  C        -50.3120  -32.1620  -33.1150 C.2   119  GLU119      0.2287
    107  O        -49.6680  -33.1990  -33.0980 O.2   119  GLU119     -0.2864
    108  CB       -49.8760  -30.9700  -30.8930 C.3   119  GLU119      0.0415
    109  CG       -48.9090  -31.9580  -30.2620 C.3   119  GLU119      0.1163
    110  CD       -48.8180  -31.9820  -28.7420 C.2   119  GLU119      0.3649
    111  OE1      -48.3260  -32.9990  -28.2140 O.co2 119  GLU119     -0.2457
    112  OE2      -49.2210  -31.0080  -28.0870 O.co2 119  GLU119     -0.2457
    113  N        -53.3780  -21.8750  -20.5790 N.3   267  HIS267     -0.1226
    114  CA       -52.0720  -22.0520  -21.2230 C.3   267  HIS267      0.1752
    115  C        -52.1900  -22.2560  -22.7420 C.2   267  HIS267      0.2596
    116  O        -51.1700  -22.3660  -23.4240 O.2   267  HIS267     -0.2718
    117  CB       -51.2930  -23.2010  -20.5780 C.3   267  HIS267      0.0759
    118  CG       -50.9220  -22.9130  -19.1640 C.ar  267  HIS267      0.0818
    119  ND1      -49.9500  -21.9890  -18.8400 N.ar  267  HIS267     -0.2268
    120  CD2      -51.4000  -23.3980  -17.9990 C.ar  267  HIS267      0.1154
    121  CE1      -49.8350  -21.9260  -17.5260 C.ar  267  HIS267      0.1986
    122  NE2      -50.7090  -22.7880  -16.9870 N.ar  267  HIS267     -0.2212
    123  N        -53.4160  -22.3120  -23.2660 N.am  268  TRP268     -0.1976
    124  CA       -53.6130  -22.2810  -24.7170 C.3   268  TRP268      0.1640
    125  C        -53.6850  -20.8320  -25.2120 C.2   268  TRP268      0.2290
    126  O        -53.6680  -20.6080  -26.4330 O.2   268  TRP268     -0.2864
    127  CB       -54.8780  -23.0500  -25.1200 C.3   268  TRP268      0.0576
    128  CG       -54.7320  -24.5360  -25.0080 C.ar  268  TRP268      0.0006
    129  CD1      -54.0980  -25.3610  -25.8900 C.ar  268  TRP268      0.0946
    130  CD2      -55.2140  -25.3800  -23.9430 C.ar  268  TRP268      0.0152
    131  NE1      -54.1680  -26.6610  -25.4590 N.ar  268  TRP268     -0.2442
    132  CE2      -54.8460  -26.7010  -24.2730 C.ar  268  TRP268      0.0810
    133  CE3      -55.9400  -25.1550  -22.7670 C.ar  268  TRP268      0.0012
    134  CZ2      -55.1670  -27.7890  -23.4620 C.ar  268  TRP268      0.0191
    135  CZ3      -56.2780  -26.2360  -21.9760 C.ar  268  TRP268      0.0001
    136  CH2      -55.8790  -27.5280  -22.3150 C.ar  268  TRP268      0.0015
    137  N        -44.9920  -20.5160  -34.2830 N.3   325  PRO325     -0.2116
    138  CA       -45.7980  -19.4860  -33.6430 C.3   325  PRO325      0.1372
    139  C        -44.8930  -18.4710  -32.9360 C.2   325  PRO325      0.2244
    140  O        -43.7570  -18.8020  -32.5640 O.2   325  PRO325     -0.2868
    141  CB       -46.7120  -20.2360  -32.6740 C.3   325  PRO325      0.0268
    142  CG       -45.9400  -21.4790  -32.3420 C.3   325  PRO325      0.0207
    143  CD       -45.1310  -21.7980  -33.5740 C.3   325  PRO325      0.0892
@<TRIPOS>BOND
     1   102   101    2
     2   137   138    1
     3   137   143    1
     4   138   139    1
     5   138   141    1
     6   143   142    1
     7    97    96    1
     8    97   100    1
     9    97    98    1
    10   101   100    1
    11   101   103   am
    12   106   107    2
    13   106   105    1
    14   104    98   am
    15   104   105    1
    16   139   140    2
    17   141   142    1
    18    98    99    2
    19   105   108    1
    20    87    86    2
    21    86    85    1
    22   108   109    1
    23     5     6    1
    24     5     2    1
    25    88    85    1
    26    88    89    1
    27     6     7   ar
    28     6     8   ar
    29   109   110    1
    30     7     9   ar
    31     8    10   ar
    32     1     2    1
    33    85    84    1
    34     9    11   ar
    35    91    89   ar
    36    91    93   ar
    37    10    11   ar
    38    11    12    1
    39    84    82   am
    40     2     3    1
    41    89    90   ar
    42    82    83    2
    43    82    81    1
    44    81    80    1
    45    93    94   ar
    46    80    74   am
    47   110   111   ar
    48   110   112   ar
    49     3     4    2
    50    90    92   ar
    51    74    73    1
    52    74    75    2
    53    73    72    1
    54    73    76    1
    55    94    92   ar
    56    94    95    1
    57    77    76    1
    58    77    78    1
    59   126   125    2
    60    33    31   ar
    61    33    34   ar
    62   129   131   ar
    63   129   128   ar
    64    35    34    1
    65    78    79    1
    66    31    29   ar
    67   131   132   ar
    68    17    18    1
    69    17    14    1
    70    34    32   ar
    71   125   124    1
    72    13    14    1
    73   127   128    1
    74   127   124    1
    75   128   130   ar
    76   124   123    1
    77    18    20   ar
    78    18    19   ar
    79    20    22   ar
    80    14    15    1
    81    19    21   ar
    82   132   130   ar
    83   132   134   ar
    84    29    28    1
    85    29    30   ar
    86    32    30   ar
    87   130   133   ar
    88    22    23   ar
    89    21    23   ar
    90    24    15   am
    91    24    25    1
    92    28    25    1
    93   134   136   ar
    94   116   115    2
    95    15    16    2
    96   123   115   am
    97   133   135   ar
    98    25    26    1
    99   115   114    1
   100   136   135   ar
   101    71    69    1
   102    26    27    2
   103   114   113    1
   104   114   117    1
   105    50    51    1
   106    50    49    1
   107    69    68    2
   108    69    70    1
   109    68    67    1
   110   117   118    1
   111    49    48    1
   112    67    66    1
   113   118   119   ar
   114   118   120   ar
   115    66    65    1
   116   119   121   ar
   117    48    45    1
   118   120   122   ar
   119    65    62    1
   120   121   122   ar
   121    43    41   am
   122    62    61    1
   123    62    63    1
   124    45    44    1
   125    45    46    1
   126    40    41    1
   127    40    37    1
   128    44    38   am
   129    64    63    2
   130    41    42    2
   131    38    39    2
   132    38    37    1
   133    46    47    2
   134    37    36    1
   135    52    53    1
   136    60    58   am
   137    54    55    2
   138    54    53    1
   139    57    58    1
   140    57    56    1
   141    53    56    1
   142    58    59    2
