@<TRIPOS>MOLECULE
tmp/6dvrB01.pdb
 119 117 0 0 0
SMALL
GASTEIGER

@<TRIPOS>ATOM
      1  N        -31.6160  -12.1140  -34.5540 N.3    14  ASN14      -0.1225
      2  CA       -31.4490  -12.0540  -33.1380 C.3    14  ASN14       0.1785
      3  C        -29.9550  -12.1570  -32.7930 C.2    14  ASN14       0.2597
      4  O        -29.4830  -11.4770  -31.9010 O.2    14  ASN14      -0.2718
      5  CB       -32.2750  -13.1390  -32.4410 C.3    14  ASN14       0.1169
      6  CG       -33.7660  -12.9110  -32.5870 C.2    14  ASN14       0.2627
      7  OD1      -34.2080  -11.8090  -32.9140 O.2    14  ASN14      -0.2716
      8  ND2      -34.5430  -13.9660  -32.4140 N.am   14  ASN14      -0.0877
      9  N        -29.2380  -13.0170  -33.4970 N.am   15  MET15      -0.1979
     10  CA       -27.7960  -13.1580  -33.2570 C.3    15  MET15       0.1605
     11  C        -27.0560  -11.9120  -33.7570 C.2    15  MET15       0.2287
     12  O        -26.1400  -11.4280  -33.0670 O.2    15  MET15      -0.2864
     13  CB       -27.2540  -14.4160  -33.9460 C.3    15  MET15       0.0413
     14  CG       -27.8070  -15.6790  -33.3230 C.3    15  MET15       0.0598
     15  SD       -27.1580  -17.2220  -34.0210 S.3    15  MET15      -0.1393
     16  CE       -27.8760  -17.1800  -35.6590 C.3    15  MET15       0.0692
     17  N        -28.1030   -8.7690  -34.1740 N.3    17  GLN17      -0.1245
     18  CA       -28.3500   -7.4950  -33.4950 C.3    17  GLN17       0.1566
     19  C        -27.7800   -7.5430  -32.0660 C.2    17  GLN17       0.2260
     20  O        -27.8850   -6.5610  -31.3290 O.2    17  GLN17      -0.2867
     21  CB       -29.8400   -7.1450  -33.5670 C.3    17  GLN17       0.0367
     22  CG       -30.7280   -8.0140  -32.6940 C.3    17  GLN17       0.0905
     23  CD       -32.1790   -7.9390  -33.1120 C.2    17  GLN17       0.2608
     24  OE1      -32.5490   -7.1870  -34.0130 O.2    17  GLN17      -0.2717
     25  NE2      -33.0130   -8.7360  -32.4630 N.am   17  GLN17      -0.0878
     26  N        -21.4340   -9.4880  -29.6060 N.3    21  ARG21      -0.1245
     27  CA       -21.0300  -10.6080  -30.4480 C.3    21  ARG21       0.1563
     28  C        -20.5420  -10.0770  -31.8010 C.2    21  ARG21       0.2260
     29  O        -19.3920  -10.2990  -32.1920 O.2    21  ARG21      -0.2867
     30  CB       -22.1960  -11.5930  -30.5960 C.3    21  ARG21       0.0307
     31  CG       -21.8770  -12.8430  -31.4020 C.3    21  ARG21       0.0489
     32  CD       -23.0840  -13.7210  -31.7070 C.3    21  ARG21       0.2205
     33  NE       -24.1400  -13.6000  -30.7150 N.pl3  21  ARG21      -0.0865
     34  CZ       -24.9570  -14.5790  -30.3380 C.cat  21  ARG21       0.5346
     35  NH1      -24.7640  -15.8150  -30.7620 N.pl3  21  ARG21       0.1354
     36  NH2      -25.9540  -14.3040  -29.5170 N.pl3  21  ARG21       0.1354
     37  N        -19.8480  -21.2550  -30.5580 N.3   112  MET112     -0.1230
     38  CA       -19.9820  -21.3680  -29.0990 C.3   112  MET112      0.1702
     39  C        -21.4550  -21.5110  -28.6970 C.2   112  MET112      0.2593
     40  O        -22.3460  -20.7870  -29.1680 O.2   112  MET112     -0.2718
     41  CB       -19.3890  -20.1400  -28.4020 C.3   112  MET112      0.0401
     42  CG       -17.8910  -19.9620  -28.6200 C.3   112  MET112      0.0596
     43  SD       -17.4690  -18.9800  -30.0840 S.3   112  MET112     -0.1393
     44  CE       -17.8840  -17.3270  -29.5310 C.3   112  MET112      0.0692
     45  N        -21.6920  -22.4240  -27.7540 N.am  113  GLY113     -0.1942
     46  CA       -22.9800  -22.5490  -27.1030 C.3   113  GLY113      0.2014
     47  C        -22.8670  -22.3020  -25.6080 C.2   113  GLY113      0.2638
     48  O        -21.8180  -21.8730  -25.1060 O.2   113  GLY113     -0.2714
     49  N        -23.9620  -22.5600  -24.8970 N.am  114  TYR114     -0.1973
     50  CA       -23.9580  -22.4500  -23.4450 C.3   114  TYR114      0.1639
     51  C        -22.7820  -23.2610  -22.9010 C.2   114  TYR114      0.2290
     52  O        -22.5040  -24.3450  -23.4050 O.2   114  TYR114     -0.2864
     53  CB       -25.2500  -22.9940  -22.8320 C.3   114  TYR114      0.0560
     54  CG       -26.4900  -22.1780  -23.0860 C.ar  114  TYR114     -0.0198
     55  CD1      -26.4820  -20.7960  -22.9830 C.ar  114  TYR114     -0.0009
     56  CD2      -27.6970  -22.8000  -23.3580 C.ar  114  TYR114     -0.0009
     57  CE1      -27.6280  -20.0470  -23.1840 C.ar  114  TYR114      0.0417
     58  CE2      -28.8540  -22.0670  -23.5650 C.ar  114  TYR114      0.0417
     59  CZ       -28.8230  -20.6860  -23.4720 C.ar  114  TYR114      0.1957
     60  OH       -29.9580  -19.9550  -23.6620 O.3   114  TYR114     -0.2866
     61  N        -22.0620  -26.5340  -25.5180 N.3   118  ASN118     -0.1225
     62  CA       -23.4150  -26.9410  -25.8640 C.3   118  ASN118      0.1785
     63  C        -23.6610  -26.6630  -27.3550 C.2   118  ASN118      0.2597
     64  O        -23.1130  -25.7050  -27.9020 O.2   118  ASN118     -0.2718
     65  CB       -24.4670  -26.2680  -24.9890 C.3   118  ASN118      0.1169
     66  CG       -25.8130  -26.9420  -25.1200 C.2   118  ASN118      0.2627
     67  OD1      -25.8870  -28.1710  -25.1360 O.2   118  ASN118     -0.2716
     68  ND2      -26.8640  -26.1470  -25.2500 N.am  118  ASN118     -0.0877
     69  N        -24.4570  -27.5360  -27.9810 N.am  119  GLU119     -0.1979
     70  CA       -24.7970  -27.5170  -29.4320 C.3   119  GLU119      0.1602
     71  C        -23.8010  -28.3920  -30.2150 C.2   119  GLU119      0.2287
     72  O        -24.1140  -28.8580  -31.3110 O.2   119  GLU119     -0.2864
     73  CB       -24.8970  -26.0840  -29.9790 C.3   119  GLU119      0.0415
     74  CG       -25.9270  -25.9380  -31.0890 C.3   119  GLU119      0.1163
     75  CD       -26.0790  -24.5660  -31.7320 C.2   119  GLU119      0.3649
     76  OE1      -26.3730  -24.5250  -32.9370 O.co2 119  GLU119     -0.2457
     77  OE2      -25.9060  -23.5430  -31.0400 O.co2 119  GLU119     -0.2457
     78  N        -25.9760  -13.0430  -24.4060 N.3   267  HIS267     -0.1226
     79  CA       -27.0710  -14.0070  -24.6530 C.3   267  HIS267      0.1752
     80  C        -26.6490  -15.4510  -24.3390 C.2   267  HIS267      0.2596
     81  O        -27.4830  -16.3600  -24.4170 O.2   267  HIS267     -0.2718
     82  CB       -27.6100  -13.8550  -26.0750 C.3   267  HIS267      0.0759
     83  CG       -28.3210  -12.5590  -26.2730 C.ar  267  HIS267      0.0818
     84  ND1      -29.5460  -12.2940  -25.6870 N.ar  267  HIS267     -0.2268
     85  CD2      -27.9720  -11.4410  -26.9430 C.ar  267  HIS267      0.1154
     86  CE1      -29.9280  -11.0700  -26.0120 C.ar  267  HIS267      0.1986
     87  NE2      -28.9820  -10.5280  -26.7890 N.ar  267  HIS267     -0.2212
     88  N        -25.3770  -15.6670  -24.0140 N.am  268  TRP268     -0.1976
     89  CA       -24.9340  -16.9330  -23.4260 C.3   268  TRP268      0.1640
     90  C        -25.2100  -16.9570  -21.9210 C.2   268  TRP268      0.2290
     91  O        -25.1130  -18.0190  -21.3080 O.2   268  TRP268     -0.2864
     92  CB       -23.4480  -17.1760  -23.7000 C.3   268  TRP268      0.0576
     93  CG       -23.1590  -17.5410  -25.1210 C.ar  268  TRP268      0.0006
     94  CD1      -23.3450  -18.7620  -25.7020 C.ar  268  TRP268      0.0946
     95  CD2      -22.6350  -16.6800  -26.1490 C.ar  268  TRP268      0.0152
     96  NE1      -22.9760  -18.7260  -27.0170 N.ar  268  TRP268     -0.2442
     97  CE2      -22.5290  -17.4650  -27.3160 C.ar  268  TRP268      0.0810
     98  CE3      -22.2300  -15.3390  -26.1940 C.ar  268  TRP268      0.0012
     99  CZ2      -22.0500  -16.9470  -28.5190 C.ar  268  TRP268      0.0191
    100  CZ3      -21.7490  -14.8320  -27.3810 C.ar  268  TRP268      0.0001
    101  CH2      -21.6630  -15.6260  -28.5260 C.ar  268  TRP268      0.0015
    102  N        -32.1190  -27.5330  -20.2120 N.3   325  PRO325     -0.2116
    103  CA       -31.7720  -26.4430  -19.2980 C.3   325  PRO325      0.1372
    104  C        -32.9960  -25.7040  -18.7340 C.2   325  PRO325      0.2244
    105  O        -34.0750  -25.7080  -19.3380 O.2   325  PRO325     -0.2868
    106  CB       -30.9010  -25.5120  -20.1520 C.3   325  PRO325      0.0268
    107  CG       -31.4120  -25.7290  -21.5550 C.3   325  PRO325      0.0207
    108  CD       -31.7840  -27.1940  -21.6020 C.3   325  PRO325      0.0892
    109  N        -34.1690  -22.1220  -18.1550 N.3   327  PHE327     -0.1241
    110  CA       -33.9750  -20.7100  -18.4920 C.3   327  PHE327      0.1605
    111  C        -34.6900  -19.8490  -17.4470 C.2   327  PHE327      0.2264
    112  O        -35.9080  -19.6600  -17.5060 O.2   327  PHE327     -0.2867
    113  CB       -34.4950  -20.4170  -19.9010 C.3   327  PHE327      0.0534
    114  CG       -33.9610  -21.3440  -20.9620 C.ar  327  PHE327     -0.0203
    115  CD1      -32.6780  -21.1820  -21.4610 C.ar  327  PHE327     -0.0042
    116  CD2      -34.7360  -22.3830  -21.4550 C.ar  327  PHE327     -0.0042
    117  CE1      -32.1830  -22.0410  -22.4310 C.ar  327  PHE327     -0.0003
    118  CE2      -34.2380  -23.2400  -22.4250 C.ar  327  PHE327     -0.0003
    119  CZ       -32.9630  -23.0660  -22.9130 C.ar  327  PHE327     -0.0000
@<TRIPOS>BOND
     1    16    15    1
     2     1     2    1
     3    17    18    1
     4    15    14    1
     5    24    23    2
     6    13    14    1
     7    13    10    1
     8    11    10    1
     9    11    12    2
    10    21    18    1
    11    21    22    1
    12     9    10    1
    13     9     3   am
    14    18    19    1
    15     2     3    1
    16     2     5    1
    17    23    22    1
    18    23    25   am
    19    76    75   ar
    20     7     6    2
    21     3     4    2
    22     6     5    1
    23     6     8   am
    24    29    28    2
    25    19    20    2
    26    28    27    1
    27    75    74    1
    28    75    77   ar
    29    32    31    1
    30    32    33    1
    31    31    30    1
    32    72    71    2
    33    74    73    1
    34    35    34    1
    35    33    34    2
    36    30    27    1
    37    37    38    1
    38    27    26    1
    39    34    36    1
    40    71    70    1
    41    43    44    1
    42    43    42    1
    43    73    70    1
    44    70    69    1
    45    40    39    2
    46    38    39    1
    47    38    41    1
    48    39    45   am
    49    42    41    1
    50   101    99   ar
    51   101   100   ar
    52    99    97   ar
    53    69    63   am
    54    64    63    2
    55    45    46    1
    56   100    98   ar
    57    63    62    1
    58    97    96   ar
    59    97    95   ar
    60    46    47    1
    61    96    94   ar
    62    85    87   ar
    63    85    83   ar
    64    87    86   ar
    65    83    82    1
    66    83    84   ar
    67    98    95   ar
    68    95    93   ar
    69    82    79    1
    70    86    84   ar
    71    62    61    1
    72    62    65    1
    73    94    93   ar
    74    47    48    2
    75    47    49   am
    76    68    66   am
    77    67    66    2
    78    93    92    1
    79    66    65    1
    80    49    50    1
    81    79    78    1
    82    79    80    1
    83    81    80    2
    84    80    88   am
    85    88    89    1
    86    92    89    1
    87    60    59    1
    88    58    59   ar
    89    58    56   ar
    90    59    57   ar
    91    50    51    1
    92    50    53    1
    93    89    90    1
    94    52    51    2
    95    56    54   ar
    96    57    55   ar
    97    54    55   ar
    98    54    53    1
    99   119   117   ar
   100   119   118   ar
   101   117   115   ar
   102   118   116   ar
   103    90    91    2
   104   108   107    1
   105   108   102    1
   106   107   106    1
   107   115   114   ar
   108   116   114   ar
   109   114   113    1
   110   102   103    1
   111   106   103    1
   112   113   110    1
   113   105   104    2
   114   103   104    1
   115   110   109    1
   116   110   111    1
   117   112   111    2
