@<TRIPOS>MOLECULE
tmp/6dvvB00.pdb
 115 110 0 0 0
SMALL
GASTEIGER

@<TRIPOS>ATOM
      1  N        -29.9470   -4.1130    5.8780 N.3    89  ARG89      -0.1245
      2  CA       -28.8180   -4.6780    6.6020 C.3    89  ARG89       0.1563
      3  C        -28.8480   -6.2120    6.5020 C.2    89  ARG89       0.2260
      4  O        -27.7930   -6.8560    6.4340 O.2    89  ARG89      -0.2867
      5  CB       -28.8160   -4.2520    8.0720 C.3    89  ARG89       0.0307
      6  CG       -27.7030   -4.8880    8.8920 C.3    89  ARG89       0.0489
      7  CD       -27.6390   -4.3540   10.3090 C.3    89  ARG89       0.2205
      8  NE       -26.5980   -4.9850   11.1100 N.pl3  89  ARG89      -0.0865
      9  CZ       -26.3230   -4.6510   12.3650 C.cat  89  ARG89       0.5346
     10  NH1      -27.0110   -3.6810   12.9480 N.pl3  89  ARG89       0.1354
     11  NH2      -25.3660   -5.2850   13.0270 N.pl3  89  ARG89       0.1354
     12  N        -25.9130   -8.8390    4.9420 N.3    93  GLU93      -0.1245
     13  CA       -25.3720   -9.9690    5.7040 C.3    93  GLU93       0.1567
     14  C        -25.6030  -11.3140    5.0040 C.2    93  GLU93       0.2260
     15  O        -24.8110  -12.2310    5.1970 O.2    93  GLU93      -0.2867
     16  CB       -26.0000  -10.0040    7.1040 C.3    93  GLU93       0.0388
     17  CG       -25.5640   -8.8500    7.9950 C.3    93  GLU93       0.1160
     18  CD       -26.3770   -8.5910    9.2610 C.2    93  GLU93       0.3649
     19  OE1      -27.4840   -9.1470    9.3960 O.co2  93  GLU93      -0.2457
     20  OE2      -25.9060   -7.7970   10.1030 O.co2  93  GLU93      -0.2457
     21  N        -20.7620  -12.0420    5.6240 N.3   103  GLY103     -0.1210
     22  CA       -21.7560  -10.9620    5.5400 C.3   103  GLY103      0.1956
     23  C        -21.8230  -10.1810    6.8470 C.2   103  GLY103      0.2611
     24  O        -22.2780  -10.6970    7.8530 O.2   103  GLY103     -0.2717
     25  N        -21.4120   -8.9110    6.8200 N.am  104  GLN104     -0.1979
     26  CA       -21.3420   -8.1590    8.0620 C.3   104  GLN104      0.1601
     27  C        -21.7090   -6.6940    7.7810 C.2   104  GLN104      0.2287
     28  O        -21.5550   -6.1940    6.6700 O.2   104  GLN104     -0.2864
     29  CB       -19.9540   -8.4100    8.6650 C.3   104  GLN104      0.0394
     30  CG       -19.8190   -8.1040   10.1550 C.3   104  GLN104      0.0908
     31  CD       -19.6230   -6.6420   10.4840 C.2   104  GLN104      0.2608
     32  OE1      -19.0140   -5.8840    9.7100 O.2   104  GLN104     -0.2717
     33  NE2      -20.0930   -6.2470   11.6650 N.am  104  GLN104     -0.0878
     34  N        -17.8300  -14.3430   20.7460 N.3   223  ASP223     -0.1225
     35  CA       -16.6390  -14.9960   20.2250 C.3   223  ASP223      0.1805
     36  C        -15.7090  -13.9470   19.6060 C.2   223  ASP223      0.2598
     37  O        -14.5380  -14.1900   19.4390 O.2   223  ASP223     -0.2718
     38  CB       -17.0020  -16.0500   19.1760 C.3   223  ASP223      0.1424
     39  CG       -17.7460  -15.4650   17.9870 C.2   223  ASP223      0.3668
     40  OD1      -18.6770  -14.6610   18.2270 O.co2 223  ASP223     -0.2456
     41  OD2      -17.3510  -15.7670   16.8310 O.co2 223  ASP223     -0.2456
     42  N        -16.2710  -12.7970   19.2380 N.am  224  THR224     -0.1953
     43  CA       -15.4890  -11.7150   18.6720 C.3   224  THR224      0.1897
     44  C        -14.3280  -11.3890   19.6180 C.2   224  THR224      0.2313
     45  O        -13.1680  -11.4740   19.2400 O.2   224  THR224     -0.2863
     46  CB       -16.4000  -10.5140   18.3890 C.3   224  THR224      0.1794
     47  OG1      -17.3220  -10.9480   17.3820 O.3   224  THR224     -0.2208
     48  CG2      -15.6600   -9.2750   17.9310 C.3   224  THR224      0.0378
     49  N        -10.6470   -9.7510   12.8170 N.3   244  LYS244     -0.1231
     50  CA       -10.9380  -11.2090   12.6520 C.3   244  LYS244      0.1693
     51  C        -11.6060  -11.4640   11.2970 C.2   244  LYS244      0.2592
     52  O        -11.4740  -12.5620   10.7170 O.2   244  LYS244     -0.2718
     53  CB       -11.8510  -11.7840   13.7410 C.3   244  LYS244      0.0285
     54  CG       -13.3210  -11.4140   13.6150 C.3   244  LYS244      0.0035
     55  CD       -14.2580  -12.2860   14.4120 C.3   244  LYS244      0.0206
     56  CE       -15.6990  -11.8480   14.2700 C.3   244  LYS244      0.1093
     57  NZ       -16.6090  -12.6800   15.0890 N.3   244  LYS244     -0.1314
     58  N        -12.3230  -10.4550   10.7900 N.am  245  TYR245     -0.1976
     59  CA       -13.0620  -10.6440    9.5330 C.3   245  TYR245      0.1639
     60  C        -12.0970  -10.7160    8.3470 C.2   245  TYR245      0.2290
     61  O        -12.4240  -11.3320    7.3500 O.2   245  TYR245     -0.2864
     62  CB       -14.1200   -9.5510    9.3240 C.3   245  TYR245      0.0560
     63  CG       -15.2250   -9.5650   10.3490 C.ar  245  TYR245     -0.0198
     64  CD1      -16.2470  -10.4970   10.2860 C.ar  245  TYR245     -0.0009
     65  CD2      -15.2600   -8.6380   11.3830 C.ar  245  TYR245     -0.0009
     66  CE1      -17.2680  -10.5190   11.2240 C.ar  245  TYR245      0.0417
     67  CE2      -16.2620   -8.6530   12.3390 C.ar  245  TYR245      0.0417
     68  CZ       -17.2660   -9.6030   12.2640 C.ar  245  TYR245      0.1957
     69  OH       -18.2560   -9.6260   13.2070 O.3   245  TYR245     -0.2866
     70  N        -13.2730  -18.7640    8.9260 N.3   251  TYR251     -0.1227
     71  CA       -13.8770  -19.0160   10.2310 C.3   251  TYR251      0.1736
     72  C        -15.2230  -18.2850   10.3540 C.2   251  TYR251      0.2595
     73  O        -16.2040  -18.8810   10.7660 O.2   251  TYR251     -0.2718
     74  CB       -12.9140  -18.5970   11.3450 C.3   251  TYR251      0.0548
     75  CG       -13.4910  -18.6100   12.7390 C.ar  251  TYR251     -0.0200
     76  CD1      -14.2240  -17.5290   13.2140 C.ar  251  TYR251     -0.0009
     77  CD2      -13.2830  -19.6810   13.5960 C.ar  251  TYR251     -0.0009
     78  CE1      -14.7650  -17.5260   14.4900 C.ar  251  TYR251      0.0417
     79  CE2      -13.8160  -19.6940   14.8760 C.ar  251  TYR251      0.0417
     80  CZ       -14.5570  -18.6110   15.3240 C.ar  251  TYR251      0.1957
     81  OH       -15.0840  -18.6070   16.5820 O.3   251  TYR251     -0.2866
     82  N        -15.2660  -16.9990    9.9820 N.am  252  VAL252     -0.1980
     83  CA       -16.5150  -16.2330   10.1210 C.3   252  VAL252      0.1595
     84  C        -17.6390  -16.8680    9.2940 C.2   252  VAL252      0.2287
     85  O        -18.7720  -17.0090    9.7830 O.2   252  VAL252     -0.2864
     86  CB       -16.3210  -14.7570    9.7390 C.3   252  VAL252      0.0276
     87  CG1      -17.6450  -13.9990    9.7150 C.3   252  VAL252      0.0022
     88  CG2      -15.3240  -14.0860   10.6670 C.3   252  VAL252      0.0022
     89  N        -18.9150  -20.3300   10.7490 N.3   255  HIS255     -0.1226
     90  CA       -19.8030  -20.1860   11.9220 C.3   255  HIS255      0.1752
     91  C        -21.0120  -19.2800   11.6180 C.2   255  HIS255      0.2596
     92  O        -21.7300  -18.8810   12.5330 O.2   255  HIS255     -0.2718
     93  CB       -18.9900  -19.7180   13.1420 C.3   255  HIS255      0.0759
     94  CG       -18.0210  -20.7500   13.6130 C.ar  255  HIS255      0.0818
     95  ND1      -16.7750  -20.9120   13.0390 N.ar  255  HIS255     -0.2268
     96  CD2      -18.1260  -21.7080   14.5600 C.ar  255  HIS255      0.1154
     97  CE1      -16.1450  -21.9130   13.6270 C.ar  255  HIS255      0.1986
     98  NE2      -16.9530  -22.4190   14.5640 N.ar  255  HIS255     -0.2212
     99  N        -21.2410  -18.9570   10.3380 N.am  256  SER256     -0.1952
    100  CA       -22.4000  -18.1390    9.9690 C.3   256  SER256      0.1924
    101  C        -23.6170  -19.0470    9.7200 C.2   256  SER256      0.2314
    102  O        -23.4870  -20.2610    9.4700 O.2   256  SER256     -0.2863
    103  CB       -22.1240  -17.2910    8.7550 C.3   256  SER256      0.2116
    104  OG       -20.9950  -16.4540    8.9540 O.3   256  SER256     -0.2180
    105  N        -27.4560  -11.1080   12.2670 N.3   262  ARG262     -0.1245
    106  CA       -27.5240  -10.0720   13.2760 C.3   262  ARG262      0.1563
    107  C        -28.7140   -9.1300   13.0320 C.2   262  ARG262      0.2260
    108  O        -29.4080   -8.7430   13.9880 O.2   262  ARG262     -0.2867
    109  CB       -26.2060   -9.2880   13.3190 C.3   262  ARG262      0.0307
    110  CG       -26.1420   -8.2360   14.4190 C.3   262  ARG262      0.0489
    111  CD       -26.3880   -8.8130   15.8060 C.3   262  ARG262      0.2205
    112  NE       -26.3470   -7.7970   16.8510 N.pl3 262  ARG262     -0.0865
    113  CZ       -26.8250   -7.9590   18.0820 C.cat 262  ARG262      0.5346
    114  NH1      -27.4020   -9.0990   18.4280 N.pl3 262  ARG262      0.1354
    115  NH2      -26.7560   -6.9650   18.9510 N.pl3 262  ARG262      0.1354
@<TRIPOS>BOND
     1    12    13    1
     2    14    15    2
     3    14    13    1
     4    22    21    1
     5    22    23    1
     6    13    16    1
     7     1     2    1
     8     4     3    2
     9     3     2    1
    10     2     5    1
    11    28    27    2
    12    25    23   am
    13    25    26    1
    14    23    24    2
    15    16    17    1
    16    61    60    2
    17    27    26    1
    18    17    18    1
    19    26    29    1
    20     5     6    1
    21    60    59    1
    22    29    30    1
    23   103   104    1
    24   103   100    1
    25     6     7    1
    26    70    71    1
    27    18    19   ar
    28    18    20   ar
    29    84    85    2
    30    84    83    1
    31    62    59    1
    32    62    63    1
    33   102   101    2
    34    59    58    1
    35    32    31    2
    36    87    86    1
    37   101   100    1
    38    86    83    1
    39    86    88    1
    40   100    99    1
    41    82    83    1
    42    82    72   am
    43    30    31    1
    44    71    72    1
    45    71    74    1
    46    64    63   ar
    47    64    66   ar
    48     7     8    1
    49    99    91   am
    50    63    65   ar
    51    72    73    2
    52    31    33   am
    53    52    51    2
    54    89    90    1
    55    58    51   am
    56     8     9    2
    57    66    68   ar
    58    51    50    1
    59    74    75    1
    60    65    67   ar
    61    91    90    1
    62    91    92    2
    63    90    93    1
    64    68    67   ar
    65    68    69    1
    66   105   106    1
    67     9    10    1
    68     9    11    1
    69    50    49    1
    70    50    53    1
    71    75    76   ar
    72    75    77   ar
    73   107   106    1
    74   107   108    2
    75    95    94   ar
    76    95    97   ar
    77    93    94    1
    78    76    78   ar
    79   106   109    1
    80   109   110    1
    81    77    79   ar
    82    94    96   ar
    83    54    53    1
    84    54    55    1
    85    97    98   ar
    86    56    55    1
    87    56    57    1
    88   110   111    1
    89    78    80   ar
    90    96    98   ar
    91    79    80   ar
    92    80    81    1
    93   111   112    1
    94    41    39   ar
    95   112   113    2
    96    47    46    1
    97    48    46    1
    98    39    40   ar
    99    39    38    1
   100   113   114    1
   101   113   115    1
   102    46    43    1
   103    43    42    1
   104    43    44    1
   105    38    35    1
   106    42    36   am
   107    45    44    2
   108    37    36    2
   109    36    35    1
   110    35    34    1
