@<TRIPOS>MOLECULE
tmp/6dw2B01.pdb
 121 117 0 0 0
SMALL
GASTEIGER

@<TRIPOS>ATOM
      1  N         -8.6640   43.3870   32.3640 N.3    33  ASP33      -0.1239
      2  CA        -7.3990   43.7220   31.7310 C.3    33  ASP33       0.1674
      3  C         -7.5440   43.2810   30.2600 C.2    33  ASP33       0.2266
      4  O         -8.3710   42.4120   29.9350 O.2    33  ASP33      -0.2867
      5  CB        -6.2560   42.8840   32.3290 C.3    33  ASP33       0.1410
      6  CG        -5.6810   43.3910   33.6470 C.2    33  ASP33       0.3668
      7  OD1       -6.2430   44.3710   34.2060 O.co2  33  ASP33      -0.2456
      8  OD2       -4.6340   42.8670   34.0680 O.co2  33  ASP33      -0.2456
      9  N          0.1690   43.7000   29.1260 N.3    50  TRP50      -0.1241
     10  CA        -1.2140   43.9160   29.5550 C.3    50  TRP50       0.1605
     11  C         -1.5110   45.4060   29.6750 C.2    50  TRP50       0.2264
     12  O         -0.5900   46.2040   29.8280 O.2    50  TRP50      -0.2867
     13  CB        -1.5180   43.2260   30.9040 C.3    50  TRP50       0.0550
     14  CG        -0.6870   43.7290   32.0660 C.ar   50  TRP50       0.0003
     15  CD1        0.5040   43.2240   32.4940 C.ar   50  TRP50       0.0946
     16  CD2       -1.0120   44.8100   32.9690 C.ar   50  TRP50       0.0152
     17  NE1        0.9520   43.9310   33.6020 N.ar   50  TRP50      -0.2442
     18  CE2        0.0380   44.9010   33.9130 C.ar   50  TRP50       0.0810
     19  CE3       -2.0870   45.7110   33.0690 C.ar   50  TRP50       0.0012
     20  CZ2        0.0600   45.8860   34.9210 C.ar   50  TRP50       0.0191
     21  CZ3       -2.0570   46.6880   34.0620 C.ar   50  TRP50       0.0001
     22  CH2       -1.0140   46.7350   34.9950 C.ar   50  TRP50       0.0015
     23  N         -4.6410   48.1980   31.5120 N.3    52  ASN52      -0.1240
     24  CA        -5.9050   48.4130   32.2170 C.3    52  ASN52       0.1653
     25  C         -6.4150   49.6900   31.5870 C.2    52  ASN52       0.2266
     26  O         -5.8150   50.7480   31.7560 O.2    52  ASN52      -0.2867
     27  CB        -5.6770   48.5550   33.7330 C.3    52  ASN52       0.1155
     28  CG        -6.9080   48.9560   34.5210 C.2    52  ASN52       0.2627
     29  OD1       -7.7150   49.8000   34.1040 O.2    52  ASN52      -0.2716
     30  ND2       -7.0950   48.3440   35.6730 N.am   52  ASN52      -0.0877
     31  N         -7.4410   52.8060   34.0880 N.3    55  SER55      -0.1217
     32  CA        -6.3870   53.5230   34.8100 C.3    55  SER55       0.1889
     33  C         -5.2180   54.0300   33.9450 C.2    55  SER55       0.2288
     34  O         -4.4230   54.8370   34.4210 O.2    55  SER55      -0.2866
     35  CB        -5.8540   52.6240   35.9220 C.3    55  SER55       0.2089
     36  OG        -5.0970   51.5610   35.3630 O.3    55  SER55      -0.2183
     37  N         -2.7610   52.0850   33.1130 N.3    57  ASN57      -0.1225
     38  CA        -1.6020   51.3480   33.5920 C.3    57  ASN57       0.1785
     39  C         -1.2900   50.2130   32.5920 C.2    57  ASN57       0.2598
     40  O         -2.2170   49.6160   32.0210 O.2    57  ASN57      -0.2718
     41  CB        -1.9100   50.7430   34.9610 C.3    57  ASN57       0.1169
     42  CG        -0.7000   50.3520   35.7460 C.2    57  ASN57       0.2627
     43  OD1        0.4510   50.5630   35.3220 O.2    57  ASN57      -0.2716
     44  ND2       -0.9360   49.7390   36.9040 N.am   57  ASN57      -0.0877
     45  N          0.0040   49.9510   32.3580 N.am   58  THR58      -0.1939
     46  CA         0.4620   48.8690   31.4600 C.3    58  THR58       0.2028
     47  C          1.6450   48.1170   32.0660 C.2    58  THR58       0.2643
     48  O          2.3460   48.6650   32.9160 O.2    58  THR58      -0.2714
     49  CB         0.9020   49.3830   30.0810 C.3    58  THR58       0.1808
     50  OG1        1.8750   50.4040   30.2530 O.3    58  THR58      -0.2208
     51  CG2       -0.2700   49.8670   29.2150 C.3    58  THR58       0.0379
     52  N          1.8840   46.8940   31.5910 N.am   59  GLY59      -0.1939
     53  CA         3.0350   46.0880   31.9900 C.3    59  GLY59       0.2014
     54  C          3.4790   45.2830   30.7990 C.2    59  GLY59       0.2638
     55  O          2.6340   44.6130   30.2030 O.2    59  GLY59      -0.2714
     56  N          4.7670   45.3680   30.4120 N.am   60  TYR60      -0.1973
     57  CA         5.2640   44.6680   29.2290 C.3    60  TYR60       0.1639
     58  C          6.2850   43.5930   29.5470 C.2    60  TYR60       0.2290
     59  O          7.0610   43.7430   30.4980 O.2    60  TYR60      -0.2864
     60  CB         5.8780   45.6670   28.2420 C.3    60  TYR60       0.0560
     61  CG         4.9770   46.8250   27.8610 C.ar   60  TYR60      -0.0198
     62  CD1        3.5990   46.6510   27.7170 C.ar   60  TYR60      -0.0009
     63  CD2        5.5030   48.0890   27.6130 C.ar   60  TYR60      -0.0009
     64  CE1        2.7680   47.7190   27.3810 C.ar   60  TYR60       0.0417
     65  CE2        4.6820   49.1560   27.2350 C.ar   60  TYR60       0.0417
     66  CZ         3.3210   48.9570   27.0980 C.ar   60  TYR60       0.1957
     67  OH         2.5120   49.9930   26.7130 O.3    60  TYR60      -0.2866
     68  N         -8.9620   42.0060   36.2420 N.3   101  ILE101     -0.1231
     69  CA        -8.1890   43.1020   36.8560 C.3   101  ILE101      0.1692
     70  C         -7.7050   42.5240   38.1810 C.2   101  ILE101      0.2592
     71  O         -8.5280   42.0440   38.9560 O.2   101  ILE101     -0.2718
     72  CB        -9.0570   44.3780   37.0770 C.3   101  ILE101      0.0266
     73  CG1       -9.3830   45.0510   35.7390 C.3   101  ILE101      0.0019
     74  CG2       -8.3290   45.3690   38.0220 C.3   101  ILE101      0.0020
     75  CD1      -10.4680   46.1040   35.8220 C.3   101  ILE101      0.0001
     76  N         -6.3850   42.4910   38.4060 N.am  102  LEU102     -0.1966
     77  CA        -5.8670   41.9220   39.6410 C.3   102  LEU102      0.1728
     78  C         -5.5330   43.0280   40.6180 C.2   102  LEU102      0.2616
     79  O         -5.0630   44.0930   40.2140 O.2   102  LEU102     -0.2715
     80  CB        -4.5950   41.0820   39.3860 C.3   102  LEU102      0.0311
     81  CG        -4.6890   40.0440   38.2200 C.3   102  LEU102      0.0022
     82  CD1       -3.3270   39.4560   37.8870 C.3   102  LEU102      0.0001
     83  CD2       -5.7400   38.9750   38.5080 C.3   102  LEU102      0.0001
     84  N         -5.7390   42.7640   41.9090 N.am  103  VAL103     -0.1963
     85  CA        -5.3110   43.7250   42.9140 C.3   103  VAL103      0.1727
     86  C         -3.8000   43.4760   43.0570 C.2   103  VAL103      0.2616
     87  O         -3.3010   42.4370   42.6080 O.2   103  VAL103     -0.2715
     88  CB        -6.0680   43.5990   44.2640 C.3   103  VAL103      0.0290
     89  CG1       -7.5730   43.7650   44.0760 C.3   103  VAL103      0.0023
     90  CG2       -5.7390   42.2910   44.9760 C.3   103  VAL103      0.0023
     91  N         -3.0650   44.4190   43.6380 N.am  104  ARG104     -0.1963
     92  CA        -1.6390   44.2000   43.8590 C.3   104  ARG104      0.1729
     93  C         -1.5400   43.3560   45.1620 C.2   104  ARG104      0.2617
     94  O         -2.1130   43.7600   46.1750 O.2   104  ARG104     -0.2715
     95  CB        -0.9390   45.5590   44.0320 C.3   104  ARG104      0.0348
     96  CG         0.5690   45.4920   43.8960 C.3   104  ARG104      0.0492
     97  CD         1.2310   46.6320   44.6290 C.3   104  ARG104      0.2205
     98  NE         1.1180   47.9180   43.9380 N.pl3 104  ARG104     -0.0865
     99  CZ         2.0890   48.4760   43.2220 C.cat 104  ARG104      0.5346
    100  NH1        1.9010   49.6540   42.6450 N.pl3 104  ARG104      0.1354
    101  NH2        3.2610   47.8620   43.0830 N.pl3 104  ARG104      0.1354
    102  N         -0.8450   42.2200   45.1650 N.am  105  GLY105     -0.1940
    103  CA        -0.1620   41.5860   44.0420 C.3   105  GLY105      0.2014
    104  C         -0.6950   40.1780   43.8510 C.2   105  GLY105      0.2638
    105  O          0.0750   39.2100   43.8610 O.2   105  GLY105     -0.2714
    106  N         -2.0400   40.0620   43.7220 N.am  106  ALA106     -0.1977
    107  CA        -2.7910   38.8250   43.5200 C.3   106  ALA106      0.1597
    108  C         -2.4960   38.2230   42.1360 C.2   106  ALA106      0.2287
    109  O         -1.9750   38.9080   41.2480 O.2   106  ALA106     -0.2864
    110  CB        -4.2760   39.0910   43.6630 C.3   106  ALA106      0.0319
    111  N         -3.5320   35.9400   35.8320 N.3   109  ARG109     -0.1245
    112  CA        -3.3640   36.3140   34.4190 C.3   109  ARG109      0.1563
    113  C         -3.4490   35.0960   33.4560 C.2   109  ARG109      0.2260
    114  O         -2.4360   34.6530   32.9080 O.2   109  ARG109     -0.2867
    115  CB        -2.0840   37.1460   34.1940 C.3   109  ARG109      0.0307
    116  CG        -2.0180   37.7970   32.7950 C.3   109  ARG109      0.0489
    117  CD        -0.9360   38.8530   32.6150 C.3   109  ARG109      0.2205
    118  NE        -1.0410   39.8880   33.6610 N.pl3 109  ARG109     -0.0865
    119  CZ        -2.0040   40.7990   33.7300 C.cat 109  ARG109      0.5346
    120  NH1       -2.9360   40.8680   32.7820 N.pl3 109  ARG109      0.1354
    121  NH2       -2.0370   41.6620   34.7380 N.pl3 109  ARG109      0.1354
@<TRIPOS>BOND
     1    67    66    1
     2    66    65   ar
     3    66    64   ar
     4    65    63   ar
     5    64    62   ar
     6    63    61   ar
     7    62    61   ar
     8    61    60    1
     9    60    57    1
    10     9    10    1
    11    51    49    1
    12    57    58    1
    13    57    56    1
    14    58    59    2
    15    10    11    1
    16    10    13    1
    17    11    12    2
    18     4     3    2
    19    49    50    1
    20    49    46    1
    21    55    54    2
    22     3     2    1
    23    56    54   am
    24    54    53    1
    25    13    14    1
    26    46    47    1
    27    46    45    1
    28    23    24    1
    29    25    26    2
    30    25    24    1
    31    52    53    1
    32    52    47   am
    33     2     5    1
    34     2     1    1
    35    40    39    2
    36    14    15   ar
    37    14    16   ar
    38    47    48    2
    39    24    27    1
    40     5     6    1
    41    45    39   am
    42    15    17   ar
    43    39    38    1
    44   117   116    1
    45   117   118    1
    46   120   119    1
    47   116   115    1
    48   114   113    2
    49    16    19   ar
    50    16    18   ar
    51    19    21   ar
    52    37    38    1
    53   113   112    1
    54    38    41    1
    55    17    18   ar
    56     6     8   ar
    57     6     7   ar
    58   118   119    2
    59   119   121    1
    60    27    28    1
    61    18    20   ar
    62    33    34    2
    63    33    32    1
    64    21    22   ar
    65    31    32    1
    66    29    28    2
    67   115   112    1
    68   112   111    1
    69    28    30   am
    70    32    35    1
    71    20    22   ar
    72    41    42    1
    73    43    42    2
    74    36    35    1
    75    73    75    1
    76    73    72    1
    77    42    44   am
    78    68    69    1
    79    69    72    1
    80    69    70    1
    81    72    74    1
    82    82    81    1
    83    70    76   am
    84    70    71    2
    85    81    83    1
    86    81    80    1
    87    76    77    1
    88    80    77    1
    89    77    78    1
    90    79    78    2
    91    78    84   am
    92   109   108    2
    93    84    85    1
    94   108   107    1
    95    87    86    2
    96   100    99    1
    97    85    86    1
    98    85    88    1
    99    86    91   am
   100   101    99    1
   101    99    98    2
   102   107   110    1
   103   107   106    1
   104    91    92    1
   105   106   104   am
   106   104   105    2
   107   104   103    1
   108    92    95    1
   109    92    93    1
   110    96    95    1
   111    96    97    1
   112    98    97    1
   113   103   102    1
   114    89    88    1
   115    88    90    1
   116    93   102   am
   117    93    94    2
