@<TRIPOS>MOLECULE
tmp/6dw5A00.pdb
 181 173 0 0 0
SMALL
GASTEIGER

@<TRIPOS>ATOM
      1  N          4.7400    1.7900    2.9640 N.3    37  GLN37      -0.1231
      2  CA         3.7990    2.0680    1.9060 C.3    37  GLN37       0.1698
      3  C          2.6090    1.1230    1.9630 C.2    37  GLN37       0.2592
      4  O          1.4590    1.5950    1.8580 O.2    37  GLN37      -0.2718
      5  CB         4.4680    1.9750    0.5280 C.3    37  GLN37       0.0381
      6  CG         3.5780    2.2350   -0.6950 C.3    37  GLN37       0.0905
      7  CD         3.4210    3.7050   -0.9860 C.2    37  GLN37       0.2608
      8  OE1        4.0460    4.5320   -0.2790 O.2    37  GLN37      -0.2717
      9  NE2        2.6220    4.0690   -1.9980 N.am   37  GLN37      -0.0878
     10  N          2.8930   -0.1640    2.0940 N.am   38  LEU38      -0.1980
     11  CA         1.8760   -1.2010    1.9990 C.3    38  LEU38       0.1596
     12  C          1.4360   -1.7840    3.3230 C.2    38  LEU38       0.2287
     13  O          0.6510   -2.7290    3.3480 O.2    38  LEU38      -0.2864
     14  CB         2.2820   -2.3080    1.0380 C.3    38  LEU38       0.0297
     15  CG         2.4900   -1.7840   -0.4060 C.3    38  LEU38       0.0022
     16  CD1        2.7630   -3.0080   -1.3010 C.3    38  LEU38       0.0001
     17  CD2        1.3210   -0.9440   -0.9300 C.3    38  LEU38       0.0001
     18  N          6.7960    5.3810    2.6400 N.3    52  ARG52      -0.1245
     19  CA         6.1770    6.5150    1.9800 C.3    52  ARG52       0.1563
     20  C          7.1700    7.6140    1.5200 C.2    52  ARG52       0.2260
     21  O          6.8570    8.3920    0.5930 O.2    52  ARG52      -0.2867
     22  CB         5.1070    7.1420    2.8630 C.3    52  ARG52       0.0307
     23  CG         3.9090    6.2580    3.0650 C.3    52  ARG52       0.0489
     24  CD         2.8250    6.6500    2.0480 C.3    52  ARG52       0.2205
     25  NE         1.8710    5.5300    1.9050 N.pl3  52  ARG52      -0.0865
     26  CZ         1.0440    5.3330    0.9110 C.cat  52  ARG52       0.5346
     27  NH1        0.8600    6.2410   -0.0410 N.pl3  52  ARG52       0.1354
     28  NH2        0.3690    4.1760    0.8810 N.pl3  52  ARG52       0.1354
     29  N          2.1470   15.3470   -1.1260 N.3    94  ARG94      -0.1231
     30  CA         0.7750   14.8340   -1.0050 C.3    94  ARG94       0.1694
     31  C          0.6260   13.5730   -0.1690 C.2    94  ARG94       0.2592
     32  O         -0.4900   13.2530    0.1110 O.2    94  ARG94      -0.2718
     33  CB         0.1060   14.5900   -2.3530 C.3    94  ARG94       0.0321
     34  CG         0.7500   13.6200   -3.2340 C.3    94  ARG94       0.0489
     35  CD        -0.2880   13.1420   -4.2460 C.3    94  ARG94       0.2205
     36  NE        -1.1360   12.1470   -3.6610 N.pl3  94  ARG94      -0.0865
     37  CZ        -2.2400   11.6080   -4.1690 C.cat  94  ARG94       0.5346
     38  NH1       -2.6650   11.9360   -5.3280 N.pl3  94  ARG94       0.1354
     39  NH2       -2.8570   10.6710   -3.4800 N.pl3  94  ARG94       0.1354
     40  N          1.6980   12.9230    0.2480 N.am   95  ASN95      -0.1974
     41  CA         1.6290   11.7630    1.1550 C.3    95  ASN95       0.1688
     42  C          1.9690   12.1030    2.6430 C.2    95  ASN95       0.2292
     43  O          2.0920   11.2120    3.4370 O.2    95  ASN95      -0.2864
     44  CB         2.5520   10.6540    0.6290 C.3    95  ASN95       0.1181
     45  CG         1.8980    9.9320   -0.5460 C.2    95  ASN95       0.2629
     46  OD1        1.1720    9.0310   -0.3530 O.2    95  ASN95      -0.2716
     47  ND2        2.1440   10.3960   -1.7990 N.am   95  ASN95      -0.0877
     48  N         -0.2060   10.5560    5.7770 N.3    98  HIS98      -0.1241
     49  CA        -0.3470    9.1410    6.0880 C.3    98  HIS98       0.1621
     50  C          0.1170    8.8710    7.5400 C.2    98  HIS98       0.2264
     51  O          1.0010    9.5290    8.1010 O.2    98  HIS98      -0.2867
     52  CB         0.3780    8.2440    5.0860 C.3    98  HIS98       0.0745
     53  CG        -0.4340    7.9630    3.8690 C.ar   98  HIS98       0.0817
     54  ND1       -1.5630    7.1800    3.9310 N.ar   98  HIS98      -0.2268
     55  CD2       -0.3360    8.3920    2.5980 C.ar   98  HIS98       0.1154
     56  CE1       -2.1130    7.1150    2.7240 C.ar   98  HIS98       0.1986
     57  NE2       -1.4040    7.8390    1.8970 N.ar   98  HIS98      -0.2212
     58  N         -2.5890    2.8580    4.6910 N.3   103  HIS103     -0.1241
     59  CA        -4.0560    2.6320    4.6990 C.3   103  HIS103      0.1621
     60  C         -4.6930    1.9720    5.8850 C.2   103  HIS103      0.2264
     61  O         -5.8610    2.1870    6.1150 O.2   103  HIS103     -0.2867
     62  CB        -4.5910    2.0600    3.4080 C.3   103  HIS103      0.0745
     63  CG        -4.4330    3.0190    2.2810 C.ar  103  HIS103      0.0817
     64  ND1       -5.2890    4.0930    2.0990 N.ar  103  HIS103     -0.2268
     65  CD2       -3.4410    3.1400    1.3550 C.ar  103  HIS103      0.1154
     66  CE1       -4.8520    4.8240    1.0780 C.ar  103  HIS103      0.1986
     67  NE2       -3.7450    4.2540    0.5960 N.ar  103  HIS103     -0.2212
     68  N         -6.4060   11.0100    4.6760 N.3   121  HIS121     -0.1226
     69  CA        -5.0100   11.2660    4.5300 C.3   121  HIS121      0.1752
     70  C         -4.7730   12.5730    3.7520 C.2   121  HIS121      0.2595
     71  O         -3.8100   13.2490    4.0650 O.2   121  HIS121     -0.2718
     72  CB        -4.2050   10.0910    3.9500 C.3   121  HIS121      0.0759
     73  CG        -4.5540    9.7470    2.5390 C.ar  121  HIS121      0.0818
     74  ND1       -4.0810   10.4380    1.4350 N.ar  121  HIS121     -0.2268
     75  CD2       -5.3670    8.7540    2.0610 C.ar  121  HIS121      0.1154
     76  CE1       -4.6150    9.8970    0.3450 C.ar  121  HIS121      0.1986
     77  NE2       -5.4120    8.8890    0.6980 N.ar  121  HIS121     -0.2212
     78  N         -5.6350   12.9250    2.8120 N.am  122  GLU122     -0.1979
     79  CA        -5.5150   14.2000    2.1240 C.3   122  GLU122      0.1602
     80  C         -5.5810   15.4110    3.0530 C.2   122  GLU122      0.2287
     81  O         -4.7550   16.3310    2.9320 O.2   122  GLU122     -0.2864
     82  CB        -6.6080   14.4050    1.0560 C.3   122  GLU122      0.0415
     83  CG        -6.4560   13.5020   -0.1620 C.3   122  GLU122      0.1163
     84  CD        -7.2680   12.1740   -0.0330 C.2   122  GLU122      0.3649
     85  OE1       -7.5450   11.6430    1.1490 O.co2 122  GLU122     -0.2457
     86  OE2       -7.5490   11.6260   -1.1460 O.co2 122  GLU122     -0.2457
     87  N         -3.3870   10.4070  -12.3460 N.3   191  ASP191     -0.1239
     88  CA        -2.3980   11.3070  -11.7650 C.3   191  ASP191      0.1674
     89  C         -1.1220   10.6030  -11.4360 C.2   191  ASP191      0.2266
     90  O         -1.0340    9.3580  -11.4960 O.2   191  ASP191     -0.2867
     91  CB        -2.9450   12.0120  -10.5300 C.3   191  ASP191      0.1410
     92  CG        -3.3340   11.0470   -9.4080 C.2   191  ASP191      0.3668
     93  OD1       -2.5330   10.0570   -9.0410 O.co2 191  ASP191     -0.2456
     94  OD2       -4.4650   11.3040   -8.8810 O.co2 191  ASP191     -0.2456
     95  N          0.6150   10.1630   -8.7260 N.3   193  ASP193     -0.1225
     96  CA         0.7300    9.3350   -7.5490 C.3   193  ASP193      0.1805
     97  C          0.5550    7.8440   -7.8590 C.2   193  ASP193      0.2597
     98  O          1.3750    7.0220   -7.4360 O.2   193  ASP193     -0.2718
     99  CB        -0.2760    9.7640   -6.4400 C.3   193  ASP193      0.1424
    100  CG        -0.0740    9.0040   -5.1500 C.2   193  ASP193      0.3668
    101  OD1        0.6970    9.4580   -4.3250 O.co2 193  ASP193     -0.2456
    102  OD2       -0.6410    7.8770   -4.9380 O.co2 193  ASP193     -0.2456
    103  N         -0.4420    7.5260   -8.6500 N.am  194  LYS194     -0.1979
    104  CA        -0.6770    6.1270   -9.1280 C.3   194  LYS194      0.1596
    105  C          0.5140    5.6570   -9.9490 C.2   194  LYS194      0.2287
    106  O          0.9310    4.5110   -9.8360 O.2   194  LYS194     -0.2864
    107  CB        -1.8860    6.0230  -10.0320 C.3   194  LYS194      0.0298
    108  CG        -3.1730    6.1580   -9.3030 C.3   194  LYS194      0.0038
    109  CD        -4.2780    5.9240  -10.3700 C.3   194  LYS194      0.0206
    110  CE        -5.6580    6.0040   -9.7220 C.3   194  LYS194      0.1093
    111  NZ        -5.9680    7.2880   -9.0430 N.3   194  LYS194     -0.1314
    112  N          3.3000    4.6400   -7.6540 N.3   197  TYR197     -0.1241
    113  CA         3.0890    3.4320   -6.8360 C.3   197  TYR197      0.1605
    114  C          2.9150    2.1750   -7.7150 C.2   197  TYR197      0.2264
    115  O          3.3780    1.1280   -7.3010 O.2   197  TYR197     -0.2867
    116  CB         2.0140    3.5460   -5.7730 C.3   197  TYR197      0.0534
    117  CG         0.5670    3.4490   -6.1490 C.ar  197  TYR197     -0.0201
    118  CD1        0.0350    2.2370   -6.5830 C.ar  197  TYR197     -0.0009
    119  CD2       -0.3200    4.5130   -5.8990 C.ar  197  TYR197     -0.0009
    120  CE1       -1.3110    2.1250   -6.8030 C.ar  197  TYR197      0.0417
    121  CE2       -1.6910    4.4010   -6.1560 C.ar  197  TYR197      0.0417
    122  CZ        -2.1630    3.2100   -6.6170 C.ar  197  TYR197      0.1957
    123  OH        -3.4890    2.9510   -6.9410 O.3   197  TYR197     -0.2866
    124  N          5.5610   -0.2170   -6.2590 N.3   201  ASP201     -0.1239
    125  CA         4.9890   -1.3850   -5.5830 C.3   201  ASP201      0.1674
    126  C          5.3520   -2.6780   -6.3670 C.2   201  ASP201      0.2266
    127  O          5.7450   -3.6780   -5.7590 O.2   201  ASP201     -0.2867
    128  CB         3.4680   -1.2900   -5.4380 C.3   201  ASP201      0.1410
    129  CG         3.0320   -0.1940   -4.4650 C.2   201  ASP201      0.3668
    130  OD1        3.9040    0.4100   -3.7500 O.co2 201  ASP201     -0.2456
    131  OD2        1.7770    0.1010   -4.4850 O.co2 201  ASP201     -0.2456
    132  N         -4.4540   -1.2560  -11.8630 N.3   248  ARG248     -0.1245
    133  CA        -4.7500   -0.8680  -10.5060 C.3   248  ARG248      0.1563
    134  C         -5.6210   -1.9470   -9.8300 C.2   248  ARG248      0.2260
    135  O         -5.3610   -2.3170   -8.6750 O.2   248  ARG248     -0.2867
    136  CB        -5.4520    0.5280  -10.4770 C.3   248  ARG248      0.0307
    137  CG        -5.9110    0.9800   -9.1110 C.3   248  ARG248      0.0489
    138  CD        -6.3490    2.4440   -9.1840 C.3   248  ARG248      0.2205
    139  NE        -6.9260    2.8730   -7.9300 N.pl3 248  ARG248     -0.0865
    140  CZ        -8.1760    2.5550   -7.5640 C.cat 248  ARG248      0.5346
    141  NH1       -9.0070    1.8060   -8.3060 N.pl3 248  ARG248      0.1354
    142  NH2       -8.5960    3.0070   -6.3900 N.pl3 248  ARG248      0.1354
    143  N         -4.7340   -4.3720   -6.5550 N.3   252  HIS252     -0.1241
    144  CA        -5.6540   -4.5400   -5.4290 C.3   252  HIS252      0.1621
    145  C         -5.9790   -6.0140   -5.1630 C.2   252  HIS252      0.2264
    146  O         -5.8610   -6.4710   -3.9870 O.2   252  HIS252     -0.2867
    147  CB        -6.9340   -3.7300   -5.6090 C.3   252  HIS252      0.0745
    148  CG        -6.7760   -2.3060   -5.1920 C.ar  252  HIS252      0.0817
    149  ND1       -6.8760   -1.9050   -3.8680 N.ar  252  HIS252     -0.2268
    150  CD2       -6.3410   -1.2320   -5.8730 C.ar  252  HIS252      0.1154
    151  CE1       -6.6570   -0.5980   -3.8010 C.ar  252  HIS252      0.1986
    152  NE2       -6.3080   -0.1690   -5.0120 N.ar  252  HIS252     -0.2212
    153  N         -2.9280   -5.5570   -2.5260 N.3   256  TYR256     -0.1227
    154  CA        -3.3740   -4.6520   -1.5020 C.3   256  TYR256      0.1736
    155  C         -4.5150   -5.1720   -0.6410 C.2   256  TYR256      0.2595
    156  O         -4.6600   -4.7070    0.4980 O.2   256  TYR256     -0.2718
    157  CB        -3.8000   -3.2810   -2.0870 C.3   256  TYR256      0.0548
    158  CG        -2.8180   -2.6920   -3.0530 C.ar  256  TYR256     -0.0200
    159  CD1       -1.4430   -2.8290   -2.8700 C.ar  256  TYR256     -0.0009
    160  CD2       -3.2610   -2.0080   -4.2040 C.ar  256  TYR256     -0.0009
    161  CE1       -0.5370   -2.2390   -3.8160 C.ar  256  TYR256      0.0417
    162  CE2       -2.3510   -1.4280   -5.1220 C.ar  256  TYR256      0.0417
    163  CZ        -0.9990   -1.5380   -4.9040 C.ar  256  TYR256      0.1957
    164  OH        -0.0510   -0.9970   -5.7830 O.3   256  TYR256     -0.2866
    165  N         -5.3400   -6.0550   -1.2150 N.am  257  GLN257     -0.1979
    166  CA        -6.4620   -6.6840   -0.5670 C.3   257  GLN257      0.1601
    167  C         -6.2550   -8.1820   -0.3350 C.2   257  GLN257      0.2287
    168  O         -7.2170   -8.9400   -0.1800 O.2   257  GLN257     -0.2864
    169  CB        -7.7560   -6.4750   -1.3390 C.3   257  GLN257      0.0394
    170  CG        -8.0900   -5.0410   -1.6940 C.3   257  GLN257      0.0908
    171  CD        -8.1160   -4.1290   -0.4880 C.2   257  GLN257      0.2608
    172  OE1       -8.4020   -4.5280    0.6570 O.2   257  GLN257     -0.2717
    173  NE2       -7.7120   -2.9030   -0.7290 N.am  257  GLN257     -0.0878
    174  N         -3.3360   -6.4090    9.0310 N.3   265  ASP265     -0.1239
    175  CA        -3.7570   -5.0170    9.2480 C.3   265  ASP265      0.1674
    176  C         -4.8320   -4.8780   10.3500 C.2   265  ASP265      0.2266
    177  O         -4.7730   -4.0060   11.2030 O.2   265  ASP265     -0.2867
    178  CB        -4.2120   -4.3340    7.9750 C.3   265  ASP265      0.1410
    179  CG        -3.1160   -3.8500    7.0560 C.2   265  ASP265      0.3668
    180  OD1       -1.9580   -3.6020    7.5000 O.co2 265  ASP265     -0.2456
    181  OD2       -3.4240   -3.6750    5.8100 O.co2 265  ASP265     -0.2456
@<TRIPOS>BOND
     1    87    88    1
     2   132   133    1
     3    88    89    1
     4    88    91    1
     5    90    89    2
     6    91    92    1
     7   133   136    1
     8   133   134    1
     9   136   137    1
    10   109   110    1
    11   109   108    1
    12   107   108    1
    13   107   104    1
    14   105   106    2
    15   105   104    1
    16   134   135    2
    17   110   111    1
    18    92    93   ar
    19    92    94   ar
    20   138   137    1
    21   138   139    1
    22   104   103    1
    23    95    96    1
    24   103    97   am
    25   141   140    1
    26   139   140    2
    27    97    96    1
    28    97    98    2
    29   114   115    2
    30   114   113    1
    31   112   113    1
    32   140   142    1
    33    96    99    1
    34   123   122    1
    35   113   116    1
    36   120   122   ar
    37   120   118   ar
    38   122   121   ar
    39   118   117   ar
    40   143   144    1
    41    99   100    1
    42   126   127    2
    43   126   125    1
    44   124   125    1
    45   121   119   ar
    46   117   119   ar
    47   117   116    1
    48   150   148   ar
    49   150   152   ar
    50   164   163    1
    51   147   144    1
    52   147   148    1
    53   125   128    1
    54   128   129    1
    55   144   145    1
    56    38    37    1
    57   148   149   ar
    58   145   146    2
    59   100   102   ar
    60   100   101   ar
    61   162   163   ar
    62   162   160   ar
    63   152   151   ar
    64   163   161   ar
    65   131   129   ar
    66   129   130   ar
    67    35    36    1
    68    35    34    1
    69   160   158   ar
    70    37    36    2
    71    37    39    1
    72   149   151   ar
    73   161   159   ar
    74    34    33    1
    75   158   159   ar
    76   158   157    1
    77   153   154    1
    78    33    30    1
    79   157   154    1
    80     9     7   am
    81    47    45   am
    82   170   169    1
    83   170   171    1
    84   154   155    1
    85   169   166    1
    86    16    15    1
    87   165   155   am
    88   165   166    1
    89    86    84   ar
    90    29    30    1
    91    30    31    1
    92     7     6    1
    93     7     8    2
    94    17    15    1
    95   173   171   am
    96     6     5    1
    97   155   156    2
    98   166   167    1
    99    45    46    2
   100    45    44    1
   101   171   172    2
   102    15    14    1
   103   167   168    2
   104    31    32    2
   105    31    40   am
   106    83    84    1
   107    83    82    1
   108    27    26    1
   109    84    85   ar
   110    40    41    1
   111    76    77   ar
   112    76    74   ar
   113     5     2    1
   114    21    20    2
   115    67    66   ar
   116    67    65   ar
   117    44    41    1
   118    77    75   ar
   119    28    26    1
   120    26    25    2
   121    14    11    1
   122    82    79    1
   123    66    64   ar
   124    41    42    1
   125    65    63   ar
   126    74    73   ar
   127    20    19    1
   128     4     3    2
   129    57    55   ar
   130    57    56   ar
   131    25    24    1
   132     2     3    1
   133     2     1    1
   134     3    10   am
   135    19    18    1
   136    19    22    1
   137    11    10    1
   138    11    12    1
   139    24    23    1
   140    75    73   ar
   141    64    63   ar
   142    79    78    1
   143    79    80    1
   144    63    62    1
   145    73    72    1
   146    55    53   ar
   147    42    43    2
   148    56    54   ar
   149    78    70   am
   150    22    23    1
   151    81    80    2
   152    12    13    2
   153    62    59    1
   154    70    71    2
   155    70    69    1
   156    53    54   ar
   157    53    52    1
   158    72    69    1
   159    69    68    1
   160    58    59    1
   161    59    60    1
   162    52    49    1
   163    48    49    1
   164   181   179   ar
   165    60    61    2
   166    49    50    1
   167   179   180   ar
   168   179   178    1
   169    50    51    2
   170   178   175    1
   171   174   175    1
   172   175   176    1
   173   176   177    2
