@<TRIPOS>MOLECULE
tmp/6dwdD05.pdb
 233 220 0 0 0
SMALL
GASTEIGER

@<TRIPOS>ATOM
      1  N        -35.6250    5.9030   93.1120 N.3    37  GLN37      -0.1231
      2  CA       -36.5660    6.1730   92.0600 C.3    37  GLN37       0.1698
      3  C        -37.7460    5.2280   92.1050 C.2    37  GLN37       0.2592
      4  O        -38.9110    5.6650   91.9880 O.2    37  GLN37      -0.2718
      5  CB       -35.9070    6.0830   90.6930 C.3    37  GLN37       0.0381
      6  CG       -36.8090    6.3390   89.5080 C.3    37  GLN37       0.0905
      7  CD       -36.9270    7.8100   89.1930 C.2    37  GLN37       0.2608
      8  OE1      -36.3130    8.6490   89.8720 O.2    37  GLN37      -0.2717
      9  NE2      -37.7540    8.1520   88.1760 N.am   37  GLN37      -0.0878
     10  N        -37.4830    3.9350   92.2200 N.am   38  LEU38      -0.1980
     11  CA       -38.5290    2.9280   92.1410 C.3    38  LEU38       0.1596
     12  C        -38.8760    2.2980   93.4900 C.2    38  LEU38       0.2287
     13  O        -39.6340    1.2960   93.5310 O.2    38  LEU38      -0.2864
     14  CB       -38.0880    1.8360   91.1820 C.3    38  LEU38       0.0297
     15  CG       -37.8100    2.3420   89.7630 C.3    38  LEU38       0.0022
     16  CD1      -37.5550    1.1960   88.8050 C.3    38  LEU38       0.0001
     17  CD2      -38.9710    3.2100   89.2330 C.3    38  LEU38       0.0001
     18  N        -39.3420   -1.4280   94.3420 N.3    41  GLY41      -0.1225
     19  CA       -38.8990   -2.1390   93.1490 C.3    41  GLY41       0.1811
     20  C        -37.4480   -2.6850   93.2240 C.2    41  GLY41       0.2280
     21  O        -37.1630   -3.7480   92.6210 O.2    41  GLY41      -0.2866
     22  N        -33.5410    9.4550   92.8220 N.3    52  ARG52      -0.1245
     23  CA       -34.1760   10.5880   92.1840 C.3    52  ARG52       0.1563
     24  C        -33.2120   11.6740   91.7270 C.2    52  ARG52       0.2260
     25  O        -33.5110   12.4460   90.8160 O.2    52  ARG52      -0.2867
     26  CB       -35.2560   11.1960   93.0830 C.3    52  ARG52       0.0307
     27  CG       -36.4700   10.3150   93.2120 C.3    52  ARG52       0.0489
     28  CD       -37.5150   10.6250   92.1720 C.3    52  ARG52       0.2205
     29  NE       -38.4840    9.5450   92.0890 N.pl3  52  ARG52      -0.0865
     30  CZ       -39.3580    9.3800   91.1040 C.cat  52  ARG52       0.5346
     31  NH1      -39.5360   10.2880   90.1650 N.pl3  52  ARG52       0.1354
     32  NH2      -40.0640    8.2360   91.0640 N.pl3  52  ARG52       0.1354
     33  N        -31.9050   10.9370   88.1080 N.3    55  HIS55      -0.1241
     34  CA       -33.0530   11.1640   87.2340 C.3    55  HIS55       0.1621
     35  C        -33.2980   12.6730   87.0040 C.2    55  HIS55       0.2264
     36  O        -33.5180   13.0810   85.8820 O.2    55  HIS55      -0.2867
     37  CB       -34.2760   10.4540   87.7810 C.3    55  HIS55       0.0745
     38  CG       -35.5600   10.8070   87.1300 C.ar   55  HIS55       0.0817
     39  ND1      -35.8020   10.6500   85.7760 N.ar   55  HIS55      -0.2268
     40  CD2      -36.7010   11.2930   87.6660 C.ar   55  HIS55       0.1154
     41  CE1      -37.0420   11.0130   85.5320 C.ar   55  HIS55       0.1986
     42  NE2      -37.6160   11.3860   86.6510 N.ar   55  HIS55      -0.2212
     43  N        -38.2610   19.3700   89.1090 N.3    94  ARG94      -0.1231
     44  CA       -39.5800   18.7800   89.1990 C.3    94  ARG94       0.1694
     45  C        -39.6820   17.4750   89.9670 C.2    94  ARG94       0.2592
     46  O        -40.8090   16.9690   90.0980 O.2    94  ARG94      -0.2718
     47  CB       -40.2310   18.6110   87.8400 C.3    94  ARG94       0.0321
     48  CG       -39.5030   17.6640   86.9150 C.3    94  ARG94       0.0489
     49  CD       -40.5200   17.0810   85.9460 C.3    94  ARG94       0.2205
     50  NE       -41.3640   16.1110   86.6000 N.pl3  94  ARG94      -0.0865
     51  CZ       -42.3870   15.4980   86.0460 C.cat  94  ARG94       0.5346
     52  NH1      -42.7100   15.7610   84.7930 N.pl3  94  ARG94       0.1354
     53  NH2      -43.0420   14.5690   86.7210 N.pl3  94  ARG94       0.1354
     54  N        -38.5500   16.9380   90.4690 N.am   95  ASN95      -0.1974
     55  CA       -38.6050   15.7760   91.3610 C.3    95  ASN95       0.1688
     56  C        -38.3180   16.1020   92.8330 C.2    95  ASN95       0.2292
     57  O        -38.2530   15.2050   93.6630 O.2    95  ASN95      -0.2864
     58  CB       -37.7070   14.6380   90.8650 C.3    95  ASN95       0.1181
     59  CG       -38.3280   13.9250   89.7190 C.2    95  ASN95       0.2629
     60  OD1      -39.1450   13.0560   89.9470 O.2    95  ASN95      -0.2716
     61  ND2      -38.0740   14.4100   88.4530 N.am   95  ASN95      -0.0877
     62  N        -40.5220   14.5460   95.9560 N.3    98  HIS98      -0.1241
     63  CA       -40.6890   13.1230   96.2740 C.3    98  HIS98       0.1621
     64  C        -40.2380   12.8730   97.7040 C.2    98  HIS98       0.2264
     65  O        -39.3170   13.5230   98.2060 O.2    98  HIS98      -0.2867
     66  CB       -40.0360   12.2140   95.2430 C.3    98  HIS98       0.0745
     67  CG       -40.9010   11.9160   94.0740 C.ar   98  HIS98       0.0817
     68  ND1      -42.0350   11.1240   94.1730 N.ar   98  HIS98      -0.2268
     69  CD2      -40.8340   12.3240   92.7880 C.ar   98  HIS98       0.1154
     70  CE1      -42.6090   11.0400   92.9820 C.ar   98  HIS98       0.1986
     71  NE2      -41.9020   11.7500   92.1270 N.ar   98  HIS98      -0.2212
     72  N        -42.9780    6.8390   94.9980 N.3   103  HIS103     -0.1241
     73  CA       -44.4440    6.6500   94.9960 C.3   103  HIS103      0.1621
     74  C        -45.0810    5.9620   96.1990 C.2   103  HIS103      0.2264
     75  O        -46.2470    6.1700   96.4660 O.2   103  HIS103     -0.2867
     76  CB       -44.8890    6.0630   93.6910 C.3   103  HIS103      0.0745
     77  CG       -44.7790    7.0630   92.5730 C.ar  103  HIS103      0.0817
     78  ND1      -45.7830    7.9660   92.2910 N.ar  103  HIS103     -0.2268
     79  CD2      -43.7330    7.3860   91.7610 C.ar  103  HIS103      0.1154
     80  CE1      -45.3810    8.7630   91.3090 C.ar  103  HIS103      0.1986
     81  NE2      -44.1540    8.4050   90.9510 N.ar  103  HIS103     -0.2212
     82  N        -49.1690    5.8220   98.8980 N.3   108  ARG108     -0.1245
     83  CA       -49.6470    4.8470   99.9290 C.3   108  ARG108      0.1563
     84  C        -49.5920    5.4470  101.3000 C.2   108  ARG108      0.2260
     85  O        -50.5700    5.3870  102.0140 O.2   108  ARG108     -0.2867
     86  CB       -48.8450    3.5440   99.8910 C.3   108  ARG108      0.0307
     87  CG       -48.8000    2.7910   98.5720 C.3   108  ARG108      0.0489
     88  CD       -47.9310    1.5600   98.6370 C.3   108  ARG108      0.2205
     89  NE       -47.9010    0.8600   97.3520 N.pl3 108  ARG108     -0.0865
     90  CZ       -48.8720    0.0510   96.9050 C.cat 108  ARG108      0.5346
     91  NH1      -48.8070   -0.5410   95.7250 N.pl3 108  ARG108      0.1354
     92  NH2      -49.9450   -0.1820   97.6660 N.pl3 108  ARG108      0.1354
     93  N        -46.6970   14.9690   94.8470 N.3   121  HIS121     -0.1226
     94  CA       -45.2810   15.2320   94.6640 C.3   121  HIS121      0.1752
     95  C        -45.0610   16.5470   93.8950 C.2   121  HIS121      0.2595
     96  O        -44.0940   17.2510   94.1930 O.2   121  HIS121     -0.2718
     97  CB       -44.5480   14.0360   94.0420 C.3   121  HIS121      0.0759
     98  CG       -44.8600   13.7750   92.5940 C.ar  121  HIS121      0.0818
     99  ND1      -45.6280   12.6880   92.1850 N.ar  121  HIS121     -0.2268
    100  CD2      -44.4790   14.4120   91.4680 C.ar  121  HIS121      0.1154
    101  CE1      -45.6960   12.7060   90.8690 C.ar  121  HIS121      0.1986
    102  NE2      -45.0460   13.7580   90.4160 N.ar  121  HIS121     -0.2212
    103  N        -45.9880   16.8980   92.9760 N.am  122  GLU122     -0.1979
    104  CA       -45.8780   18.1600   92.2620 C.3   122  GLU122      0.1602
    105  C        -45.9410   19.3690   93.1910 C.2   122  GLU122      0.2287
    106  O        -45.1300   20.2890   93.0700 O.2   122  GLU122     -0.2864
    107  CB       -46.9700   18.3170   91.1920 C.3   122  GLU122      0.0415
    108  CG       -46.8270   17.4150   89.9710 C.3   122  GLU122      0.1163
    109  CD       -47.5820   16.0890   90.1040 C.2   122  GLU122      0.3649
    110  OE1      -47.9090   15.6050   91.2740 O.co2 122  GLU122     -0.2457
    111  OE2      -47.8010   15.5170   88.9880 O.co2 122  GLU122     -0.2457
    112  N        -43.3620   19.1350   82.1220 N.3   184  SER184     -0.1217
    113  CA       -44.5180   18.3790   82.5450 C.3   184  SER184      0.1889
    114  C        -45.6850   18.7880   81.6920 C.2   184  SER184      0.2288
    115  O        -46.2870   19.8290   81.9240 O.2   184  SER184     -0.2866
    116  CB       -44.8000   18.6210   83.9940 C.3   184  SER184      0.2089
    117  OG       -45.9450   17.8850   84.3760 O.3   184  SER184     -0.2183
    118  N        -43.5870   14.4590   77.5640 N.3   191  ASP191     -0.1239
    119  CA       -42.5990   15.3330   78.1890 C.3   191  ASP191      0.1674
    120  C        -41.2750   14.6350   78.4380 C.2   191  ASP191      0.2266
    121  O        -41.1910   13.3930   78.3370 O.2   191  ASP191     -0.2867
    122  CB       -43.1500   16.0010   79.4560 C.3   191  ASP191      0.1410
    123  CG       -43.7170   15.0470   80.4410 C.2   191  ASP191      0.3668
    124  OD1      -43.0210   14.0550   80.8010 O.co2 191  ASP191     -0.2456
    125  OD2      -44.8670   15.2960   80.9170 O.co2 191  ASP191     -0.2456
    126  N        -39.5720   14.2620   81.0220 N.3   193  ASP193     -0.1225
    127  CA       -39.4890   13.5140   82.2620 C.3   193  ASP193      0.1805
    128  C        -39.6650   11.9820   82.0080 C.2   193  ASP193      0.2597
    129  O        -38.8870   11.1660   82.4510 O.2   193  ASP193     -0.2718
    130  CB       -40.5080   14.0260   83.2500 C.3   193  ASP193      0.1424
    131  CG       -40.5040   13.2700   84.5200 C.2   193  ASP193      0.3668
    132  OD1      -39.6780   13.6600   85.3720 O.co2 193  ASP193     -0.2456
    133  OD2      -41.3240   12.3130   84.6830 O.co2 193  ASP193     -0.2456
    134  N        -40.6610   11.6520   81.1950 N.am  194  LYS194     -0.1979
    135  CA       -40.9170   10.2810   80.7500 C.3   194  LYS194      0.1596
    136  C        -39.7070    9.7980   79.9760 C.2   194  LYS194      0.2287
    137  O        -39.3030    8.6780   80.1600 O.2   194  LYS194     -0.2864
    138  CB       -42.1360   10.1870   79.8440 C.3   194  LYS194      0.0298
    139  CG       -43.4650   10.3090   80.5480 C.3   194  LYS194      0.0038
    140  CD       -44.5800    9.9910   79.5450 C.3   194  LYS194      0.0206
    141  CE       -45.9680    9.9800   80.2080 C.3   194  LYS194      0.1093
    142  NZ       -46.2920   11.2500   80.8430 N.3   194  LYS194     -0.1314
    143  N        -36.9740    8.7520   82.3990 N.3   197  TYR197     -0.1241
    144  CA       -37.2020    7.5630   83.1710 C.3   197  TYR197      0.1605
    145  C        -37.3230    6.3230   82.3580 C.2   197  TYR197      0.2264
    146  O        -36.9260    5.2330   82.8200 O.2   197  TYR197     -0.2867
    147  CB       -38.2710    7.6770   84.2380 C.3   197  TYR197      0.0534
    148  CG       -39.7040    7.5690   83.8090 C.ar  197  TYR197     -0.0201
    149  CD1      -40.2440    6.3310   83.4440 C.ar  197  TYR197     -0.0009
    150  CD2      -40.5850    8.6610   83.9530 C.ar  197  TYR197     -0.0009
    151  CE1      -41.5960    6.1990   83.1360 C.ar  197  TYR197      0.0417
    152  CE2      -41.9000    8.5390   83.6400 C.ar  197  TYR197      0.0417
    153  CZ       -42.4100    7.3230   83.2390 C.ar  197  TYR197      0.1957
    154  OH       -43.7660    7.1310   82.9100 O.3   197  TYR197     -0.2866
    155  N        -34.7160    3.9010   83.9110 N.3   201  ASP201     -0.1239
    156  CA       -35.2820    2.7340   84.5510 C.3   201  ASP201      0.1674
    157  C        -34.9310    1.4260   83.7810 C.2   201  ASP201      0.2266
    158  O        -34.6140    0.4140   84.3910 O.2   201  ASP201     -0.2867
    159  CB       -36.8180    2.8080   84.6840 C.3   201  ASP201      0.1410
    160  CG       -37.2780    3.9240   85.6430 C.2   201  ASP201      0.3668
    161  OD1      -36.4460    4.5660   86.3850 O.co2 201  ASP201     -0.2456
    162  OD2      -38.5000    4.1940   85.5950 O.co2 201  ASP201     -0.2456
    163  N        -44.6690    2.8450   78.1820 N.3   248  ARG248     -0.1245
    164  CA       -44.9990    3.2220   79.5250 C.3   248  ARG248      0.1563
    165  C        -45.8690    2.1580   80.2380 C.2   248  ARG248      0.2260
    166  O        -45.6310    1.7840   81.4080 O.2   248  ARG248     -0.2867
    167  CB       -45.6760    4.6130   79.5770 C.3   248  ARG248      0.0307
    168  CG       -46.0570    5.0660   80.9550 C.3   248  ARG248      0.0489
    169  CD       -46.5740    6.5040   80.8500 C.3   248  ARG248      0.2205
    170  NE       -47.1610    6.9670   82.0970 N.pl3 248  ARG248     -0.0865
    171  CZ       -48.4040    6.7070   82.4560 C.cat 248  ARG248      0.5346
    172  NH1      -49.2210    5.9490   81.7160 N.pl3 248  ARG248      0.1354
    173  NH2      -48.8640    7.2170   83.5770 N.pl3 248  ARG248      0.1354
    174  N        -44.9340   -0.2770   83.5300 N.3   252  HIS252     -0.1241
    175  CA       -45.8080   -0.5060   84.6580 C.3   252  HIS252      0.1621
    176  C        -46.1720   -1.9760   84.8990 C.2   252  HIS252      0.2264
    177  O        -46.1140   -2.4990   86.0030 O.2   252  HIS252     -0.2867
    178  CB       -47.1230    0.3280   84.5160 C.3   252  HIS252      0.0745
    179  CG       -46.9790    1.7290   85.0090 C.ar  252  HIS252      0.0817
    180  ND1      -47.1130    2.0730   86.3390 N.ar  252  HIS252     -0.2268
    181  CD2      -46.5730    2.8430   84.3710 C.ar  252  HIS252      0.1154
    182  CE1      -46.8920    3.3720   86.4640 C.ar  252  HIS252      0.1986
    183  NE2      -46.5220    3.8560   85.2970 N.ar  252  HIS252     -0.2212
    184  N        -42.6620   -4.0050   85.7300 N.3   255  ALA255     -0.1231
    185  CA       -41.8140   -3.4900   86.8260 C.3   255  ALA255      0.1694
    186  C        -42.5310   -2.7040   87.8970 C.2   255  ALA255      0.2592
    187  O        -42.5760   -3.1460   89.0400 O.2   255  ALA255     -0.2718
    188  CB       -40.6360   -2.6960   86.3160 C.3   255  ALA255      0.0304
    189  N        -43.1500   -1.5790   87.5290 N.am  256  TYR256     -0.1962
    190  CA       -43.5900   -0.6710   88.5710 C.3   256  TYR256      0.1771
    191  C        -44.7670   -1.2300   89.3770 C.2   256  TYR256      0.2619
    192  O        -44.9070   -0.8960   90.5310 O.2   256  TYR256     -0.2715
    193  CB       -43.9340    0.6950   88.0460 C.3   256  TYR256      0.0574
    194  CG       -42.9950    1.2810   87.0170 C.ar  256  TYR256     -0.0198
    195  CD1      -41.6230    1.2210   87.2000 C.ar  256  TYR256     -0.0009
    196  CD2      -43.4830    1.9730   85.9060 C.ar  256  TYR256     -0.0009
    197  CE1      -40.7470    1.8060   86.2680 C.ar  256  TYR256      0.0417
    198  CE2      -42.6280    2.5530   84.9850 C.ar  256  TYR256      0.0417
    199  CZ       -41.2370    2.4710   85.1970 C.ar  256  TYR256      0.1957
    200  OH       -40.3620    2.9990   84.3120 O.3   256  TYR256     -0.2866
    201  N        -45.5890   -2.0630   88.7170 N.am  257  GLN257     -0.1977
    202  CA       -46.6770   -2.7300   89.4310 C.3   257  GLN257      0.1601
    203  C        -46.4520   -4.2010   89.6730 C.2   257  GLN257      0.2287
    204  O        -47.4010   -4.9730   89.9880 O.2   257  GLN257     -0.2864
    205  CB       -47.9720   -2.5370   88.6030 C.3   257  GLN257      0.0394
    206  CG       -48.2800   -1.0890   88.2750 C.3   257  GLN257      0.0908
    207  CD       -48.3830   -0.1860   89.4560 C.2   257  GLN257      0.2608
    208  OE1      -48.6530   -0.6070   90.5930 O.2   257  GLN257     -0.2717
    209  NE2      -48.0860    1.0730   89.2280 N.am  257  GLN257     -0.0878
    210  N        -43.1170   -6.1980   94.3120 N.3   261  GLY261     -0.1210
    211  CA       -42.6550   -4.8590   94.6160 C.3   261  GLY261      0.1956
    212  C        -43.7570   -4.0710   95.3710 C.2   261  GLY261      0.2611
    213  O        -43.4480   -3.3260   96.3220 O.2   261  GLY261     -0.2717
    214  N        -44.9870   -4.2830   94.9280 N.am  262  ASN262     -0.1974
    215  CA       -46.1110   -3.5730   95.5310 C.3   262  ASN262      0.1688
    216  C        -46.3430   -3.9900   96.9970 C.2   262  ASN262      0.2292
    217  O        -46.6260   -3.1220   97.8290 O.2   262  ASN262     -0.2864
    218  CB       -47.3820   -3.7040   94.7050 C.3   262  ASN262      0.1181
    219  CG       -47.3830   -2.8170   93.4420 C.2   262  ASN262      0.2629
    220  OD1      -46.3900   -2.2250   93.0970 O.2   262  ASN262     -0.2716
    221  ND2      -48.5390   -2.7280   92.7570 N.am  262  ASN262     -0.0877
    222  N        -43.6530   -2.3520   99.0920 N.3   265  ASP265     -0.1239
    223  CA       -43.9910   -0.9590   99.3630 C.3   265  ASP265      0.1674
    224  C        -45.1310   -0.8670  100.4640 C.2   265  ASP265      0.2266
    225  O        -45.1760    0.0390  101.2660 O.2   265  ASP265     -0.2867
    226  CB       -44.4480   -0.2550   98.0750 C.3   265  ASP265      0.1410
    227  CG       -43.3230    0.3350   97.2570 C.2   265  ASP265      0.3668
    228  OD1      -42.1800    0.4910   97.7940 O.co2 265  ASP265     -0.2456
    229  OD2      -43.5450    0.7460   96.0780 O.co2 265  ASP265     -0.2456
    230  N        -52.3450    7.8860   80.8000 N.3   390  GLY390     -0.1225
    231  CA       -51.9810    9.1170   81.4660 C.3   390  GLY390      0.1811
    232  C        -53.0360   10.1790   81.4800 C.2   390  GLY390      0.2280
    233  O        -52.8140   11.2240   82.0540 O.2   390  GLY390     -0.2866
@<TRIPOS>BOND
     1   118   119    1
     2   163   164    1
     3   119   120    1
     4   119   122    1
     5   121   120    2
     6   122   123    1
     7   164   167    1
     8   164   165    1
     9   140   141    1
    10   140   139    1
    11   167   168    1
    12   138   139    1
    13   138   135    1
    14   136   137    2
    15   136   135    1
    16   141   142    1
    17   165   166    2
    18   123   124   ar
    19   123   125   ar
    20   135   134    1
    21   230   231    1
    22   169   168    1
    23   169   170    1
    24   126   127    1
    25   134   128   am
    26   231   232    1
    27   232   233    2
    28   114   115    2
    29   114   113    1
    30   172   171    1
    31   128   127    1
    32   128   129    2
    33   170   171    2
    34   112   113    1
    35   127   130    1
    36   145   146    2
    37   145   144    1
    38   143   144    1
    39   171   173    1
    40   113   116    1
    41   154   153    1
    42   151   153   ar
    43   151   149   ar
    44   144   147    1
    45   153   152   ar
    46   130   131    1
    47   149   148   ar
    48   174   175    1
    49   152   150   ar
    50   157   158    2
    51   157   156    1
    52   148   150   ar
    53   148   147    1
    54   155   156    1
    55   116   117    1
    56   200   199    1
    57   181   179   ar
    58   181   183   ar
    59   178   175    1
    60   178   179    1
    61   131   133   ar
    62   131   132   ar
    63   156   159    1
    64   175   176    1
    65   159   160    1
    66    52    51    1
    67   176   177    2
    68   198   199   ar
    69   198   196   ar
    70   179   180   ar
    71   199   197   ar
    72   183   182   ar
    73    41    39   ar
    74    41    42   ar
    75   162   160   ar
    76   160   161   ar
    77   184   185    1
    78    39    38   ar
    79    36    35    2
    80   196   194   ar
    81    49    50    1
    82    49    48    1
    83    51    50    2
    84    51    53    1
    85   197   195   ar
    86   188   185    1
    87   180   182   ar
    88    42    40   ar
    89   185   186    1
    90    48    47    1
    91    35    34    1
    92   194   195   ar
    93   194   193    1
    94    38    40   ar
    95    38    37    1
    96    34    37    1
    97    34    33    1
    98   189   186   am
    99   189   190    1
   100    47    44    1
   101   186   187    2
   102   193   190    1
   103     9     7   am
   104   206   205    1
   105   206   207    1
   106    61    59   am
   107   190   191    1
   108   205   202    1
   109   201   191   am
   110   201   202    1
   111    16    15    1
   112   111   109   ar
   113    43    44    1
   114     7     6    1
   115     7     8    2
   116    44    45    1
   117   209   207   am
   118    17    15    1
   119   191   192    2
   120   202   203    1
   121   207   208    2
   122     6     5    1
   123   203   204    2
   124    59    60    2
   125    59    58    1
   126    15    14    1
   127    45    46    2
   128    45    54   am
   129   108   109    1
   130   108   107    1
   131   109   110   ar
   132    31    30    1
   133   102   101   ar
   134   102   100   ar
   135    54    55    1
   136     5     2    1
   137    25    24    2
   138    58    55    1
   139   101    99   ar
   140    81    80   ar
   141    81    79   ar
   142    32    30    1
   143    30    29    2
   144    14    11    1
   145   107   104    1
   146    80    78   ar
   147    55    56    1
   148   100    98   ar
   149    24    23    1
   150    79    77   ar
   151     4     3    2
   152     2     3    1
   153     2     1    1
   154    29    28    1
   155     3    10   am
   156    71    69   ar
   157    71    70   ar
   158    11    10    1
   159    11    12    1
   160    28    27    1
   161    23    22    1
   162    23    26    1
   163    99    98   ar
   164   104   103    1
   165   104   105    1
   166    78    77   ar
   167    77    76    1
   168    98    97    1
   169    21    20    2
   170   221   219   am
   171    69    67   ar
   172    56    57    2
   173   103    95   am
   174    70    68   ar
   175   106   105    2
   176    26    27    1
   177   220   219    2
   178    19    20    1
   179    19    18    1
   180   219   218    1
   181    12    13    2
   182    76    73    1
   183    95    96    2
   184    95    94    1
   185    97    94    1
   186    67    68   ar
   187    67    66    1
   188   210   211    1
   189   211   212    1
   190    94    93    1
   191   218   215    1
   192   214   212   am
   193   214   215    1
   194    73    72    1
   195    73    74    1
   196    66    63    1
   197   212   213    2
   198   215   216    1
   199    91    90    1
   200    62    63    1
   201   229   227   ar
   202    74    75    2
   203    63    64    1
   204    90    89    2
   205    90    92    1
   206   216   217    2
   207   227   228   ar
   208   227   226    1
   209    89    88    1
   210    64    65    2
   211   226   223    1
   212    87    88    1
   213    87    86    1
   214    82    83    1
   215   222   223    1
   216   223   224    1
   217    86    83    1
   218    83    84    1
   219   224   225    2
   220    84    85    2
