@<TRIPOS>MOLECULE
tmp/6dwiJ00.pdb
 82 79 0 0 0
SMALL
GASTEIGER

@<TRIPOS>ATOM
      1  N         27.5870  -28.5330  -26.9450 N.3    26  PHE26      -0.1227
      2  CA        26.2070  -29.0390  -27.0610 C.3    26  PHE26       0.1736
      3  C         25.8950  -29.5620  -28.4700 C.2    26  PHE26       0.2596
      4  O         26.6870  -29.3400  -29.3850 O.2    26  PHE26      -0.2718
      5  CB        25.1740  -27.9860  -26.5790 C.3    26  PHE26       0.0547
      6  CG        25.0720  -26.7480  -27.4400 C.ar   26  PHE26      -0.0202
      7  CD1       25.9460  -25.6830  -27.2610 C.ar   26  PHE26      -0.0042
      8  CD2       24.0930  -26.6420  -28.4240 C.ar   26  PHE26      -0.0042
      9  CE1       25.8510  -24.5440  -28.0590 C.ar   26  PHE26      -0.0003
     10  CE2       23.9920  -25.4970  -29.2120 C.ar   26  PHE26      -0.0003
     11  CZ        24.8670  -24.4550  -29.0230 C.ar   26  PHE26      -0.0000
     12  N         24.7400  -30.2390  -28.6460 N.am   27  THR27      -0.1953
     13  CA        24.2980  -30.7480  -29.9460 C.3    27  THR27       0.1897
     14  C         23.6830  -29.5740  -30.7390 C.2    27  THR27       0.2313
     15  O         22.4720  -29.3340  -30.6670 O.2    27  THR27      -0.2863
     16  CB        23.3430  -31.9430  -29.7750 C.3    27  THR27       0.1794
     17  OG1       22.2310  -31.5410  -28.9680 O.3    27  THR27      -0.2208
     18  CG2       24.0330  -33.1700  -29.1760 C.3    27  THR27       0.0378
     19  N         20.6870  -29.7200  -34.0180 N.3    30  THR30      -0.1203
     20  CA        19.2480  -29.8640  -33.7420 C.3    30  THR30       0.1994
     21  C         18.6750  -28.7620  -32.7950 C.2    30  THR30       0.2618
     22  O         17.4570  -28.6930  -32.6100 O.2    30  THR30      -0.2717
     23  CB        18.9960  -31.2270  -33.0920 C.3    30  THR30       0.1784
     24  OG1       19.7530  -31.3080  -31.8770 O.3    30  THR30      -0.2211
     25  CG2       19.2970  -32.3970  -34.0260 C.3    30  THR30       0.0376
     26  N         19.5560  -27.9580  -32.1640 N.am   31  ASN31      -0.1960
     27  CA        19.2420  -26.9130  -31.1860 C.3    31  ASN31       0.1819
     28  C         18.8310  -25.5780  -31.8160 C.2    31  ASN31       0.2621
     29  O         19.4220  -25.1410  -32.8070 O.2    31  ASN31      -0.2715
     30  CB        20.4740  -26.6770  -30.3120 C.3    31  ASN31       0.1195
     31  CG        20.2050  -26.2840  -28.8880 C.2    31  ASN31       0.2630
     32  OD1       20.4250  -27.0710  -27.9660 O.2    31  ASN31      -0.2716
     33  ND2       19.7770  -25.0450  -28.6720 N.am   31  ASN31      -0.0877
     34  N         17.8550  -24.8950  -31.1940 N.am   32  ASP32      -0.1971
     35  CA        17.4430  -23.5620  -31.6540 C.3    32  ASP32       0.1709
     36  C         18.5070  -22.5390  -31.2660 C.2    32  ASP32       0.2293
     37  O         19.1800  -22.7190  -30.2420 O.2    32  ASP32      -0.2864
     38  CB        16.0870  -23.1620  -31.0500 C.3    32  ASP32       0.1436
     39  CG        14.9270  -24.0670  -31.4110 C.2    32  ASP32       0.3671
     40  OD1       15.0870  -24.9050  -32.3170 O.co2  32  ASP32      -0.2456
     41  OD2       13.8610  -23.9250  -30.8000 O.co2  32  ASP32      -0.2456
     42  N         21.9140  -19.4220  -26.9430 N.3    97  LYS97      -0.1231
     43  CA        21.5490  -20.8280  -27.0870 C.3    97  LYS97       0.1693
     44  C         20.0510  -20.9440  -26.7070 C.2    97  LYS97       0.2592
     45  O         19.6520  -20.4690  -25.6260 O.2    97  LYS97      -0.2718
     46  CB        22.4070  -21.7100  -26.1420 C.3    97  LYS97       0.0285
     47  CG        22.2380  -23.2000  -26.3790 C.3    97  LYS97       0.0035
     48  CD        22.5450  -24.0380  -25.1320 C.3    97  LYS97       0.0206
     49  CE        22.3200  -25.5230  -25.3600 C.3    97  LYS97       0.1093
     50  NZ        20.8780  -25.8610  -25.4690 N.3    97  LYS97      -0.1314
     51  N         19.2330  -21.5720  -27.6060 N.am   98  ASN98      -0.1960
     52  CA        17.7940  -21.8480  -27.4740 C.3    98  ASN98       0.1819
     53  C         16.9360  -20.7680  -28.1060 C.2    98  ASN98       0.2622
     54  O         17.4590  -19.8130  -28.6690 O.2    98  ASN98      -0.2715
     55  CB        17.3650  -22.1600  -26.0230 C.3    98  ASN98       0.1195
     56  CG        18.0970  -23.3320  -25.3870 C.2    98  ASN98       0.2630
     57  OD1       18.7100  -24.1540  -26.0770 O.2    98  ASN98      -0.2716
     58  ND2       18.0460  -23.4430  -24.0490 N.am   98  ASN98      -0.0877
     59  N         15.6160  -20.9480  -28.0420 N.am   99  SER99      -0.1936
     60  CA        14.6000  -20.0790  -28.6360 C.3    99  SER99       0.2055
     61  C         13.9690  -19.1100  -27.6390 C.2    99  SER99       0.2644
     62  O         13.3920  -18.1050  -28.0470 O.2    99  SER99      -0.2714
     63  CB        13.5040  -20.9390  -29.2580 C.3    99  SER99       0.2130
     64  OG        12.7550  -21.5590  -28.2270 O.3    99  SER99      -0.2179
     65  N         14.0130  -19.4630  -26.3620 N.am  100  GLY100     -0.1939
     66  CA        13.4570  -18.6420  -25.2990 C.3   100  GLY100      0.2014
     67  C         14.2200  -18.6780  -23.9910 C.2   100  GLY100      0.2638
     68  O         14.2700  -17.6650  -23.2850 O.2   100  GLY100     -0.2714
     69  N         14.7500  -19.8630  -23.6170 N.am  101  ILE101     -0.1977
     70  CA        15.4770  -20.0610  -22.3470 C.3   101  ILE101      0.1596
     71  C         16.9580  -19.8360  -22.6660 C.2   101  ILE101      0.2287
     72  O         17.6680  -20.7550  -23.0920 O.2   101  ILE101     -0.2864
     73  CB        15.1560  -21.4520  -21.7250 C.3   101  ILE101      0.0276
     74  CG1       13.6410  -21.6510  -21.5220 C.3   101  ILE101      0.0022
     75  CG2       15.9540  -21.7240  -20.4370 C.3   101  ILE101      0.0022
     76  CD1       13.2100  -23.0930  -21.4730 C.3   101  ILE101      0.0001
     77  N         20.1640  -19.5720  -21.4300 N.3   103  SER103     -0.1217
     78  CA        21.1170  -19.9110  -20.3610 C.3   103  SER103      0.1889
     79  C         22.5110  -19.4910  -20.7410 C.2   103  SER103      0.2288
     80  O         23.2630  -18.9950  -19.8960 O.2   103  SER103     -0.2866
     81  CB        21.0980  -21.4030  -20.0620 C.3   103  SER103      0.2089
     82  OG        19.8290  -21.8000  -19.5820 O.3   103  SER103     -0.2183
@<TRIPOS>BOND
     1    25    23    1
     2    19    20    1
     3    20    23    1
     4    20    21    1
     5    23    24    1
     6    29    28    2
     7    21    22    2
     8    21    26   am
     9    40    39   ar
    10    26    27    1
    11    28    34   am
    12    28    27    1
    13    35    36    1
    14    35    34    1
    15    35    38    1
    16    39    38    1
    17    39    41   ar
    18    36    37    2
    19    27    30    1
    20    14    15    2
    21    14    13    1
    22    30    31    1
    23    13    16    1
    24    13    12    1
    25    16    18    1
    26    16    17    1
    27     4     3    2
    28    63    60    1
    29    63    64    1
    30    10    11   ar
    31    10     8   ar
    32    11     9   ar
    33    31    33   am
    34    31    32    2
    35    54    53    2
    36    12     3   am
    37    60    59    1
    38    60    61    1
    39     3     2    1
    40     8     6   ar
    41    53    59   am
    42    53    52    1
    43     9     7   ar
    44    62    61    2
    45    61    65   am
    46    51    52    1
    47    51    44   am
    48    52    55    1
    49     6     7   ar
    50     6     5    1
    51    43    42    1
    52    43    44    1
    53    43    46    1
    54     2     1    1
    55     2     5    1
    56    44    45    2
    57    47    46    1
    58    47    48    1
    59    65    66    1
    60    57    56    2
    61    55    56    1
    62    50    49    1
    63    56    58   am
    64    49    48    1
    65    66    67    1
    66    67    69   am
    67    67    68    2
    68    69    70    1
    69    72    71    2
    70    71    70    1
    71    70    73    1
    72    73    74    1
    73    73    75    1
    74    74    76    1
    75    77    78    1
    76    79    78    1
    77    79    80    2
    78    78    81    1
    79    81    82    1
