@<TRIPOS>MOLECULE
tmp/6dwiL00.pdb
 82 79 0 0 0
SMALL
GASTEIGER

@<TRIPOS>ATOM
      1  N         88.0570   29.7670   90.6710 N.3    26  PHE26      -0.1227
      2  CA        86.6430   30.1590   90.8370 C.3    26  PHE26       0.1736
      3  C         86.2910   30.7110   92.2430 C.2    26  PHE26       0.2596
      4  O         87.1270   30.6890   93.1510 O.2    26  PHE26      -0.2718
      5  CB        85.6910   28.9940   90.4520 C.3    26  PHE26       0.0547
      6  CG        85.8860   27.7270   91.2520 C.ar   26  PHE26      -0.0202
      7  CD1       85.2310   27.5400   92.4620 C.ar   26  PHE26      -0.0042
      8  CD2       86.7200   26.7170   90.7920 C.ar   26  PHE26      -0.0042
      9  CE1       85.4400   26.3860   93.2120 C.ar   26  PHE26      -0.0003
     10  CE2       86.9190   25.5580   91.5410 C.ar   26  PHE26      -0.0003
     11  CZ        86.2640   25.3940   92.7370 C.ar   26  PHE26      -0.0000
     12  N         85.0320   31.1830   92.4090 N.am   27  THR27      -0.1953
     13  CA        84.4770   31.7260   93.6580 C.3    27  THR27       0.1897
     14  C         83.9630   30.5590   94.5150 C.2    27  THR27       0.2313
     15  O         82.7620   30.2840   94.5410 O.2    27  THR27      -0.2863
     16  CB        83.3880   32.7830   93.3540 C.3    27  THR27       0.1794
     17  OG1       83.7790   33.5870   92.2360 O.3    27  THR27      -0.2208
     18  CG2       83.0830   33.6700   94.5530 C.3    27  THR27       0.0378
     19  N         81.1390   30.8040   97.9260 N.3    30  THR30      -0.1203
     20  CA        79.6980   30.8570   97.6470 C.3    30  THR30       0.1994
     21  C         79.2180   29.6030   96.9100 C.2    30  THR30       0.2618
     22  O         78.0690   29.1910   97.0880 O.2    30  THR30      -0.2717
     23  CB        79.3600   32.1410   96.8670 C.3    30  THR30       0.1784
     24  OG1       80.2750   32.2960   95.7740 O.3    30  THR30      -0.2211
     25  CG2       79.3950   33.3810   97.7450 C.3    30  THR30       0.0376
     26  N         80.1090   29.0190   96.0680 N.am   31  ASN31      -0.1960
     27  CA        79.9150   27.8240   95.2240 C.3    31  ASN31       0.1819
     28  C         79.5820   26.5760   96.0210 C.2    31  ASN31       0.2621
     29  O         80.1970   26.3250   97.0610 O.2    31  ASN31      -0.2715
     30  CB        81.1930   27.5400   94.4210 C.3    31  ASN31       0.1195
     31  CG        80.9870   26.9210   93.0640 C.2    31  ASN31       0.2630
     32  OD1       81.3490   27.4980   92.0360 O.2    31  ASN31      -0.2716
     33  ND2       80.4270   25.7300   93.0150 N.am   31  ASN31      -0.0877
     34  N         78.6530   25.7630   95.5010 N.am   32  ASP32      -0.1971
     35  CA        78.3060   24.4870   96.1140 C.3    32  ASP32       0.1709
     36  C         79.3800   23.4560   95.7400 C.2    32  ASP32       0.2293
     37  O         80.1180   23.6190   94.7570 O.2    32  ASP32      -0.2864
     38  CB        76.9130   23.9970   95.6720 C.3    32  ASP32       0.1436
     39  CG        75.7290   24.8940   96.0240 C.2    32  ASP32       0.3671
     40  OD1       75.9240   25.8750   96.7930 O.co2  32  ASP32      -0.2456
     41  OD2       74.6070   24.6170   95.5330 O.co2  32  ASP32      -0.2456
     42  N         82.6030   20.2890   91.6030 N.3    97  LYS97      -0.1231
     43  CA        82.1740   21.6760   91.6750 C.3    97  LYS97       0.1693
     44  C         80.6660   21.7010   91.3720 C.2    97  LYS97       0.2592
     45  O         80.2170   21.0380   90.4250 O.2    97  LYS97      -0.2718
     46  CB        82.9540   22.4880   90.6180 C.3    97  LYS97       0.0285
     47  CG        82.7690   24.0020   90.6660 C.3    97  LYS97       0.0035
     48  CD        83.3550   24.6620   89.4080 C.3    97  LYS97       0.0206
     49  CE        82.9630   26.1140   89.2630 C.3    97  LYS97       0.1093
     50  NZ        81.5210   26.2830   88.9340 N.3    97  LYS97      -0.1314
     51  N         79.8920   22.4480   92.1960 N.am   98  ASN98      -0.1960
     52  CA        78.4390   22.6960   92.0880 C.3    98  ASN98       0.1819
     53  C         77.5730   21.6060   92.7090 C.2    98  ASN98       0.2622
     54  O         78.0970   20.6020   93.2160 O.2    98  ASN98      -0.2715
     55  CB        77.9980   22.9790   90.6430 C.3    98  ASN98       0.1195
     56  CG        78.8170   24.0190   89.9050 C.2    98  ASN98       0.2630
     57  OD1       79.4950   24.8580   90.5010 O.2    98  ASN98      -0.2716
     58  ND2       78.7810   23.9800   88.5810 N.am   98  ASN98      -0.0877
     59  N         76.2370   21.8270   92.6830 N.am   99  SER99      -0.1936
     60  CA        75.2230   20.9150   93.2220 C.3    99  SER99       0.2055
     61  C         74.7490   19.8480   92.2330 C.2    99  SER99       0.2644
     62  O         74.2630   18.8140   92.6730 O.2    99  SER99      -0.2714
     63  CB        74.0220   21.6960   93.7670 C.3    99  SER99       0.2130
     64  OG        72.8780   21.6540   92.9240 O.3    99  SER99      -0.2179
     65  N         74.8350   20.1190   90.9290 N.am  100  GLY100     -0.1939
     66  CA        74.3310   19.1980   89.9130 C.3   100  GLY100      0.2014
     67  C         74.9600   19.2830   88.5460 C.2   100  GLY100      0.2638
     68  O         74.9260   18.3000   87.8000 O.2   100  GLY100     -0.2714
     69  N         75.4960   20.4670   88.1920 N.am  101  ILE101     -0.1977
     70  CA        76.1810   20.6950   86.9160 C.3   101  ILE101      0.1596
     71  C         77.6600   20.5460   87.2310 C.2   101  ILE101      0.2287
     72  O         78.3330   21.5110   87.5990 O.2   101  ILE101     -0.2864
     73  CB        75.8250   22.0600   86.2470 C.3   101  ILE101      0.0276
     74  CG1       74.3050   22.1820   85.9980 C.3   101  ILE101      0.0022
     75  CG2       76.6170   22.2780   84.9350 C.3   101  ILE101      0.0022
     76  CD1       73.7300   23.5310   86.3450 C.3   101  ILE101      0.0001
     77  N         80.7910   20.2030   85.8510 N.3   103  SER103     -0.1217
     78  CA        81.6550   20.4370   84.6920 C.3   103  SER103      0.1889
     79  C         83.1060   20.1500   85.0650 C.2   103  SER103      0.2288
     80  O         83.9080   19.7950   84.2000 O.2   103  SER103     -0.2866
     81  CB        81.5050   21.8700   84.1790 C.3   103  SER103      0.2089
     82  OG        81.7010   22.8220   85.2150 O.3   103  SER103     -0.2183
@<TRIPOS>BOND
     1    81    78    1
     2    81    82    1
     3    80    79    2
     4    78    79    1
     5    78    77    1
     6    75    73    1
     7    74    73    1
     8    74    76    1
     9    73    70    1
    10    70    71    1
    11    70    69    1
    12    71    72    2
    13    68    67    2
    14    69    67   am
    15    67    66    1
    16    58    56   am
    17    50    49    1
    18    49    48    1
    19    48    47    1
    20    56    57    2
    21    56    55    1
    22    66    65    1
    23    45    44    2
    24     5     2    1
    25     5     6    1
    26    46    47    1
    27    46    43    1
    28    55    52    1
    29     1     2    1
    30     8     6   ar
    31     8    10   ar
    32     2     3    1
    33    65    61   am
    34     6     7   ar
    35    44    43    1
    36    44    51   am
    37    10    11   ar
    38    42    43    1
    39    32    31    2
    40    52    51    1
    41    52    53    1
    42    61    62    2
    43    61    60    1
    44    17    16    1
    45     3    12   am
    46     3     4    2
    47    12    13    1
    48     7     9   ar
    49    59    53   am
    50    59    60    1
    51    53    54    2
    52    11     9   ar
    53    64    63    1
    54    33    31   am
    55    31    30    1
    56    60    63    1
    57    16    13    1
    58    16    18    1
    59    13    14    1
    60    30    27    1
    61    14    15    2
    62    37    36    2
    63    27    28    1
    64    27    26    1
    65    34    28   am
    66    34    35    1
    67    41    39   ar
    68    38    39    1
    69    38    35    1
    70    36    35    1
    71    24    23    1
    72    28    29    2
    73    39    40   ar
    74    26    21   am
    75    23    20    1
    76    23    25    1
    77    21    22    2
    78    21    20    1
    79    20    19    1
