@<TRIPOS>MOLECULE
tmp/6dwkB01.pdb
 236 226 0 0 0
SMALL
GASTEIGER

@<TRIPOS>ATOM
      1  N         28.4860   -5.8120  -35.9370 N.3    37  GLN37      -0.1231
      2  CA        29.3910   -5.0410  -35.1120 C.3    37  GLN37       0.1698
      3  C         30.6470   -5.8010  -34.7480 C.2    37  GLN37       0.2592
      4  O         31.7750   -5.2370  -34.8240 O.2    37  GLN37      -0.2718
      5  CB        28.6830   -4.5690  -33.8600 C.3    37  GLN37       0.0381
      6  CG        29.4860   -3.6620  -32.9190 C.3    37  GLN37       0.0905
      7  CD        29.5000   -2.1890  -33.3190 C.2    37  GLN37       0.2608
      8  OE1       28.8500   -1.7880  -34.3110 O.2    37  GLN37      -0.2717
      9  NE2       30.2800   -1.3610  -32.5870 N.am   37  GLN37      -0.0878
     10  N         30.4960   -7.0440  -34.3370 N.am   38  LEU38      -0.1980
     11  CA        31.6090   -7.8030  -33.7800 C.3    38  LEU38       0.1596
     12  C         32.1560   -8.8710  -34.7330 C.2    38  LEU38       0.2287
     13  O         33.0070   -9.6730  -34.3430 O.2    38  LEU38      -0.2864
     14  CB        31.2630   -8.4370  -32.4420 C.3    38  LEU38       0.0297
     15  CG        30.7970   -7.3410  -31.4320 C.3    38  LEU38       0.0022
     16  CD1       30.5260   -7.8510  -30.0760 C.3    38  LEU38       0.0001
     17  CD2       31.8470   -6.2190  -31.2830 C.3    38  LEU38       0.0001
     18  N         32.8860  -12.5680  -33.7010 N.3    41  GLY41      -0.1225
     19  CA        32.4100  -12.6650  -32.3650 C.3    41  GLY41       0.1811
     20  C         31.0220  -13.2690  -32.1950 C.2    41  GLY41       0.2280
     21  O         30.7550  -13.8840  -31.1890 O.2    41  GLY41      -0.2866
     22  N         26.1340   -2.6650  -37.3030 N.3    52  ARG52      -0.1245
     23  CA        26.6600   -1.3050  -37.2500 C.3    52  ARG52       0.1563
     24  C         25.5950   -0.2260  -37.3210 C.2    52  ARG52       0.2260
     25  O         25.8240    0.8620  -36.8210 O.2    52  ARG52      -0.2867
     26  CB        27.6490   -1.1240  -38.3830 C.3    52  ARG52       0.0307
     27  CG        28.9480   -1.9220  -38.2110 C.3    52  ARG52       0.0489
     28  CD        29.9410   -1.0980  -37.3950 C.3    52  ARG52       0.2205
     29  NE        30.8930   -1.9300  -36.7270 N.pl3  52  ARG52      -0.0865
     30  CZ        31.7800   -1.5040  -35.8220 C.cat  52  ARG52       0.5346
     31  NH1       31.8320   -0.2510  -35.4640 N.pl3  52  ARG52       0.1354
     32  NH2       32.6020   -2.3700  -35.2360 N.pl3  52  ARG52       0.1354
     33  N         24.3820    0.6950  -33.7970 N.3    55  HIS55      -0.1241
     34  CA        25.4700    1.3410  -33.1110 C.3    55  HIS55       0.1621
     35  C         25.5610    2.7730  -33.5890 C.2    55  HIS55       0.2264
     36  O         25.7480    3.6660  -32.7910 O.2    55  HIS55      -0.2867
     37  CB        26.7820    0.5840  -33.3770 C.3    55  HIS55       0.0745
     38  CG        27.9870    1.2990  -32.9350 C.ar   55  HIS55       0.0817
     39  ND1       28.1610    1.7110  -31.6240 N.ar   55  HIS55      -0.2268
     40  CD2       29.0950    1.7000  -33.6110 C.ar   55  HIS55       0.1154
     41  CE1       29.3380    2.3300  -31.5290 C.ar   55  HIS55       0.1986
     42  NE2       29.9230    2.3140  -32.7040 N.ar   55  HIS55      -0.2212
     43  N         30.1260    8.1470  -38.6600 N.3    94  ARG94      -0.1231
     44  CA        31.4690    7.6810  -38.5270 C.3    94  ARG94       0.1694
     45  C         31.7380    6.2220  -38.7820 C.2    94  ARG94       0.2592
     46  O         32.8460    5.8550  -39.0560 O.2    94  ARG94      -0.2718
     47  CB        32.1590    8.1260  -37.2600 C.3    94  ARG94       0.0321
     48  CG        31.7410    7.5320  -36.0140 C.3    94  ARG94       0.0489
     49  CD        32.8100    7.7070  -34.9910 C.3    94  ARG94       0.2205
     50  NE        33.7630    6.6410  -35.0180 N.pl3  94  ARG94      -0.0865
     51  CZ        34.8410    6.5770  -34.2160 C.cat  94  ARG94       0.5346
     52  NH1       35.1590    7.5450  -33.3380 N.pl3  94  ARG94       0.1354
     53  NH2       35.5860    5.5160  -34.3020 N.pl3  94  ARG94       0.1354
     54  N         30.7140    5.4030  -38.7420 N.am   95  ASN95      -0.1974
     55  CA        30.8190    3.9740  -39.0760 C.3    95  ASN95       0.1688
     56  C         30.4640    3.6350  -40.5560 C.2    95  ASN95       0.2292
     57  O         30.4440    2.4630  -40.8740 O.2    95  ASN95      -0.2864
     58  CB        29.9550    3.1660  -38.0600 C.3    95  ASN95       0.1181
     59  CG        30.6320    3.0850  -36.7070 C.2    95  ASN95       0.2629
     60  OD1       31.4520    2.1980  -36.5030 O.2    95  ASN95      -0.2716
     61  ND2       30.3640    4.0470  -35.7910 N.am   95  ASN95      -0.0877
     62  N         32.7720    1.0140  -42.6710 N.3    98  HIS98      -0.1241
     63  CA        33.0520   -0.3610  -42.3130 C.3    98  HIS98       0.1621
     64  C         32.6800   -1.3330  -43.4220 C.2    98  HIS98       0.2264
     65  O         31.7100   -1.1290  -44.1840 O.2    98  HIS98      -0.2867
     66  CB        32.3480   -0.7520  -41.0500 C.3    98  HIS98       0.0745
     67  CG        33.1040   -0.4240  -39.8330 C.ar   98  HIS98       0.0817
     68  ND1       34.3230   -1.0250  -39.5370 N.ar   98  HIS98      -0.2268
     69  CD2       32.8520    0.4590  -38.8360 C.ar   98  HIS98       0.1154
     70  CE1       34.7550   -0.5400  -38.3730 C.ar   98  HIS98       0.1986
     71  NE2       33.8860    0.3580  -37.9340 N.ar   98  HIS98      -0.2212
     72  N         32.0290   -7.8250  -41.7270 N.3   101  PHE101     -0.1227
     73  CA        32.5580   -8.2750  -40.4550 C.3   101  PHE101      0.1736
     74  C         33.3940   -7.2290  -39.7230 C.2   101  PHE101      0.2596
     75  O         34.2040   -7.5910  -38.8340 O.2   101  PHE101     -0.2718
     76  CB        33.2660   -9.6670  -40.5820 C.3   101  PHE101      0.0547
     77  CG        32.3430  -10.7150  -41.1160 C.ar  101  PHE101     -0.0202
     78  CD1       31.4950  -11.4260  -40.2560 C.ar  101  PHE101     -0.0042
     79  CD2       32.1920  -10.8940  -42.4890 C.ar  101  PHE101     -0.0042
     80  CE1       30.5770  -12.3470  -40.7480 C.ar  101  PHE101     -0.0003
     81  CE2       31.3070  -11.8320  -42.9880 C.ar  101  PHE101     -0.0003
     82  CZ        30.4870  -12.5490  -42.1080 C.ar  101  PHE101     -0.0000
     83  N         33.1560   -5.9430  -40.0370 N.am  102  SER102     -0.1938
     84  CA        33.7590   -4.8540  -39.3440 C.3   102  SER102      0.2055
     85  C         35.2860   -4.9930  -39.2880 C.2   102  SER102      0.2643
     86  O         35.8950   -5.0060  -40.3480 O.2   102  SER102     -0.2714
     87  CB        33.1080   -4.6850  -37.9530 C.3   102  SER102      0.2130
     88  OG        31.7630   -4.3170  -38.0640 O.3   102  SER102     -0.2179
     89  N         35.8930   -5.1290  -38.1150 N.am  103  HIS103     -0.1973
     90  CA        37.3610   -5.0930  -38.0030 C.3   103  HIS103      0.1656
     91  C         38.0950   -6.1730  -38.7720 C.2   103  HIS103      0.2291
     92  O         39.2350   -5.9720  -39.1220 O.2   103  HIS103     -0.2864
     93  CB        37.8440   -4.9550  -36.5440 C.3   103  HIS103      0.0771
     94  CG        37.5510   -3.5560  -36.0230 C.ar  103  HIS103      0.0820
     95  ND1       38.3740   -2.4810  -36.3220 N.ar  103  HIS103     -0.2267
     96  CD2       36.4680   -3.0230  -35.3720 C.ar  103  HIS103      0.1154
     97  CE1       37.8520   -1.3740  -35.8150 C.ar  103  HIS103      0.1986
     98  NE2       36.7100   -1.6760  -35.2140 N.ar  103  HIS103     -0.2212
     99  N         42.3320   -7.3440  -41.1200 N.3   108  ARG108     -0.1245
    100  CA        42.9430   -8.5710  -41.6780 C.3   108  ARG108      0.1563
    101  C         42.9060   -8.6510  -43.1780 C.2   108  ARG108      0.2260
    102  O         43.9180   -8.8420  -43.7770 O.2   108  ARG108     -0.2867
    103  CB        42.2970   -9.8270  -41.0920 C.3   108  ARG108      0.0307
    104  CG        42.2960   -9.8820  -39.5790 C.3   108  ARG108      0.0489
    105  CD        41.6020  -11.1080  -39.0250 C.3   108  ARG108      0.2205
    106  NE        41.5920  -11.0640  -37.5520 N.pl3 108  ARG108     -0.0865
    107  CZ        42.5430  -11.6180  -36.7900 C.cat 108  ARG108      0.5346
    108  NH1       42.4690  -11.5500  -35.4820 N.pl3 108  ARG108      0.1354
    109  NH2       43.6170  -12.2140  -37.3070 N.pl3 108  ARG108      0.1354
    110  N         38.7970    2.2310  -42.0810 N.3   121  HIS121     -0.1226
    111  CA        37.3440    2.4300  -42.0880 C.3   121  HIS121      0.1752
    112  C         36.9750    3.9580  -42.0100 C.2   121  HIS121      0.2595
    113  O         36.0440    4.4050  -42.6430 O.2   121  HIS121     -0.2718
    114  CB        36.6590    1.5770  -41.0090 C.3   121  HIS121      0.0759
    115  CG        36.9820    1.9450  -39.5940 C.ar  121  HIS121      0.0818
    116  ND1       36.4130    3.0210  -38.9250 N.ar  121  HIS121     -0.2268
    117  CD2       37.7890    1.3240  -38.6880 C.ar  121  HIS121      0.1154
    118  CE1       36.8940    3.0620  -37.6900 C.ar  121  HIS121      0.1986
    119  NE2       37.7360    2.0420  -37.5200 N.ar  121  HIS121     -0.2212
    120  N         37.7610    4.7440  -41.3010 N.am  122  GLU122     -0.1979
    121  CA        37.6430    6.2040  -41.2870 C.3   122  GLU122      0.1602
    122  C         37.6570    6.8630  -42.6720 C.2   122  GLU122      0.2287
    123  O         36.7780    7.6500  -42.9960 O.2   122  GLU122     -0.2864
    124  CB        38.7880    6.8460  -40.4610 C.3   122  GLU122      0.0415
    125  CG        38.7700    6.5760  -38.9480 C.3   122  GLU122      0.1163
    126  CD        39.5580    5.3550  -38.4600 C.2   122  GLU122      0.3649
    127  OE1       39.8730    4.4240  -39.2700 O.co2 122  GLU122     -0.2457
    128  OE2       39.8450    5.3540  -37.2240 O.co2 122  GLU122     -0.2457
    129  N         31.7060    7.3380  -29.4590 N.3   191  ASP191     -0.1225
    130  CA        31.6710    6.0600  -30.1430 C.3   191  ASP191      0.1805
    131  C         31.9630    4.9040  -29.1060 C.2   191  ASP191      0.2597
    132  O         31.2540    3.9150  -29.0950 O.2   191  ASP191     -0.2718
    133  CB        32.6340    6.0130  -31.3320 C.3   191  ASP191      0.1424
    134  CG        32.5340    4.6800  -32.1390 C.2   191  ASP191      0.3668
    135  OD1       33.2510    3.7290  -31.8090 O.co2 191  ASP191     -0.2456
    136  OD2       31.7590    4.5660  -33.1730 O.co2 191  ASP191     -0.2456
    137  N         32.9760    5.0670  -28.2580 N.am  192  LYS192     -0.1979
    138  CA        33.2590    4.1000  -27.2010 C.3   192  LYS192      0.1596
    139  C         32.1040    3.9510  -26.2580 C.2   192  LYS192      0.2287
    140  O         31.7950    2.8620  -25.8390 O.2   192  LYS192     -0.2864
    141  CB        34.4390    4.4830  -26.3460 C.3   192  LYS192      0.0298
    142  CG        35.7740    4.4100  -27.0450 C.3   192  LYS192      0.0038
    143  CD        36.8670    4.6630  -26.0160 C.3   192  LYS192      0.0206
    144  CE        38.2230    4.4570  -26.6440 C.3   192  LYS192      0.1093
    145  NZ        38.3980    5.2250  -27.8690 N.3   192  LYS192     -0.1314
    146  N         29.4230    1.6760  -27.8190 N.3   195  TYR195     -0.1241
    147  CA        29.7490    0.2530  -27.9540 C.3   195  TYR195      0.1605
    148  C         30.0120   -0.4160  -26.6270 C.2   195  TYR195      0.2264
    149  O         29.6560   -1.5780  -26.4930 O.2   195  TYR195     -0.2867
    150  CB        30.8460   -0.0360  -29.0080 C.3   195  TYR195      0.0534
    151  CG        32.2990    0.1140  -28.6180 C.ar  195  TYR195     -0.0201
    152  CD1       32.8720   -0.6950  -27.6360 C.ar  195  TYR195     -0.0009
    153  CD2       33.1350    1.0360  -29.2800 C.ar  195  TYR195     -0.0009
    154  CE1       34.2000   -0.5890  -27.3250 C.ar  195  TYR195      0.0417
    155  CE2       34.4840    1.1510  -28.9580 C.ar  195  TYR195      0.0417
    156  CZ        35.0090    0.3180  -28.0000 C.ar  195  TYR195      0.1957
    157  OH        36.3190    0.4290  -27.6840 O.3   195  TYR195     -0.2866
    158  N         27.6430   -3.4130  -26.7770 N.3   199  ASP199     -0.1239
    159  CA        28.2860   -4.7260  -26.8570 C.3   199  ASP199      0.1674
    160  C         28.0090   -5.5130  -25.5640 C.2   199  ASP199      0.2266
    161  O         27.6490   -6.6860  -25.6390 O.2   199  ASP199     -0.2867
    162  CB        29.7630   -4.6470  -27.0900 C.3   199  ASP199      0.1410
    163  CG        30.0920   -4.0470  -28.4480 C.2   199  ASP199      0.3668
    164  OD1       29.2240   -3.9600  -29.3560 O.co2 199  ASP199     -0.2456
    165  OD2       31.2740   -3.6420  -28.6000 O.co2 199  ASP199     -0.2456
    166  N         37.6160   -0.9640  -21.4270 N.3   246  ARG246     -0.1245
    167  CA        37.9650   -1.2130  -22.8150 C.3   246  ARG246      0.1563
    168  C         38.9310   -2.3830  -22.9760 C.2   246  ARG246      0.2260
    169  O         38.6670   -3.2640  -23.7410 O.2   246  ARG246     -0.2867
    170  CB        38.5630    0.0430  -23.4380 C.3   246  ARG246      0.0307
    171  CG        38.9670   -0.1560  -24.8840 C.3   246  ARG246      0.0489
    172  CD        39.3000    1.1660  -25.4970 C.3   246  ARG246      0.2205
    173  NE        39.8630    0.9610  -26.8130 N.pl3 246  ARG246     -0.0865
    174  CZ        41.1250    0.6050  -27.0750 C.cat 246  ARG246      0.5346
    175  NH1       42.0610    0.5680  -26.0760 N.pl3 246  ARG246      0.1354
    176  NH2       41.4430    0.3920  -28.3210 N.pl3 246  ARG246      0.1354
    177  N         38.2360   -6.1550  -24.7670 N.3   250  HIS250     -0.1241
    178  CA        39.1340   -6.7460  -25.7230 C.3   250  HIS250      0.1621
    179  C         39.5820   -8.1550  -25.2730 C.2   250  HIS250      0.2264
    180  O         39.5140   -9.0950  -26.0740 O.2   250  HIS250     -0.2867
    181  CB        40.3060   -5.8270  -26.0440 C.3   250  HIS250      0.0745
    182  CG        39.9710   -4.7790  -27.0390 C.ar  250  HIS250      0.0817
    183  ND1       40.0180   -5.0200  -28.3920 N.ar  250  HIS250     -0.2268
    184  CD2       39.5150   -3.5140  -26.8910 C.ar  250  HIS250      0.1154
    185  CE1       39.6240   -3.9280  -29.0370 C.ar  250  HIS250      0.1986
    186  NE2       39.2740   -3.0100  -28.1410 N.ar  250  HIS250     -0.2212
    187  N         36.2100  -10.6130  -25.0680 N.3   253  ALA253     -0.1231
    188  CA        35.3000  -10.7400  -26.1700 C.3   253  ALA253      0.1694
    189  C         35.9510  -10.4370  -27.5280 C.2   253  ALA253      0.2592
    190  O         36.0560  -11.2970  -28.3640 O.2   253  ALA253     -0.2718
    191  CB        34.0710   -9.8680  -25.9300 C.3   253  ALA253      0.0304
    192  N         36.4000   -9.2130  -27.7530 N.am  254  TYR254     -0.1962
    193  CA        36.8090   -8.8690  -29.0980 C.3   254  TYR254      0.1771
    194  C         38.0640   -9.6300  -29.6110 C.2   254  TYR254      0.2619
    195  O         38.1880   -9.7460  -30.8080 O.2   254  TYR254     -0.2715
    196  CB        37.0650   -7.3510  -29.2250 C.3   254  TYR254      0.0574
    197  CG        35.9920   -6.4550  -28.6170 C.ar  254  TYR254     -0.0198
    198  CD1       34.6340   -6.7430  -28.7380 C.ar  254  TYR254     -0.0009
    199  CD2       36.3350   -5.3070  -27.9350 C.ar  254  TYR254     -0.0009
    200  CE1       33.6770   -5.9020  -28.2030 C.ar  254  TYR254      0.0417
    201  CE2       35.3730   -4.4670  -27.3920 C.ar  254  TYR254      0.0417
    202  CZ        34.0580   -4.7540  -27.5200 C.ar  254  TYR254      0.1957
    203  OH        33.1280   -3.8930  -26.9590 O.3   254  TYR254     -0.2866
    204  N         39.0030  -10.0230  -28.7310 N.am  255  GLN255     -0.1977
    205  CA        40.1560  -10.7930  -29.0640 C.3   255  GLN255      0.1601
    206  C         40.0490  -12.2050  -28.5120 C.2   255  GLN255      0.2287
    207  O         41.0760  -12.8640  -28.2420 O.2   255  GLN255     -0.2864
    208  CB        41.4230  -10.1870  -28.4920 C.3   255  GLN255      0.0394
    209  CG        41.6530   -8.7090  -28.8410 C.3   255  GLN255      0.0908
    210  CD        41.6660   -8.4180  -30.3430 C.2   255  GLN255      0.2608
    211  OE1       42.0450   -9.2540  -31.1750 O.2   255  GLN255     -0.2717
    212  NE2       41.2290   -7.2400  -30.6950 N.am  255  GLN255     -0.0878
    213  N         36.9790  -16.4360  -31.6110 N.3   259  GLY259     -0.1210
    214  CA        36.5330  -15.3300  -32.4530 C.3   259  GLY259      0.1956
    215  C         37.5510  -14.8820  -33.4790 C.2   259  GLY259      0.2611
    216  O         37.2350  -14.6660  -34.6480 O.2   259  GLY259     -0.2717
    217  N         38.8050  -14.7270  -33.0570 N.am  260  ASN260     -0.1974
    218  CA        39.8470  -14.3080  -33.9860 C.3   260  ASN260      0.1688
    219  C         40.1540  -15.3530  -35.0400 C.2   260  ASN260      0.2292
    220  O         40.4500  -14.9990  -36.1610 O.2   260  ASN260     -0.2864
    221  CB        41.1200  -13.9080  -33.2180 C.3   260  ASN260      0.1181
    222  CG        40.9760  -12.5700  -32.5080 C.2   260  ASN260      0.2629
    223  OD1       39.9310  -11.9200  -32.6070 O.2   260  ASN260     -0.2716
    224  ND2       42.0090  -12.1500  -31.8190 N.am  260  ASN260     -0.0877
    225  N         37.4610  -15.1320  -37.6280 N.3   263  ASP263     -0.1239
    226  CA        37.7780  -13.9910  -38.5120 C.3   263  ASP263      0.1674
    227  C         38.9230  -14.3010  -39.5090 C.2   263  ASP263      0.2266
    228  O         38.8810  -13.8950  -40.6710 O.2   263  ASP263     -0.2867
    229  CB        38.0790  -12.7250  -37.7180 C.3   263  ASP263      0.1410
    230  CG        36.7950  -11.9780  -37.2340 C.2   263  ASP263      0.3668
    231  OD1       35.6760  -12.1810  -37.8060 O.co2 263  ASP263     -0.2456
    232  OD2       36.8860  -11.1710  -36.2250 O.co2 263  ASP263     -0.2456
    233  N         44.8800    2.9960  -26.1540 N.3   388  GLY388     -0.1225
    234  CA        44.4460    3.7800  -27.2870 C.3   388  GLY388      0.1811
    235  C         45.5360    4.6710  -27.8420 C.2   388  GLY388      0.2280
    236  O         45.3190    5.3150  -28.8760 O.2   388  GLY388     -0.2866
@<TRIPOS>BOND
     1    65    64    2
     2   102   101    2
     3    64    63    1
     4   101   100    1
     5   123   122    2
     6    81    79   ar
     7    81    82   ar
     8   122   121    1
     9    62    63    1
    10   113   112    2
    11    79    77   ar
    12    63    66    1
    13    82    80   ar
    14   111   110    1
    15   111   112    1
    16   111   114    1
    17   112   120   am
    18    72    73    1
    19   100    99    1
    20   100   103    1
    21   120   121    1
    22   121   124    1
    23    77    76    1
    24    77    78   ar
    25   103   104    1
    26    66    67    1
    27   114   115    1
    28    57    56    2
    29    80    78   ar
    30   228   227    2
    31    76    73    1
    32    56    55    1
    33   124   125    1
    34    73    74    1
    35    86    85    2
    36    83    74   am
    37    83    84    1
    38    67    68   ar
    39    67    69   ar
    40    74    75    2
    41   115   116   ar
    42   115   117   ar
    43   104   105    1
    44    68    70   ar
    45   227   226    1
    46    84    85    1
    47    84    87    1
    48    85    89   am
    49   127   126   ar
    50    92    91    2
    51    55    54    1
    52    55    58    1
    53    46    45    2
    54   105   106    1
    55   125   126    1
    56   116   118   ar
    57    69    71   ar
    58    45    54   am
    59    45    44    1
    60    91    90    1
    61   117   119   ar
    62    43    44    1
    63    44    47    1
    64   226   229    1
    65   226   225    1
    66   126   128   ar
    67    26    27    1
    68    26    23    1
    69    70    71   ar
    70    27    28    1
    71    89    90    1
    72    88    87    1
    73    58    59    1
    74    90    93    1
    75   231   230   ar
    76   229   230    1
    77   118   119   ar
    78   106   107    2
    79    28    29    1
    80    24    23    1
    81    24    25    2
    82   109   107    1
    83    22    23    1
    84    47    48    1
    85   230   232   ar
    86   107   108    1
    87    29    30    2
    88    59    60    2
    89    59    61   am
    90    93    94    1
    91    95    94   ar
    92    95    97   ar
    93   220   219    2
    94    94    96   ar
    95    48    49    1
    96     1     2    1
    97    30    31    1
    98    30    32    1
    99    97    98   ar
   100    96    98   ar
   101     2     3    1
   102     2     5    1
   103   219   218    1
   104    50    49    1
   105    50    51    2
   106     4     3    2
   107     3    10   am
   108    12    13    2
   109    12    11    1
   110   216   215    2
   111    10    11    1
   112     8     7    2
   113    53    51    1
   114    51    52    1
   115   218   221    1
   116   218   217    1
   117     5     6    1
   118    33    34    1
   119    11    14    1
   120    18    19    1
   121    40    38   ar
   122    40    42   ar
   123    35    34    1
   124    35    36    2
   125   215   217   am
   126   215   214    1
   127    37    34    1
   128    37    38    1
   129     7     6    1
   130     7     9   am
   131   221   222    1
   132   136   134   ar
   133    38    39   ar
   134    42    41   ar
   135   223   222    2
   136   222   224   am
   137   214   213    1
   138    14    15    1
   139    19    20    1
   140    20    21    2
   141   134   135   ar
   142   134   133    1
   143    39    41   ar
   144    15    17    1
   145    15    16    1
   146   133   130    1
   147   211   210    2
   148   195   194    2
   149   212   210   am
   150   210   209    1
   151   130   129    1
   152   130   131    1
   153   194   193    1
   154   194   204   am
   155   164   163   ar
   156   153   155   ar
   157   153   151   ar
   158   196   193    1
   159   196   197    1
   160   131   132    2
   161   131   137   am
   162   193   192    1
   163   205   204    1
   164   205   206    1
   165   205   208    1
   166   185   183   ar
   167   185   186   ar
   168   150   151    1
   169   150   147    1
   170   155   156   ar
   171   236   235    2
   172   209   208    1
   173   198   197   ar
   174   198   200   ar
   175   151   152   ar
   176   197   199   ar
   177   165   163   ar
   178   206   207    2
   179   163   162    1
   180   183   182   ar
   181   190   189    2
   182   176   174    1
   183   137   138    1
   184   200   202   ar
   185   186   184   ar
   186   156   157    1
   187   156   154   ar
   188   147   146    1
   189   147   148    1
   190   199   201   ar
   191   145   144    1
   192   235   234    1
   193   192   189   am
   194   152   154   ar
   195   189   188    1
   196   202   201   ar
   197   202   203    1
   198   234   233    1
   199   138   141    1
   200   138   139    1
   201   162   159    1
   202   174   173    2
   203   174   175    1
   204   142   141    1
   205   142   143    1
   206   182   184   ar
   207   182   181    1
   208   159   158    1
   209   159   160    1
   210   173   172    1
   211   144   143    1
   212   148   149    2
   213   139   140    2
   214   188   191    1
   215   188   187    1
   216   180   179    2
   217   181   178    1
   218   178   179    1
   219   178   177    1
   220   161   160    2
   221   172   171    1
   222   171   170    1
   223   169   168    2
   224   170   167    1
   225   168   167    1
   226   167   166    1
