@<TRIPOS>MOLECULE
tmp/6dwmC01.pdb
 176 169 0 0 0
SMALL
GASTEIGER

@<TRIPOS>ATOM
      1  N        -13.7050   26.9230   20.8260 N.3    78  ILE78      -0.1231
      2  CA       -13.4120   27.2210   19.4280 C.3    78  ILE78       0.1692
      3  C        -12.0580   27.9120   19.3530 C.2    78  ILE78       0.2592
      4  O        -11.8100   28.8910   20.0680 O.2    78  ILE78      -0.2718
      5  CB       -14.5100   28.1000   18.8050 C.3    78  ILE78       0.0266
      6  CG1      -15.8850   27.4560   18.9920 C.3    78  ILE78       0.0019
      7  CG2      -14.2380   28.3240   17.3260 C.3    78  ILE78       0.0020
      8  CD1      -17.0330   28.3150   18.5070 C.3    78  ILE78       0.0001
      9  N        -11.1820   27.3980   18.4880 N.am   79  SER79      -0.1952
     10  CA        -9.8490   27.9660   18.2750 C.3    79  SER79       0.1924
     11  C         -9.1130   28.1730   19.5990 C.2    79  SER79       0.2314
     12  O         -8.4280   29.1780   19.8030 O.2    79  SER79      -0.2863
     13  CB        -9.9370   29.2800   17.4900 C.3    79  SER79       0.2116
     14  OG       -10.4340   29.0740   16.1770 O.3    79  SER79      -0.2180
     15  N        -14.0740   35.5900   16.0600 N.3    85  SER85      -0.1202
     16  CA       -15.5020   35.8020   15.8750 C.3    85  SER85       0.2020
     17  C        -16.3360   35.3990   17.0790 C.2    85  SER85       0.2618
     18  O        -17.4810   35.8500   17.1980 O.2    85  SER85      -0.2717
     19  CB       -15.9950   35.0180   14.6550 C.3    85  SER85       0.2103
     20  OG       -15.1430   35.2200   13.5440 O.3    85  SER85      -0.2182
     21  N        -15.8180   34.5350   17.9470 N.am   86  PHE86      -0.1975
     22  CA       -16.5940   34.0090   19.0570 C.3    86  PHE86       0.1639
     23  C        -16.0800   34.4220   20.4270 C.2    86  PHE86       0.2290
     24  O        -16.8340   34.3070   21.4010 O.2    86  PHE86      -0.2864
     25  CB       -16.6610   32.4730   18.9790 C.3    86  PHE86       0.0560
     26  CG       -17.4210   31.9670   17.7810 C.ar   86  PHE86      -0.0200
     27  CD1      -18.8020   31.8530   17.8210 C.ar   86  PHE86      -0.0042
     28  CD2      -16.7590   31.6160   16.6150 C.ar   86  PHE86      -0.0042
     29  CE1      -19.5080   31.3950   16.7210 C.ar   86  PHE86      -0.0003
     30  CE2      -17.4600   31.1570   15.5110 C.ar   86  PHE86      -0.0003
     31  CZ       -18.8350   31.0460   15.5650 C.ar   86  PHE86      -0.0000
     32  N        -20.3110   16.4700   11.6130 N.3   185  ASN185     -0.1240
     33  CA       -20.1320   17.9130   11.7480 C.3   185  ASN185      0.1653
     34  C        -21.3970   18.4850   12.3760 C.2   185  ASN185      0.2266
     35  O        -22.3610   18.8260   11.6880 O.2   185  ASN185     -0.2867
     36  CB       -19.8290   18.5650   10.4070 C.3   185  ASN185      0.1155
     37  CG       -18.4070   18.3210    9.9490 C.2   185  ASN185      0.2627
     38  OD1      -18.1570   17.5000    9.0680 O.2   185  ASN185     -0.2716
     39  ND2      -17.4590   19.0060   10.5800 N.am  185  ASN185     -0.0877
     40  N        -21.1770   21.2160   14.2850 N.3   187  PHE187     -0.1241
     41  CA       -20.7740   22.5510   14.7070 C.3   187  PHE187      0.1605
     42  C        -21.9790   23.4790   14.7590 C.2   187  PHE187      0.2264
     43  O        -22.2360   24.1260   15.7800 O.2   187  PHE187     -0.2867
     44  CB       -19.7080   23.0900   13.7550 C.3   187  PHE187      0.0534
     45  CG       -19.1270   24.4060   14.1740 C.ar  187  PHE187     -0.0203
     46  CD1      -19.7490   25.5960   13.8340 C.ar  187  PHE187     -0.0042
     47  CD2      -17.9520   24.4530   14.9060 C.ar  187  PHE187     -0.0042
     48  CE1      -19.2110   26.8080   14.2180 C.ar  187  PHE187     -0.0003
     49  CE2      -17.4090   25.6610   15.2920 C.ar  187  PHE187     -0.0003
     50  CZ       -18.0390   26.8400   14.9490 C.ar  187  PHE187     -0.0000
     51  N        -14.0320   17.9330   17.2730 N.3   217  LEU217     -0.1231
     52  CA       -14.1200   18.5950   15.9770 C.3   217  LEU217      0.1693
     53  C        -13.2120   19.8150   15.9310 C.2   217  LEU217      0.2592
     54  O        -12.5980   20.1060   14.8970 O.2   217  LEU217     -0.2718
     55  CB       -15.5660   18.9880   15.6860 C.3   217  LEU217      0.0284
     56  CG       -15.8330   19.6720   14.3450 C.3   217  LEU217      0.0019
     57  CD1      -15.4640   18.7600   13.1910 C.3   217  LEU217      0.0001
     58  CD2      -17.2930   20.0890   14.2540 C.3   217  LEU217      0.0001
     59  N        -13.1450   20.5670   17.0320 N.am  218  ASN218     -0.1974
     60  CA       -12.2980   21.7520   17.0560 C.3   218  ASN218      0.1688
     61  C        -10.8230   21.3780   17.1480 C.2   218  ASN218      0.2292
     62  O         -9.9850   21.9760   16.4650 O.2   218  ASN218     -0.2864
     63  CB       -12.6940   22.6450   18.2290 C.3   218  ASN218      0.1181
     64  CG       -14.0090   23.3560   17.9950 C.2   218  ASN218      0.2629
     65  OD1      -15.0700   22.8620   18.3760 O.2   218  ASN218     -0.2716
     66  ND2      -13.9500   24.5160   17.3560 N.am  218  ASN218     -0.0877
     67  N         -9.7780   20.5390   13.6840 N.3   221  PHE221     -0.1241
     68  CA        -9.5780   21.7180   12.8490 C.3   221  PHE221      0.1605
     69  C         -8.3410   22.4960   13.2760 C.2   221  PHE221      0.2264
     70  O         -7.6540   23.0900   12.4370 O.2   221  PHE221     -0.2867
     71  CB       -10.8160   22.6130   12.9130 C.3   221  PHE221      0.0534
     72  CG       -11.8300   22.3230   11.8480 C.ar  221  PHE221     -0.0203
     73  CD1      -12.7780   21.3330   12.0310 C.ar  221  PHE221     -0.0042
     74  CD2      -11.8400   23.0450   10.6680 C.ar  221  PHE221     -0.0042
     75  CE1      -13.7140   21.0660   11.0530 C.ar  221  PHE221     -0.0003
     76  CE2      -12.7740   22.7840    9.6860 C.ar  221  PHE221     -0.0003
     77  CZ       -13.7120   21.7940    9.8780 C.ar  221  PHE221     -0.0000
     78  N         -8.5570   30.2140   10.1190 N.3   264  LEU264     -0.1231
     79  CA        -9.4440   29.1310   10.5250 C.3   264  LEU264      0.1693
     80  C        -10.8830   29.6170   10.6360 C.2   264  LEU264      0.2592
     81  O        -11.8150   28.8980   10.2590 O.2   264  LEU264     -0.2718
     82  CB        -8.9670   28.5400   11.8490 C.3   264  LEU264      0.0284
     83  CG        -9.7430   27.3200   12.3470 C.3   264  LEU264      0.0019
     84  CD1       -9.7110   26.2170   11.3040 C.3   264  LEU264      0.0001
     85  CD2       -9.1680   26.8370   13.6730 C.3   264  LEU264      0.0001
     86  N        -11.0860   30.8290   11.1610 N.am  265  ASP265     -0.1974
     87  CA       -12.4250   31.4050   11.1790 C.3   265  ASP265      0.1709
     88  C        -12.9390   31.6240    9.7600 C.2   265  ASP265      0.2293
     89  O        -14.1440   31.5140    9.5100 O.2   265  ASP265     -0.2864
     90  CB       -12.4230   32.7190   11.9640 C.3   265  ASP265      0.1436
     91  CG       -12.1890   32.5110   13.4570 C.2   265  ASP265      0.3671
     92  OD1      -11.5780   31.4880   13.8360 O.co2 265  ASP265     -0.2456
     93  OD2      -12.6270   33.3680   14.2550 O.co2 265  ASP265     -0.2456
     94  N        -13.5340   27.7840    8.0970 N.3   268  GLY268     -0.1210
     95  CA       -14.7430   27.1360    8.5720 C.3   268  GLY268      0.1956
     96  C        -15.9940   27.8000    8.0370 C.2   268  GLY268      0.2611
     97  O        -16.9080   27.1330    7.5490 O.2   268  GLY268     -0.2717
     98  N        -16.0320   29.1310    8.0770 N.am  269  ALA269     -0.1979
     99  CA       -17.1980   29.8410    7.5720 C.3   269  ALA269      0.1597
    100  C        -17.3190   29.7130    6.0610 C.2   269  ALA269      0.2287
    101  O        -18.4360   29.6550    5.5340 O.2   269  ALA269     -0.2864
    102  CB       -17.1300   31.3110    7.9800 C.3   269  ALA269      0.0319
    103  N        -16.4150   27.2140    3.9320 N.3   271  PHE271     -0.1227
    104  CA       -16.8570   25.9340    3.3920 C.3   271  PHE271      0.1736
    105  C        -18.2600   25.5830    3.8740 C.2   271  PHE271      0.2595
    106  O        -19.0650   25.0490    3.1040 O.2   271  PHE271     -0.2718
    107  CB       -15.8550   24.8270    3.7520 C.3   271  PHE271      0.0547
    108  CG       -16.1760   24.0940    5.0250 C.ar  271  PHE271     -0.0202
    109  CD1      -17.0590   23.0270    5.0280 C.ar  271  PHE271     -0.0042
    110  CD2      -15.5720   24.4570    6.2150 C.ar  271  PHE271     -0.0042
    111  CE1      -17.3520   22.3570    6.1980 C.ar  271  PHE271     -0.0003
    112  CE2      -15.8560   23.7850    7.3850 C.ar  271  PHE271     -0.0003
    113  CZ       -16.7440   22.7330    7.3770 C.ar  271  PHE271     -0.0000
    114  N        -18.5790   25.8930    5.1310 N.am  272  ASP272     -0.1960
    115  CA       -19.8230   25.4140    5.7250 C.3   272  ASP272      0.1840
    116  C        -21.0210   26.2170    5.2290 C.2   272  ASP272      0.2622
    117  O        -22.0340   25.6430    4.8140 O.2   272  ASP272     -0.2715
    118  CB       -19.7190   25.4720    7.2520 C.3   272  ASP272      0.1450
    119  CG       -20.8610   24.7540    7.9450 C.2   272  ASP272      0.3671
    120  OD1      -21.0010   23.5270    7.7500 O.co2 272  ASP272     -0.2456
    121  OD2      -21.6120   25.4140    8.6920 O.co2 272  ASP272     -0.2456
    122  N        -20.9260   27.5480    5.2600 N.am  273  THR273     -0.1951
    123  CA       -22.0830   28.3720    4.9310 C.3   273  THR273      0.1897
    124  C        -22.3720   28.3690    3.4340 C.2   273  THR273      0.2313
    125  O        -23.5390   28.3760    3.0250 O.2   273  THR273     -0.2863
    126  CB       -21.8580   29.8000    5.4190 C.3   273  THR273      0.1794
    127  OG1      -20.7620   30.3780    4.7010 O.3   273  THR273     -0.2208
    128  CG2      -21.5330   29.8140    6.8930 C.3   273  THR273      0.0378
    129  N        -29.5640   30.7170    7.9290 N.3   334  VAL334     -0.1245
    130  CA       -28.9220   31.3280    9.0920 C.3   334  VAL334      0.1561
    131  C        -30.0040   32.0910    9.8530 C.2   334  VAL334      0.2260
    132  O        -30.1710   33.3030    9.6480 O.2   334  VAL334     -0.2867
    133  CB       -27.7520   32.2360    8.6900 C.3   334  VAL334      0.0252
    134  CG1      -27.0320   32.7430    9.9270 C.3   334  VAL334      0.0019
    135  CG2      -26.7820   31.4840    7.7960 C.3   334  VAL334      0.0019
    136  N        -30.5070   32.9120   13.1150 N.3   336  PHE336     -0.1227
    137  CA       -30.0000   33.8940   14.0560 C.3   336  PHE336      0.1736
    138  C        -28.5790   34.2630   13.6650 C.2   336  PHE336      0.2596
    139  O        -27.8330   33.4400   13.1240 O.2   336  PHE336     -0.2718
    140  CB       -30.0000   33.3760   15.5040 C.3   336  PHE336      0.0547
    141  CG       -31.3660   33.0940   16.0450 C.ar  336  PHE336     -0.0202
    142  CD1      -32.1550   34.1150   16.5410 C.ar  336  PHE336     -0.0042
    143  CD2      -31.8580   31.8030   16.0700 C.ar  336  PHE336     -0.0042
    144  CE1      -33.4130   33.8540   17.0340 C.ar  336  PHE336     -0.0003
    145  CE2      -33.1140   31.5390   16.5650 C.ar  336  PHE336     -0.0003
    146  CZ       -33.8910   32.5640   17.0490 C.ar  336  PHE336     -0.0000
    147  N        -28.2140   35.5120   13.9260 N.am  337  THR337     -0.1939
    148  CA       -26.8070   35.8500   13.9090 C.3   337  THR337      0.2028
    149  C        -26.1200   35.1210   15.0590 C.2   337  THR337      0.2642
    150  O        -26.7670   34.5160   15.9220 O.2   337  THR337     -0.2714
    151  CB       -26.6030   37.3560   14.0400 C.3   337  THR337      0.1808
    152  OG1      -26.9810   37.7840   15.3530 O.3   337  THR337     -0.2208
    153  CG2      -27.4420   38.1020   13.0140 C.3   337  THR337      0.0379
    154  N        -24.7940   35.1700   15.0680 N.am  338  ILE338     -0.1977
    155  CA       -24.0970   34.7510   16.2870 C.3   338  ILE338      0.1596
    156  C        -24.6070   35.6160   17.4320 C.2   338  ILE338      0.2287
    157  O        -24.8470   36.8250   17.2280 O.2   338  ILE338     -0.2864
    158  CB       -22.5770   34.8930   16.1140 C.3   338  ILE338      0.0276
    159  CG1      -22.0940   34.0680   14.9130 C.3   338  ILE338      0.0022
    160  CG2      -21.8480   34.4470   17.3800 C.3   338  ILE338      0.0022
    161  CD1      -20.6050   34.2320   14.6060 C.3   338  ILE338      0.0001
    162  N        -26.7870   26.9440   13.9190 N.3   448  LEU448     -0.1231
    163  CA       -26.2450   28.2100   13.4300 C.3   448  LEU448      0.1693
    164  C        -26.4230   28.3040   11.9200 C.2   448  LEU448      0.2592
    165  O        -26.8320   29.3420   11.3860 O.2   448  LEU448     -0.2718
    166  CB       -24.7730   28.3420   13.8150 C.3   448  LEU448      0.0284
    167  CG       -24.1290   29.6690   13.4080 C.3   448  LEU448      0.0019
    168  CD1      -24.7670   30.8390   14.1480 C.3   448  LEU448      0.0001
    169  CD2      -22.6280   29.6240   13.6640 C.3   448  LEU448      0.0001
    170  N        -26.0970   27.2220   11.2170 N.am  449  THR449     -0.1953
    171  CA       -26.4490   27.0160    9.8170 C.3   449  THR449      0.1897
    172  C        -27.4030   25.8300    9.7720 C.2   449  THR449      0.2313
    173  O        -27.0440   24.7270   10.1960 O.2   449  THR449     -0.2863
    174  CB       -25.2030   26.7590    8.9700 C.3   449  THR449      0.1794
    175  OG1      -24.4770   25.6470    9.5040 O.3   449  THR449     -0.2208
    176  CG2      -24.3040   27.9800    8.9650 C.3   449  THR449      0.0378
@<TRIPOS>BOND
     1   125   124    2
     2   106   105    2
     3   104   107    1
     4   104   105    1
     5   104   103    1
     6   124   123    1
     7   107   108    1
     8   105   114   am
     9   127   126    1
    10   117   116    2
    11   123   122    1
    12   123   126    1
    13   108   109   ar
    14   108   110   ar
    15   109   111   ar
    16   114   115    1
    17   116   122   am
    18   116   115    1
    19   126   128    1
    20   101   100    2
    21   115   118    1
    22   100    99    1
    23   111   113   ar
    24   110   112   ar
    25   118   119    1
    26   113   112   ar
    27    97    96    2
    28    99   102    1
    29    99    98    1
    30   120   119   ar
    31   135   133    1
    32   129   130    1
    33   119   121   ar
    34    96    98   am
    35    96    95    1
    36    94    95    1
    37   133   130    1
    38   133   134    1
    39   176   174    1
    40   174   175    1
    41   174   171    1
    42    38    37    2
    43   130   131    1
    44    89    88    2
    45   132   131    2
    46    76    77   ar
    47    76    74   ar
    48    88    87    1
    49   172   171    1
    50   172   173    2
    51   171   170    1
    52    77    75   ar
    53    37    36    1
    54    37    39   am
    55    78    79    1
    56    81    80    2
    57    36    33    1
    58    79    80    1
    59    79    82    1
    60    80    86   am
    61    74    72   ar
    62    75    73   ar
    63    86    87    1
    64    87    90    1
    65   170   164   am
    66    84    83    1
    67   165   164    2
    68    32    33    1
    69    35    34    2
    70    33    34    1
    71    72    73   ar
    72    72    71    1
    73    82    83    1
    74   164   163    1
    75    90    91    1
    76    83    85    1
    77    70    69    2
    78    68    71    1
    79    68    69    1
    80    68    67    1
    81   153   151    1
    82   136   137    1
    83   139   138    2
    84    57    56    1
    85   167   169    1
    86   167   166    1
    87   167   168    1
    88   163   166    1
    89   163   162    1
    90    91    92   ar
    91    91    93   ar
    92    20    19    1
    93   138   147   am
    94   138   137    1
    95    44    45    1
    96    44    41    1
    97    46    45   ar
    98    46    48   ar
    99   148   147    1
   100   148   151    1
   101   148   149    1
   102   151   152    1
   103   137   140    1
   104    45    47   ar
   105    48    50   ar
   106    58    56    1
   107    40    41    1
   108    56    55    1
   109   161   159    1
   110    19    16    1
   111    41    42    1
   112    42    43    2
   113    54    53    2
   114    47    49   ar
   115   159   158    1
   116    50    49   ar
   117   149   154   am
   118   149   150    2
   119   154   155    1
   120   140   141    1
   121    30    31   ar
   122    30    28   ar
   123    31    29   ar
   124    55    52    1
   125    16    15    1
   126    16    17    1
   127    53    52    1
   128    53    59   am
   129    52    51    1
   130   141   143   ar
   131   141   142   ar
   132   143   145   ar
   133   158   155    1
   134   158   160    1
   135    14    13    1
   136   155   156    1
   137    62    61    2
   138   142   144   ar
   139   145   146   ar
   140    28    26   ar
   141    29    27   ar
   142    59    60    1
   143   144   146   ar
   144    60    61    1
   145    60    63    1
   146    17    18    2
   147    17    21   am
   148   157   156    2
   149     7     5    1
   150    66    64   am
   151    13    10    1
   152    26    27   ar
   153    26    25    1
   154    21    22    1
   155    64    63    1
   156    64    65    2
   157    10     9    1
   158    10    11    1
   159     9     3   am
   160     8     6    1
   161     5     6    1
   162     5     2    1
   163    25    22    1
   164    22    23    1
   165     3     2    1
   166     3     4    2
   167     2     1    1
   168    11    12    2
   169    23    24    2
