@<TRIPOS>MOLECULE
tmp/6dwnB01.pdb
 209 200 0 0 0
SMALL
GASTEIGER

@<TRIPOS>ATOM
      1  N        -29.1370  -75.9990   -3.7500 N.3    80  ILE80      -0.1231
      2  CA       -29.8240  -76.8890   -2.8210 C.3    80  ILE80       0.1692
      3  C        -31.1760  -76.2760   -2.4820 C.2    80  ILE80       0.2592
      4  O        -31.2490  -75.1400   -1.9970 O.2    80  ILE80      -0.2718
      5  CB       -28.9900  -77.1220   -1.5530 C.3    80  ILE80       0.0266
      6  CG1      -27.6070  -77.6600   -1.9240 C.3    80  ILE80       0.0019
      7  CG2      -29.7040  -78.0900   -0.6210 C.3    80  ILE80       0.0020
      8  CD1      -26.6540  -77.7390   -0.7620 C.3    80  ILE80       0.0001
      9  N        -32.2440  -77.0370   -2.7230 N.am   81  SER81      -0.1952
     10  CA       -33.6040  -76.6070   -2.4040 C.3    81  SER81       0.1924
     11  C        -33.9300  -75.2700   -3.0720 C.2    81  SER81       0.2314
     12  O        -34.4020  -74.3250   -2.4340 O.2    81  SER81      -0.2863
     13  CB       -33.8090  -76.5310   -0.8880 C.3    81  SER81       0.2116
     14  OG       -33.5880  -77.7940   -0.2810 O.3    81  SER81      -0.2180
     15  N        -30.8980  -74.8160    5.8740 N.3    87  SER87      -0.1202
     16  CA       -29.6060  -75.1730    6.4390 C.3    87  SER87       0.2020
     17  C        -28.4470  -74.5080    5.7090 C.2    87  SER87       0.2618
     18  O        -27.4120  -74.2350    6.3280 O.2    87  SER87      -0.2717
     19  CB       -29.4240  -76.6910    6.3890 C.3    87  SER87       0.2103
     20  OG       -30.5760  -77.3610    6.8690 O.3    87  SER87      -0.2182
     21  N        -28.6030  -74.2220    4.4120 N.am   88  PHE88      -0.1975
     22  CA       -27.4930  -73.7810    3.5820 C.3    88  PHE88       0.1639
     23  C        -27.6130  -72.3640    3.0380 C.2    88  PHE88       0.2290
     24  O        -26.5830  -71.7720    2.6930 O.2    88  PHE88      -0.2864
     25  CB       -27.3170  -74.7380    2.3980 C.3    88  PHE88       0.0560
     26  CG       -26.9270  -76.1300    2.7990 C.ar   88  PHE88      -0.0200
     27  CD1      -25.6010  -76.4480    3.0380 C.ar   88  PHE88      -0.0042
     28  CD2      -27.8850  -77.1180    2.9450 C.ar   88  PHE88      -0.0042
     29  CE1      -25.2360  -77.7320    3.4010 C.ar   88  PHE88      -0.0003
     30  CE2      -27.5280  -78.4010    3.3110 C.ar   88  PHE88      -0.0003
     31  CZ       -26.2020  -78.7090    3.5390 C.ar   88  PHE88      -0.0000
     32  N        -24.0610 -101.5500    3.4190 N.3   152  TYR152     -0.1241
     33  CA       -24.5750 -100.2220    3.1010 C.3   152  TYR152      0.1605
     34  C        -25.7630 -100.3110    2.1530 C.2   152  TYR152      0.2264
     35  O        -26.6860  -99.4920    2.2350 O.2   152  TYR152     -0.2867
     36  CB       -23.4730  -99.3510    2.4960 C.3   152  TYR152      0.0534
     37  CG       -23.8430  -97.8810    2.4010 C.ar  152  TYR152     -0.0201
     38  CD1      -24.5300  -97.3780    1.3020 C.ar  152  TYR152     -0.0009
     39  CD2      -23.5000  -96.9960    3.4200 C.ar  152  TYR152     -0.0009
     40  CE1      -24.8680  -96.0360    1.2220 C.ar  152  TYR152      0.0417
     41  CE2      -23.8310  -95.6560    3.3490 C.ar  152  TYR152      0.0417
     42  CZ       -24.5140  -95.1810    2.2500 C.ar  152  TYR152      0.1957
     43  OH       -24.8420  -93.8440    2.1830 O.3   152  TYR152     -0.2866
     44  N        -31.4810  -92.1160   -3.3840 N.3   183  VAL183     -0.1245
     45  CA       -30.6450  -92.0750   -2.1900 C.3   183  VAL183      0.1561
     46  C        -29.2550  -92.6460   -2.4520 C.2   183  VAL183      0.2260
     47  O        -28.2440  -92.0210   -2.1180 O.2   183  VAL183     -0.2867
     48  CB       -31.3180  -92.8060   -1.0000 C.3   183  VAL183      0.0252
     49  CG1      -32.6880  -92.1970   -0.6980 C.3   183  VAL183      0.0019
     50  CG2      -31.4070  -94.3120   -1.2360 C.3   183  VAL183      0.0019
     51  N        -25.2750  -90.7980   -5.6550 N.3   187  ASN187     -0.1225
     52  CA       -25.5610  -89.5230   -5.0020 C.3   187  ASN187      0.1785
     53  C        -24.2610  -88.9300   -4.4710 C.2   187  ASN187      0.2597
     54  O        -23.6260  -89.5090   -3.5820 O.2   187  ASN187     -0.2718
     55  CB       -26.5800  -89.6920   -3.8770 C.3   187  ASN187      0.1169
     56  CG       -27.2930  -88.3940   -3.5460 C.2   187  ASN187      0.2627
     57  OD1      -26.8250  -87.3140   -3.9060 O.2   187  ASN187     -0.2716
     58  ND2      -28.4390  -88.4920   -2.8810 N.am  187  ASN187     -0.0877
     59  N        -23.8820  -87.7660   -5.0020 N.am  188  ASN188     -0.1960
     60  CA       -22.6190  -87.1180   -4.6730 C.3   188  ASN188      0.1819
     61  C        -22.8120  -85.8710   -3.8170 C.2   188  ASN188      0.2621
     62  O        -21.9500  -84.9880   -3.8170 O.2   188  ASN188     -0.2715
     63  CB       -21.8690  -86.7580   -5.9540 C.3   188  ASN188      0.1195
     64  CG       -22.6940  -85.8900   -6.8800 C.2   188  ASN188      0.2630
     65  OD1      -23.9240  -85.8850   -6.8120 O.2   188  ASN188     -0.2716
     66  ND2      -22.0230  -85.1530   -7.7550 N.am  188  ASN188     -0.0877
     67  N        -23.9290  -85.7760   -3.0940 N.am  189  PHE189     -0.1960
     68  CA       -24.1860  -84.5940   -2.2760 C.3   189  PHE189      0.1771
     69  C        -22.9960  -84.2790   -1.3810 C.2   189  PHE189      0.2620
     70  O        -22.5050  -83.1450   -1.3560 O.2   189  PHE189     -0.2715
     71  CB       -25.4460  -84.8000   -1.4380 C.3   189  PHE189      0.0574
     72  CG       -25.8880  -83.5690   -0.7020 C.ar  189  PHE189     -0.0200
     73  CD1      -26.6830  -82.6260   -1.3240 C.ar  189  PHE189     -0.0042
     74  CD2      -25.5070  -83.3540    0.6130 C.ar  189  PHE189     -0.0042
     75  CE1      -27.0940  -81.4870   -0.6500 C.ar  189  PHE189     -0.0003
     76  CE2      -25.9130  -82.2190    1.2910 C.ar  189  PHE189     -0.0003
     77  CZ       -26.7070  -81.2850    0.6570 C.ar  189  PHE189     -0.0000
     78  N        -22.5100  -85.2800   -0.6460 N.am  190  GLY190     -0.1954
     79  CA       -21.4070  -85.0560    0.2700 C.3   190  GLY190      0.1869
     80  C        -20.1000  -84.7080   -0.4080 C.2   190  GLY190      0.2309
     81  O        -19.2620  -84.0290    0.1910 O.2   190  GLY190     -0.2863
     82  N        -24.8730  -83.1580   -9.7180 N.3   216  PHE216     -0.1241
     83  CA       -25.3930  -82.5350   -8.5060 C.3   216  PHE216      0.1605
     84  C        -26.6660  -81.7440   -8.7850 C.2   216  PHE216      0.2264
     85  O        -27.6420  -81.8480   -8.0340 O.2   216  PHE216     -0.2867
     86  CB       -24.3220  -81.6340   -7.8970 C.3   216  PHE216      0.0534
     87  CG       -24.7050  -81.0440   -6.5780 C.ar  216  PHE216     -0.0203
     88  CD1      -24.8470  -81.8480   -5.4660 C.ar  216  PHE216     -0.0042
     89  CD2      -24.9110  -79.6820   -6.4480 C.ar  216  PHE216     -0.0042
     90  CE1      -25.1930  -81.3080   -4.2500 C.ar  216  PHE216     -0.0003
     91  CE2      -25.2580  -79.1360   -5.2340 C.ar  216  PHE216     -0.0003
     92  CZ       -25.3990  -79.9500   -4.1330 C.ar  216  PHE216     -0.0000
     93  N        -29.9190  -84.2860   -9.6440 N.3   219  LEU219     -0.1231
     94  CA       -30.6550  -84.9390   -8.5670 C.3   219  LEU219      0.1693
     95  C        -31.3480  -83.9300   -7.6570 C.2   219  LEU219      0.2592
     96  O        -32.4410  -84.2020   -7.1460 O.2   219  LEU219     -0.2718
     97  CB       -29.7140  -85.8230   -7.7550 C.3   219  LEU219      0.0284
     98  CG       -30.3520  -86.5200   -6.5490 C.3   219  LEU219      0.0019
     99  CD1      -31.6020  -87.3270   -6.8940 C.3   219  LEU219      0.0001
    100  CD2      -29.3280  -87.3970   -5.8460 C.3   219  LEU219      0.0001
    101  N        -30.7350  -82.7660   -7.4300 N.am  220  ASN220     -0.1974
    102  CA       -31.4170  -81.7330   -6.6560 C.3   220  ASN220      0.1688
    103  C        -32.7390  -81.3500   -7.3030 C.2   220  ASN220      0.2292
    104  O        -33.6950  -81.0050   -6.6000 O.2   220  ASN220     -0.2864
    105  CB       -30.5280  -80.4980   -6.4890 C.3   220  ASN220      0.1181
    106  CG       -29.5680  -80.6240   -5.3160 C.2   220  ASN220      0.2629
    107  OD1      -29.9290  -80.3640   -4.1670 O.2   220  ASN220     -0.2716
    108  ND2      -28.3430  -81.0350   -5.6010 N.am  220  ASN220     -0.0877
    109  N        -35.2800  -84.2270   -6.4400 N.3   223  PHE223     -0.1241
    110  CA       -35.7910  -84.0280   -5.0880 C.3   223  PHE223      0.1605
    111  C        -36.8840  -82.9680   -5.0370 C.2   223  PHE223      0.2264
    112  O        -37.9550  -83.1930   -4.4630 O.2   223  PHE223     -0.2867
    113  CB       -34.6300  -83.6490   -4.1630 C.3   223  PHE223      0.0534
    114  CG       -34.1230  -84.7880   -3.3290 C.ar  223  PHE223     -0.0203
    115  CD1      -33.3750  -85.8040   -3.8980 C.ar  223  PHE223     -0.0042
    116  CD2      -34.3550  -84.8190   -1.9640 C.ar  223  PHE223     -0.0042
    117  CE1      -32.8990  -86.8540   -3.1260 C.ar  223  PHE223     -0.0003
    118  CE2      -33.8780  -85.8580   -1.1870 C.ar  223  PHE223     -0.0003
    119  CZ       -33.1460  -86.8770   -1.7700 C.ar  223  PHE223     -0.0000
    120  N        -37.3530  -81.3290    3.3450 N.3   265  LEU265     -0.1231
    121  CA       -36.2910  -81.7710    2.4500 C.3   265  LEU265      0.1693
    122  C        -34.9450  -81.7860    3.1690 C.2   265  LEU265      0.2592
    123  O        -34.1510  -82.7180    2.9910 O.2   265  LEU265     -0.2718
    124  CB       -36.2560  -80.8680    1.2170 C.3   265  LEU265      0.0284
    125  CG       -35.7430  -81.4840   -0.0840 C.3   265  LEU265      0.0019
    126  CD1      -36.5120  -82.7520   -0.4170 C.3   265  LEU265      0.0001
    127  CD2      -35.8680  -80.4830   -1.2170 C.3   265  LEU265      0.0001
    128  N        -34.6800  -80.7740    4.0010 N.am  266  ASP266     -0.1974
    129  CA       -33.4490  -80.7640    4.7860 C.3   266  ASP266      0.1709
    130  C        -33.4700  -81.8610    5.8430 C.2   266  ASP266      0.2293
    131  O        -32.4530  -82.5230    6.0820 O.2   266  ASP266     -0.2864
    132  CB       -33.2550  -79.4020    5.4530 C.3   266  ASP266      0.1436
    133  CG       -33.1500  -78.2700    4.4500 C.2   266  ASP266      0.3671
    134  OD1      -33.1850  -78.5460    3.2310 O.co2 266  ASP266     -0.2456
    135  OD2      -33.0290  -77.1020    4.8850 O.co2 266  ASP266     -0.2456
    136  N        -32.9660  -85.1750    3.9990 N.3   269  GLY269     -0.1210
    137  CA       -31.6290  -85.3220    3.4480 C.3   269  GLY269      0.1956
    138  C        -30.5870  -85.6290    4.5080 C.2   269  GLY269      0.2611
    139  O        -29.7670  -86.5400    4.3480 O.2   269  GLY269     -0.2717
    140  N        -30.6060  -84.8730    5.6080 N.am  270  ALA270     -0.1979
    141  CA       -29.6580  -85.1250    6.6850 C.3   270  ALA270      0.1597
    142  C        -29.9540  -86.4390    7.3910 C.2   270  ALA270      0.2287
    143  O        -29.0300  -87.1080    7.8700 O.2   270  ALA270     -0.2864
    144  CB       -29.6910  -83.9750    7.6840 C.3   270  ALA270      0.0319
    145  N        -31.3060  -89.5990    6.3570 N.3   272  PHE272     -0.1227
    146  CA       -30.8810  -90.8880    5.8250 C.3   272  PHE272      0.1736
    147  C        -29.3810  -90.9270    5.5760 C.2   272  PHE272      0.2595
    148  O        -28.7810  -92.0070    5.6010 O.2   272  PHE272     -0.2718
    149  CB       -31.6540  -91.2200    4.5430 C.3   272  PHE272      0.0547
    150  CG       -31.0980  -90.5780    3.3060 C.ar  272  PHE272     -0.0202
    151  CD1      -30.0960  -91.1990    2.5730 C.ar  272  PHE272     -0.0042
    152  CD2      -31.5920  -89.3630    2.8610 C.ar  272  PHE272     -0.0042
    153  CE1      -29.5870  -90.6110    1.4330 C.ar  272  PHE272     -0.0003
    154  CE2      -31.0890  -88.7700    1.7200 C.ar  272  PHE272     -0.0003
    155  CZ       -30.0850  -89.3960    1.0030 C.ar  272  PHE272     -0.0000
    156  N        -28.7540  -89.7720    5.3610 N.am  273  ASP273     -0.1960
    157  CA       -27.3350  -89.7630    5.0300 C.3   273  ASP273      0.1840
    158  C        -26.4720  -89.9240    6.2740 C.2   273  ASP273      0.2622
    159  O        -25.5910  -90.7910    6.3210 O.2   273  ASP273     -0.2715
    160  CB       -26.9690  -88.4780    4.2880 C.3   273  ASP273      0.1450
    161  CG       -25.5310  -88.4820    3.8040 C.2   273  ASP273      0.3671
    162  OD1      -25.1470  -89.4370    3.0890 O.co2 273  ASP273     -0.2456
    163  OD2      -24.7870  -87.5340    4.1370 O.co2 273  ASP273     -0.2456
    164  N        -26.7080  -89.0930    7.2920 N.am  274  THR274     -0.1951
    165  CA       -25.8250  -89.0760    8.4530 C.3   274  THR274      0.1897
    166  C        -25.9670  -90.3490    9.2780 C.2   274  THR274      0.2313
    167  O        -24.9670  -90.9650    9.6680 O.2   274  THR274     -0.2863
    168  CB       -26.1250  -87.8550    9.3190 C.3   274  THR274      0.1794
    169  OG1      -27.4990  -87.8960    9.7230 O.3   274  THR274     -0.2208
    170  CG2      -25.8650  -86.5620    8.5540 C.3   274  THR274      0.0378
    171  N        -18.2670  -86.6440   10.1080 N.3   335  VAL335     -0.1245
    172  CA       -18.5780  -85.2660    9.7280 C.3   335  VAL335      0.1561
    173  C        -17.4000  -84.4030   10.1710 C.2   335  VAL335      0.2260
    174  O        -17.4910  -83.6980   11.1870 O.2   335  VAL335     -0.2867
    175  CB       -19.9100  -84.7950   10.3310 C.3   335  VAL335      0.0252
    176  CG1      -20.2330  -83.3760    9.8820 C.3   335  VAL335      0.0019
    177  CG2      -21.0270  -85.7360    9.9110 C.3   335  VAL335      0.0019
    178  N        -20.9940  -77.6400    8.7820 N.3   339  ILE339     -0.1245
    179  CA       -21.3300  -76.8250    7.6120 C.3   339  ILE339      0.1561
    180  C        -20.6800  -75.4580    7.7840 C.2   339  ILE339      0.2260
    181  O        -20.6980  -74.9030    8.9020 O.2   339  ILE339     -0.2867
    182  CB       -22.8570  -76.7210    7.4410 C.3   339  ILE339      0.0252
    183  CG1      -23.4370  -78.1210    7.1820 C.3   339  ILE339      0.0019
    184  CG2      -23.2230  -75.7680    6.3000 C.3   339  ILE339      0.0019
    185  CD1      -24.9500  -78.1780    7.1390 C.3   339  ILE339      0.0001
    186  N        -18.8300  -84.1190    3.0690 N.3   449  LEU449     -0.1231
    187  CA       -19.6580  -83.6460    4.1740 C.3   449  LEU449      0.1693
    188  C        -19.8410  -84.7420    5.2150 C.2   449  LEU449      0.2592
    189  O        -19.6210  -84.5220    6.4120 O.2   449  LEU449     -0.2718
    190  CB       -21.0120  -83.1660    3.6570 C.3   449  LEU449      0.0284
    191  CG       -21.9710  -82.6700    4.7430 C.3   449  LEU449      0.0019
    192  CD1      -21.3370  -81.5560    5.5490 C.3   449  LEU449      0.0001
    193  CD2      -23.2810  -82.2010    4.1400 C.3   449  LEU449      0.0001
    194  N        -20.2490  -85.9300    4.7740 N.am  450  THR450     -0.1953
    195  CA       -20.3200  -87.1170    5.6240 C.3   450  THR450      0.1897
    196  C        -19.3670  -88.1440    5.0210 C.2   450  THR450      0.2313
    197  O        -19.6870  -88.7740    4.0100 O.2   450  THR450     -0.2863
    198  CB       -21.7440  -87.6640    5.7150 C.3   450  THR450      0.1794
    199  OG1      -22.2230  -87.9850    4.4050 O.3   450  THR450     -0.2208
    200  CG2      -22.6750  -86.6360    6.3440 C.3   450  THR450      0.0378
    201  N        -17.6130  -91.2340    3.8340 N.3   452  LYS452     -0.1245
    202  CA       -18.0060  -92.6140    3.6070 C.3   452  LYS452      0.1561
    203  C        -16.7610  -93.5000    3.6020 C.2   452  LYS452      0.2260
    204  O        -15.6420  -93.0450    3.8480 O.2   452  LYS452     -0.2867
    205  CB       -18.7740  -92.7350    2.2890 C.3   452  LYS452      0.0271
    206  CG       -19.9730  -91.7910    2.1560 C.3   452  LYS452      0.0035
    207  CD       -21.2470  -92.3900    2.7280 C.3   452  LYS452      0.0206
    208  CE       -22.4740  -91.5970    2.2940 C.3   452  LYS452      0.1093
    209  NZ       -22.5120  -90.2310    2.8790 N.3   452  LYS452     -0.1314
@<TRIPOS>BOND
     1    82    83    1
     2    93    94    1
     3    84    83    1
     4    84    85    2
     5    94    97    1
     6    94    95    1
     7    83    86    1
     8    86    87    1
     9    97    98    1
    10    66    64   am
    11    95   101   am
    12    95    96    2
    13   101   102    1
    14   103   102    1
    15   103   104    2
    16    99    98    1
    17    64    65    2
    18    64    63    1
    19   102   105    1
    20    87    89   ar
    21    87    88   ar
    22    98   100    1
    23   105   106    1
    24    89    91   ar
    25   109   110    1
    26    63    60    1
    27    51    52    1
    28   108   106   am
    29    88    90   ar
    30   106   107    2
    31    91    92   ar
    32   110   111    1
    33   110   113    1
    34   111   112    2
    35    52    53    1
    36    52    55    1
    37    59    60    1
    38    59    53   am
    39    60    61    1
    40    53    54    2
    41    90    92   ar
    42   113   114    1
    43    57    56    2
    44   115   114   ar
    45   115   117   ar
    46    55    56    1
    47    61    62    2
    48    61    67   am
    49     1     2    1
    50    56    58   am
    51    44    45    1
    52   114   116   ar
    53   117   119   ar
    54    67    68    1
    55    11    12    2
    56    11    10    1
    57     2     3    1
    58     2     5    1
    59     9     3   am
    60     9    10    1
    61     3     4    2
    62    46    45    1
    63    46    47    2
    64    10    13    1
    65    68    71    1
    66    68    69    1
    67    45    48    1
    68   116   118   ar
    69     6     5    1
    70     6     8    1
    71   119   118   ar
    72     5     7    1
    73    71    72    1
    74    69    70    2
    75    69    78   am
    76    73    72   ar
    77    73    75   ar
    78    50    48    1
    79   127   125    1
    80    48    49    1
    81    13    14    1
    82    72    74   ar
    83    75    77   ar
    84    78    79    1
    85   126   125    1
    86    80    81    2
    87    80    79    1
    88   125   124    1
    89    74    76   ar
    90    77    76   ar
    91   155   153   ar
    92   155   154   ar
    93   124   121    1
    94    40    38   ar
    95    40    42   ar
    96    38    37   ar
    97   153   151   ar
    98   154   152   ar
    99    34    35    2
   100    34    33    1
   101   206   205    1
   102   206   207    1
   103    43    42    1
   104    42    41   ar
   105   205   202    1
   106   208   207    1
   107   208   209    1
   108    25    26    1
   109    25    22    1
   110    37    36    1
   111    37    39   ar
   112   121   122    1
   113   121   120    1
   114    36    33    1
   115   151   150   ar
   116    24    23    2
   117    26    28   ar
   118    26    27   ar
   119   152   150   ar
   120    28    30   ar
   121   123   122    2
   122    23    22    1
   123    27    29   ar
   124   186   187    1
   125   162   161   ar
   126    33    32    1
   127   122   128   am
   128   134   133   ar
   129   150   149    1
   130    30    31   ar
   131    41    39   ar
   132    29    31   ar
   133   137   136    1
   134   137   138    1
   135    22    21    1
   136   203   202    1
   137   203   204    2
   138   202   201    1
   139   190   187    1
   140   190   191    1
   141   161   163   ar
   142   161   160    1
   143   128   129    1
   144   197   196    2
   145   193   191    1
   146   187   188    1
   147   160   157    1
   148   139   138    2
   149   199   198    1
   150    21    17   am
   151   133   135   ar
   152   133   132    1
   153   138   140   am
   154   149   146    1
   155   191   192    1
   156   194   188   am
   157   194   195    1
   158   129   132    1
   159   129   130    1
   160   196   195    1
   161   157   156    1
   162   157   158    1
   163   188   189    2
   164   156   147   am
   165   147   148    2
   166   147   146    1
   167   140   141    1
   168   195   198    1
   169    17    18    2
   170    17    16    1
   171   198   200    1
   172   146   145    1
   173   130   131    2
   174    15    16    1
   175   158   159    2
   176   158   164   am
   177   184   182    1
   178    19    16    1
   179    19    20    1
   180   141   142    1
   181   141   144    1
   182   185   183    1
   183   183   182    1
   184   164   165    1
   185   142   143    2
   186   182   179    1
   187   179   180    1
   188   179   178    1
   189   180   181    2
   190   165   166    1
   191   165   168    1
   192   170   168    1
   193   166   167    2
   194   168   169    1
   195   172   171    1
   196   172   173    1
   197   172   175    1
   198   176   175    1
   199   177   175    1
   200   173   174    2
