@<TRIPOS>MOLECULE
tmp/6dwnD01.pdb
 162 154 0 0 0
SMALL
GASTEIGER

@<TRIPOS>ATOM
      1  N        -11.6890  -80.8050   68.5250 N.3    78  ILE78      -0.1231
      2  CA       -11.3620  -81.6750   67.4010 C.3    78  ILE78       0.1692
      3  C        -10.1820  -81.0760   66.6460 C.2    78  ILE78       0.2592
      4  O        -10.2310  -79.9170   66.2170 O.2    78  ILE78      -0.2718
      5  CB       -12.5690  -81.8620   66.4670 C.3    78  ILE78       0.0266
      6  CG1      -13.7760  -82.3890   67.2460 C.3    78  ILE78       0.0019
      7  CG2      -12.2160  -82.8190   65.3380 C.3    78  ILE78       0.0020
      8  CD1      -15.0610  -82.4290   66.4390 C.3    78  ILE78       0.0001
      9  N         -9.1210  -81.8680   66.4900 N.am   79  SER79      -0.1952
     10  CA        -7.9380  -81.4700   65.7240 C.3    79  SER79       0.1924
     11  C         -7.3590  -80.1540   66.2410 C.2    79  SER79       0.2314
     12  O         -7.0900  -79.2230   65.4780 O.2    79  SER79      -0.2863
     13  CB        -8.2620  -81.3710   64.2300 C.3    79  SER79       0.2116
     14  OG        -8.7190  -82.6100   63.7160 O.3    79  SER79      -0.2180
     15  N        -13.2260  -79.7660   58.7550 N.3    85  SER85      -0.1202
     16  CA       -14.6350  -80.1160   58.6300 C.3    85  SER85       0.2020
     17  C        -15.4890  -79.4990   59.7280 C.2    85  SER85       0.2618
     18  O        -16.6790  -79.2450   59.5060 O.2    85  SER85      -0.2717
     19  CB       -14.7980  -81.6370   58.6370 C.3    85  SER85       0.2103
     20  OG       -13.8980  -82.2510   57.7280 O.3    85  SER85      -0.2182
     21  N        -14.9130  -79.2420   60.9060 N.am   86  PHE86      -0.1975
     22  CA       -15.6980  -78.8460   62.0660 C.3    86  PHE86       0.1639
     23  C        -15.4310  -77.4290   62.5560 C.2    86  PHE86       0.2290
     24  O        -16.2930  -76.8630   63.2370 O.2    86  PHE86      -0.2864
     25  CB       -15.4520  -79.8210   63.2280 C.3    86  PHE86       0.0560
     26  CG       -15.8920  -81.2280   62.9370 C.ar   86  PHE86      -0.0200
     27  CD1      -17.2200  -81.5960   63.0780 C.ar   86  PHE86      -0.0042
     28  CD2      -14.9750  -82.1860   62.5310 C.ar   86  PHE86      -0.0042
     29  CE1      -17.6270  -82.8910   62.8100 C.ar   86  PHE86      -0.0003
     30  CE2      -15.3750  -83.4840   62.2640 C.ar   86  PHE86      -0.0003
     31  CZ       -16.7020  -83.8370   62.4040 C.ar   86  PHE86      -0.0000
     32  N        -14.4550  -95.4300   71.4510 N.3   175  ASN175     -0.1240
     33  CA       -14.4950  -94.0890   70.8860 C.3   175  ASN175      0.1653
     34  C        -15.9360  -93.6050   70.8110 C.2   175  ASN175      0.2266
     35  O        -16.7810  -94.2370   70.1680 O.2   175  ASN175     -0.2867
     36  CB       -13.8530  -94.0510   69.5020 C.3   175  ASN175      0.1155
     37  CG       -13.3860  -92.6620   69.1230 C.2   175  ASN175      0.2627
     38  OD1      -14.1980  -91.7780   68.8580 O.2   175  ASN175     -0.2716
     39  ND2      -12.0760  -92.4610   69.0970 N.am  175  ASN175     -0.0877
     40  N        -16.8370  -90.5290   69.7010 N.3   177  PHE177     -0.1227
     41  CA       -16.8800  -89.3480   68.8450 C.3   177  PHE177      0.1736
     42  C        -18.2970  -89.0850   68.3530 C.2   177  PHE177      0.2596
     43  O        -18.8250  -87.9770   68.4980 O.2   177  PHE177     -0.2718
     44  CB       -15.9230  -89.5350   67.6620 C.3   177  PHE177      0.0547
     45  CG       -15.7480  -88.3050   66.8220 C.ar  177  PHE177     -0.0202
     46  CD1      -16.6150  -88.0290   65.7800 C.ar  177  PHE177     -0.0042
     47  CD2      -14.7100  -87.4250   67.0750 C.ar  177  PHE177     -0.0042
     48  CE1      -16.4540  -86.8950   65.0130 C.ar  177  PHE177     -0.0003
     49  CE2      -14.5440  -86.2910   66.3110 C.ar  177  PHE177     -0.0003
     50  CZ       -15.4150  -86.0260   65.2780 C.ar  177  PHE177     -0.0000
     51  N        -18.9360  -90.1070   67.7820 N.am  178  GLY178     -0.1957
     52  CA       -20.2810  -89.9390   67.2650 C.3   178  GLY178      0.1869
     53  C        -21.3160  -89.6820   68.3350 C.2   178  GLY178      0.2309
     54  O        -22.3500  -89.0680   68.0550 O.2   178  GLY178     -0.2863
     55  N         -8.6510  -88.7210   73.6440 N.3   207  LEU207     -0.1231
     56  CA        -8.2600  -89.3570   72.3910 C.3   207  LEU207      0.1693
     57  C         -8.0180  -88.3330   71.2920 C.2   207  LEU207      0.2592
     58  O         -7.1340  -88.5320   70.4510 O.2   207  LEU207     -0.2718
     59  CB        -9.3210  -90.3660   71.9580 C.3   207  LEU207      0.0284
     60  CG        -8.8530  -91.8230   71.8990 C.3   207  LEU207      0.0019
     61  CD1       -8.2140  -92.2670   73.2100 C.3   207  LEU207      0.0001
     62  CD2      -10.0210  -92.7250   71.5540 C.3   207  LEU207      0.0001
     63  N         -8.7770  -87.2350   71.2780 N.am  208  ASN208     -0.1974
     64  CA        -8.5030  -86.1810   70.3080 C.3   208  ASN208      0.1688
     65  C         -7.0840  -85.6560   70.4590 C.2   208  ASN208      0.2292
     66  O         -6.4470  -85.2880   69.4640 O.2   208  ASN208     -0.2864
     67  CB        -9.5110  -85.0430   70.4680 C.3   208  ASN208      0.1181
     68  CG       -10.8140  -85.3120   69.7400 C.2   208  ASN208      0.2629
     69  OD1      -11.0140  -84.8590   68.6130 O.2   208  ASN208     -0.2716
     70  ND2      -11.7080  -86.0550   70.3820 N.am  208  ASN208     -0.0877
     71  N         -4.9750  -88.7090   69.1270 N.3   211  PHE211     -0.1241
     72  CA        -5.0210  -88.7090   67.6670 C.3   211  PHE211      0.1605
     73  C         -4.0550  -87.6780   67.1000 C.2   211  PHE211      0.2264
     74  O         -3.2780  -87.9680   66.1830 O.2   211  PHE211     -0.2867
     75  CB        -6.4430  -88.4170   67.1800 C.3   211  PHE211      0.0534
     76  CG        -7.2230  -89.6420   66.7990 C.ar  211  PHE211     -0.0203
     77  CD1       -7.7700  -90.4620   67.7720 C.ar  211  PHE211     -0.0042
     78  CD2       -7.4140  -89.9710   65.4670 C.ar  211  PHE211     -0.0042
     79  CE1       -8.4930  -91.5890   67.4230 C.ar  211  PHE211     -0.0003
     80  CE2       -8.1340  -91.0980   65.1130 C.ar  211  PHE211     -0.0003
     81  CZ        -8.6740  -91.9070   66.0920 C.ar  211  PHE211     -0.0000
     82  N         -6.3160  -86.1030   59.1260 N.3   253  LEU253     -0.1231
     83  CA        -7.0610  -86.5620   60.2920 C.3   253  LEU253      0.1693
     84  C         -8.5520  -86.6580   59.9900 C.2   253  LEU253      0.2592
     85  O         -9.2160  -87.6110   60.4140 O.2   253  LEU253     -0.2718
     86  CB        -6.8070  -85.6220   61.4720 C.3   253  LEU253      0.0284
     87  CG        -6.9650  -86.1980   62.8810 C.3   253  LEU253      0.0019
     88  CD1       -6.1130  -87.4430   63.0800 C.3   253  LEU253      0.0001
     89  CD2       -6.6090  -85.1410   63.9120 C.3   253  LEU253      0.0001
     90  N         -9.0980  -85.6870   59.2540 N.am  254  ASP254     -0.1974
     91  CA       -10.5070  -85.7540   58.8800 C.3   254  ASP254      0.1709
     92  C        -10.7600  -86.8740   57.8790 C.2   254  ASP254      0.2293
     93  O        -11.7630  -87.5910   57.9840 O.2   254  ASP254     -0.2864
     94  CB       -10.9650  -84.4130   58.3060 C.3   254  ASP254      0.1436
     95  CG       -10.8450  -83.2800   59.3060 C.2   254  ASP254      0.3671
     96  OD1      -10.4500  -83.5440   60.4610 O.co2 254  ASP254     -0.2456
     97  OD2      -11.1520  -82.1260   58.9390 O.co2 254  ASP254     -0.2456
     98  N        -10.4010  -90.2030   59.7730 N.3   257  GLY257     -0.1210
     99  CA       -11.4740  -90.3730   60.7400 C.3   257  GLY257      0.1956
    100  C        -12.8120  -90.6790   60.0920 C.2   257  GLY257      0.2611
    101  O        -13.5290  -91.5880   60.5200 O.2   257  GLY257     -0.2717
    102  N        -13.1760  -89.9120   59.0620 N.am  258  ALA258     -0.1979
    103  CA       -14.4240  -90.1760   58.3540 C.3   258  ALA258      0.1597
    104  C        -14.3510  -91.4740   57.5630 C.2   258  ALA258      0.2287
    105  O        -15.3760  -92.1360   57.3580 O.2   258  ALA258     -0.2864
    106  CB       -14.7630  -89.0120   57.4240 C.3   258  ALA258      0.0319
    107  N        -12.6960  -94.6350   58.0600 N.3   260  PHE260     -0.1227
    108  CA       -12.8810  -95.9480   58.6740 C.3   260  PHE260      0.1736
    109  C        -14.2230  -96.1240   59.3890 C.2   260  PHE260      0.2595
    110  O        -14.7400  -97.2510   59.4330 O.2   260  PHE260     -0.2718
    111  CB       -11.7140  -96.2390   59.6280 C.3   260  PHE260      0.0547
    112  CG       -11.8660  -95.6270   60.9890 C.ar  260  PHE260     -0.0202
    113  CD1      -12.5370  -96.3060   61.9950 C.ar  260  PHE260     -0.0042
    114  CD2      -11.3410  -94.3780   61.2670 C.ar  260  PHE260     -0.0042
    115  CE1      -12.6880  -95.7480   63.2490 C.ar  260  PHE260     -0.0003
    116  CE2      -11.4860  -93.8150   62.5230 C.ar  260  PHE260     -0.0003
    117  CZ       -12.1610  -94.5020   63.5140 C.ar  260  PHE260     -0.0000
    118  N        -14.8190  -95.0510   59.9030 N.am  261  ASP261     -0.1960
    119  CA       -16.0400  -95.1830   60.6910 C.3   261  ASP261      0.1840
    120  C        -17.2640  -95.3560   59.7930 C.2   261  ASP261      0.2622
    121  O        -17.9910  -96.3480   59.9080 O.2   261  ASP261     -0.2715
    122  CB       -16.2000  -93.9500   61.5880 C.3   261  ASP261      0.1450
    123  CG       -17.2210  -94.1470   62.7120 C.2   261  ASP261      0.3671
    124  OD1      -17.0010  -95.0080   63.5970 O.co2 261  ASP261     -0.2456
    125  OD2      -18.2500  -93.4310   62.7080 O.co2 261  ASP261     -0.2456
    126  N        -17.4780  -94.4270   58.8560 N.am  262  THR262     -0.1951
    127  CA       -18.7160  -94.4630   58.0810 C.3   262  THR262      0.1897
    128  C        -18.7630  -95.7150   57.2150 C.2   262  THR262      0.2313
    129  O        -19.7930  -96.3960   57.1640 O.2   262  THR262     -0.2863
    130  CB       -18.9100  -93.2050   57.2290 C.3   262  THR262      0.1794
    131  OG1      -17.7870  -93.0240   56.3660 O.3   262  THR262     -0.2208
    132  CG2      -19.0820  -91.9870   58.1230 C.3   262  THR262      0.0378
    133  N        -26.3660  -92.0710   58.9300 N.3   323  VAL323     -0.1245
    134  CA       -25.9520  -90.6910   59.1790 C.3   323  VAL323      0.1561
    135  C        -27.2190  -89.8410   59.1800 C.2   323  VAL323      0.2260
    136  O        -27.4880  -89.1270   58.2040 O.2   323  VAL323     -0.2867
    137  CB       -24.9330  -90.2070   58.1400 C.3   323  VAL323      0.0252
    138  CG1      -24.4730  -88.8000   58.4830 C.3   323  VAL323      0.0019
    139  CG2      -23.7530  -91.1690   58.0740 C.3   323  VAL323      0.0019
    140  N        -23.4440  -82.9220   59.5000 N.3   327  ILE327     -0.1245
    141  CA       -22.7470  -82.0820   60.4770 C.3   327  ILE327      0.1561
    142  C        -23.4730  -80.7450   60.5600 C.2   327  ILE327      0.2260
    143  O        -23.8420  -80.1800   59.5110 O.2   327  ILE327     -0.2867
    144  CB       -21.2740  -81.8940   60.0810 C.3   327  ILE327      0.0252
    145  CG1      -20.5600  -83.2470   60.0460 C.3   327  ILE327      0.0019
    146  CG2      -20.5770  -80.9520   61.0620 C.3   327  ILE327      0.0019
    147  CD1      -19.1470  -83.1850   59.5130 C.3   327  ILE327      0.0001
    148  N        -23.6680  -89.4430   65.5260 N.3   437  LEU437     -0.1231
    149  CA       -23.2400  -88.9560   64.2200 C.3   437  LEU437      0.1693
    150  C        -23.3560  -90.0640   63.1820 C.2   437  LEU437      0.2592
    151  O        -23.9680  -89.8840   62.1230 O.2   437  LEU437     -0.2718
    152  CB       -21.8090  -88.4270   64.3000 C.3   437  LEU437      0.0284
    153  CG       -21.2290  -87.8950   62.9880 C.3   437  LEU437      0.0019
    154  CD1      -22.1070  -86.7920   62.4080 C.3   437  LEU437      0.0001
    155  CD2      -19.8060  -87.3960   63.1930 C.3   437  LEU437      0.0001
    156  N        -22.7940  -91.2310   63.4860 N.am  438  THR438     -0.1953
    157  CA       -22.9550  -92.4320   62.6710 C.3   438  THR438      0.1897
    158  C        -23.6690  -93.4650   63.5370 C.2   438  THR438      0.2313
    159  O        -23.0560  -94.0730   64.4200 O.2   438  THR438     -0.2863
    160  CB       -21.6100  -92.9600   62.1770 C.3   438  THR438      0.1794
    161  OG1      -20.7610  -93.2340   63.2980 O.3   438  THR438     -0.2208
    162  CG2      -20.9350  -91.9440   61.2760 C.3   438  THR438      0.0378
@<TRIPOS>BOND
     1   131   130    1
     2   129   128    2
     3   128   127    1
     4   130   127    1
     5   130   132    1
     6   105   104    2
     7   106   103    1
     8   104   103    1
     9    20    19    1
    10    92    93    2
    11    92    91    1
    12   107   108    1
    13   139   137    1
    14   127   126    1
    15   137   138    1
    16   137   134    1
    17   136   135    2
    18    94    91    1
    19    94    95    1
    20   103   102    1
    21    16    19    1
    22    16    15    1
    23    16    17    1
    24   108   109    1
    25   108   111    1
    26   126   120   am
    27    91    90    1
    28   133   134    1
    29    97    95   ar
    30   102   100   am
    31    82    83    1
    32   134   135    1
    33    90    84   am
    34    95    96   ar
    35   109   110    2
    36   109   118   am
    37   140   141    1
    38    18    17    2
    39   143   142    2
    40   147   145    1
    41   111   112    1
    42    17    21   am
    43    98    99    1
    44   120   121    2
    45   120   119    1
    46   118   119    1
    47    84    83    1
    48    84    85    2
    49   145   144    1
    50   144   141    1
    51   144   146    1
    52   100   101    2
    53   100    99    1
    54    83    86    1
    55   141   142    1
    56   119   122    1
    57    21    22    1
    58   112   114   ar
    59   112   113   ar
    60   114   116   ar
    61   162   160    1
    62    86    87    1
    63   122   123    1
    64   113   115   ar
    65    22    23    1
    66    22    25    1
    67   151   150    2
    68   160   157    1
    69   160   161    1
    70    30    31   ar
    71    30    28   ar
    72    31    29   ar
    73   154   153    1
    74   116   117   ar
    75    28    26   ar
    76    23    24    2
    77   157   156    1
    78   157   158    1
    79   125   123   ar
    80   123   124   ar
    81    29    27   ar
    82    87    88    1
    83    87    89    1
    84    26    27   ar
    85    26    25    1
    86   153   155    1
    87   153   152    1
    88   150   156   am
    89   150   149    1
    90   115   117   ar
    91   158   159    2
    92    14    13    1
    93   149   152    1
    94   149   148    1
    95    13    10    1
    96    48    50   ar
    97    48    46   ar
    98    80    78   ar
    99    80    81   ar
   100    50    49   ar
   101     7     5    1
   102    78    76   ar
   103    12    11    2
   104    10    11    1
   105    10     9    1
   106    46    45   ar
   107    81    79   ar
   108    74    73    2
   109     4     3    2
   110    49    47   ar
   111     8     6    1
   112     5     6    1
   113     5     2    1
   114     9     3   am
   115     3     2    1
   116    76    75    1
   117    76    77   ar
   118    45    47   ar
   119    45    44    1
   120    73    72    1
   121    75    72    1
   122    52    51    1
   123    52    53    1
   124     2     1    1
   125    79    77   ar
   126    44    41    1
   127    72    71    1
   128    51    42   am
   129    54    53    2
   130    42    43    2
   131    42    41    1
   132    69    68    2
   133    41    40    1
   134    38    37    2
   135    39    37   am
   136    37    36    1
   137    66    65    2
   138    36    33    1
   139    68    70   am
   140    68    67    1
   141    35    34    2
   142    64    65    1
   143    64    67    1
   144    64    63    1
   145    58    57    2
   146    34    33    1
   147    33    32    1
   148    63    57   am
   149    57    56    1
   150    62    60    1
   151    60    59    1
   152    60    61    1
   153    59    56    1
   154    56    55    1
