@<TRIPOS>MOLECULE
tmp/6dwnC01.pdb
 177 170 0 0 0
SMALL
GASTEIGER

@<TRIPOS>ATOM
      1  N        -45.5420 -124.1830  -20.2930 N.3    78  ILE78      -0.1231
      2  CA       -45.3050 -124.5040  -18.8920 C.3    78  ILE78       0.1692
      3  C        -43.9470 -125.1800  -18.7840 C.2    78  ILE78       0.2592
      4  O        -43.7030 -126.2080  -19.4260 O.2    78  ILE78      -0.2718
      5  CB       -46.4140 -125.4080  -18.3300 C.3    78  ILE78       0.0266
      6  CG1      -47.7850 -124.7600  -18.5390 C.3    78  ILE78       0.0019
      7  CG2      -46.1730 -125.6810  -16.8540 C.3    78  ILE78       0.0020
      8  CD1      -48.9510 -125.6520  -18.1830 C.3    78  ILE78       0.0001
      9  N        -43.0670 -124.6070  -17.9650 N.am   79  SER79      -0.1952
     10  CA       -41.7400 -125.1710  -17.7240 C.3    79  SER79       0.1924
     11  C        -40.9850 -125.3680  -19.0400 C.2    79  SER79       0.2314
     12  O        -40.4300 -126.4340  -19.3140 O.2    79  SER79      -0.2863
     13  CB       -41.8430 -126.4850  -16.9470 C.3    79  SER79       0.2116
     14  OG       -42.4790 -126.2890  -15.6950 O.3    79  SER79      -0.2180
     15  N        -45.8120 -132.7650  -15.4790 N.3    85  SER85      -0.1202
     16  CA       -47.2350 -132.9550  -15.2270 C.3    85  SER85       0.2020
     17  C        -48.0900 -132.6640  -16.4520 C.2    85  SER85       0.2618
     18  O        -49.1800 -133.2320  -16.5870 O.2    85  SER85      -0.2717
     19  CB       -47.6790 -132.0600  -14.0690 C.3    85  SER85       0.2103
     20  OG       -46.7890 -132.1670  -12.9710 O.3    85  SER85      -0.2182
     21  N        -47.6230 -131.7910  -17.3470 N.am   86  PHE86      -0.1975
     22  CA       -48.4450 -131.2960  -18.4420 C.3    86  PHE86       0.1639
     23  C        -47.9650 -131.7180  -19.8230 C.2    86  PHE86       0.2290
     24  O        -48.7670 -131.7070  -20.7620 O.2    86  PHE86      -0.2864
     25  CB       -48.5210 -129.7640  -18.3880 C.3    86  PHE86       0.0560
     26  CG       -49.1960 -129.2370  -17.1530 C.ar   86  PHE86      -0.0200
     27  CD1      -50.5770 -129.1610  -17.0800 C.ar   86  PHE86      -0.0042
     28  CD2      -48.4480 -128.8270  -16.0610 C.ar   86  PHE86      -0.0042
     29  CE1      -51.1990 -128.6790  -15.9450 C.ar   86  PHE86      -0.0003
     30  CE2      -49.0650 -128.3450  -14.9210 C.ar   86  PHE86      -0.0003
     31  CZ       -50.4420 -128.2710  -14.8620 C.ar   86  PHE86      -0.0000
     32  N        -52.2290 -113.9920  -10.9400 N.3   185  ASN185     -0.1225
     33  CA       -51.8010 -115.2700  -11.4900 C.3   185  ASN185      0.1785
     34  C        -52.9840 -115.9010  -12.2150 C.2   185  ASN185      0.2597
     35  O        -54.0060 -116.2120  -11.5920 O.2   185  ASN185     -0.2718
     36  CB       -51.2820 -116.2010  -10.3980 C.3   185  ASN185      0.1169
     37  CG       -50.3360 -117.2530  -10.9410 C.2   185  ASN185      0.2627
     38  OD1      -50.7390 -118.1230  -11.7110 O.2   185  ASN185     -0.2716
     39  ND2      -49.0730 -117.1780  -10.5440 N.am  185  ASN185     -0.0877
     40  N        -52.8450 -116.0940  -13.5250 N.am  186  ASN186     -0.1960
     41  CA       -53.9260 -116.6150  -14.3510 C.3   186  ASN186      0.1819
     42  C        -53.6780 -118.0560  -14.7810 C.2   186  ASN186      0.2621
     43  O        -54.2780 -118.5220  -15.7540 O.2   186  ASN186     -0.2715
     44  CB       -54.1250 -115.7160  -15.5740 C.3   186  ASN186      0.1195
     45  CG       -52.8420 -115.5050  -16.3610 C.2   186  ASN186      0.2630
     46  OD1      -51.7410 -115.6320  -15.8220 O.2   186  ASN186     -0.2716
     47  ND2      -52.9780 -115.1730  -17.6390 N.am  186  ASN186     -0.0877
     48  N        -52.8050 -118.7720  -14.0680 N.am  187  PHE187     -0.1974
     49  CA       -52.5290 -120.1650  -14.4050 C.3   187  PHE187      0.1639
     50  C        -53.8130 -120.9830  -14.4380 C.2   187  PHE187      0.2290
     51  O        -54.1050 -121.6680  -15.4240 O.2   187  PHE187     -0.2864
     52  CB       -51.5410 -120.7540  -13.3970 C.3   187  PHE187      0.0560
     53  CG       -51.0420 -122.1260  -13.7580 C.ar  187  PHE187     -0.0200
     54  CD1      -49.9180 -122.2800  -14.5520 C.ar  187  PHE187     -0.0042
     55  CD2      -51.6860 -123.2610  -13.2930 C.ar  187  PHE187     -0.0042
     56  CE1      -49.4490 -123.5380  -14.8810 C.ar  187  PHE187     -0.0003
     57  CE2      -51.2220 -124.5220  -13.6200 C.ar  187  PHE187     -0.0003
     58  CZ       -50.1030 -124.6600  -14.4150 C.ar  187  PHE187     -0.0000
     59  N        -49.7300 -114.9180  -19.1940 N.3   214  PHE214     -0.1241
     60  CA       -49.3870 -116.3050  -18.9090 C.3   214  PHE214      0.1605
     61  C        -47.9870 -116.6340  -19.4150 C.2   214  PHE214      0.2264
     62  O        -47.2070 -117.2900  -18.7150 O.2   214  PHE214     -0.2867
     63  CB       -50.4270 -117.2330  -19.5340 C.3   214  PHE214      0.0534
     64  CG       -50.2440 -118.6740  -19.1790 C.ar  214  PHE214     -0.0203
     65  CD1      -50.4440 -119.1090  -17.8810 C.ar  214  PHE214     -0.0042
     66  CD2      -49.8820 -119.5970  -20.1440 C.ar  214  PHE214     -0.0042
     67  CE1      -50.2800 -120.4360  -17.5500 C.ar  214  PHE214     -0.0003
     68  CE2      -49.7160 -120.9250  -19.8210 C.ar  214  PHE214     -0.0003
     69  CZ       -49.9160 -121.3470  -18.5220 C.ar  214  PHE214     -0.0000
     70  N        -45.1660 -114.5430  -17.0500 N.3   217  LEU217     -0.1231
     71  CA       -44.8320 -115.0240  -15.7130 C.3   217  LEU217      0.1693
     72  C        -44.2300 -116.4200  -15.7490 C.2   217  LEU217      0.2592
     73  O        -43.3590 -116.7360  -14.9310 O.2   217  LEU217     -0.2718
     74  CB       -46.0670 -115.0250  -14.8100 C.3   217  LEU217      0.0284
     75  CG       -45.7910 -115.4950  -13.3710 C.3   217  LEU217      0.0019
     76  CD1      -44.6570 -114.7060  -12.7230 C.3   217  LEU217      0.0001
     77  CD2      -47.0450 -115.4440  -12.5010 C.3   217  LEU217      0.0001
     78  N        -44.6730 -117.2670  -16.6780 N.am  218  ASN218     -0.1974
     79  CA       -44.0590 -118.5800  -16.8140 C.3   218  ASN218      0.1688
     80  C        -42.5640 -118.4540  -17.0660 C.2   218  ASN218      0.2292
     81  O        -41.7880 -119.3250  -16.6570 O.2   218  ASN218     -0.2864
     82  CB       -44.7360 -119.3590  -17.9390 C.3   218  ASN218      0.1181
     83  CG       -46.0150 -120.0350  -17.4870 C.2   218  ASN218      0.2629
     84  OD1      -46.5660 -119.7080  -16.4360 O.2   218  ASN218     -0.2716
     85  ND2      -46.4970 -120.9790  -18.2830 N.am  218  ASN218     -0.0877
     86  N        -40.9410 -117.7380  -13.5820 N.3   221  PHE221     -0.1241
     87  CA       -40.8360 -118.9820  -12.8290 C.3   221  PHE221      0.1605
     88  C        -39.6070 -119.7670  -13.2680 C.2   221  PHE221      0.2264
     89  O        -38.8440 -120.2690  -12.4360 O.2   221  PHE221     -0.2867
     90  CB       -42.1050 -119.8200  -13.0000 C.3   221  PHE221      0.0534
     91  CG       -43.0770 -119.6850  -11.8590 C.ar  221  PHE221     -0.0203
     92  CD1      -43.8890 -118.5670  -11.7510 C.ar  221  PHE221     -0.0042
     93  CD2      -43.1630 -120.6660  -10.8820 C.ar  221  PHE221     -0.0042
     94  CE1      -44.7820 -118.4380  -10.6990 C.ar  221  PHE221     -0.0003
     95  CE2      -44.0520 -120.5410   -9.8260 C.ar  221  PHE221     -0.0003
     96  CZ       -44.8610 -119.4250   -9.7350 C.ar  221  PHE221     -0.0000
     97  N        -40.4920 -127.2710  -10.0640 N.3   262  LEU262     -0.1231
     98  CA       -41.4120 -126.2490  -10.5470 C.3   262  LEU262      0.1693
     99  C        -42.8480 -126.7500  -10.5050 C.2   262  LEU262      0.2592
    100  O        -43.7590 -126.0080  -10.1220 O.2   262  LEU262     -0.2718
    101  CB       -41.0230 -125.8240  -11.9630 C.3   262  LEU262      0.0284
    102  CG       -41.4320 -124.4150  -12.4050 C.3   262  LEU262      0.0019
    103  CD1      -40.9360 -123.3640  -11.4200 C.3   262  LEU262      0.0001
    104  CD2      -40.9130 -124.1200  -13.8090 C.3   262  LEU262      0.0001
    105  N        -43.0690 -128.0110  -10.8850 N.am  263  ASP263     -0.1974
    106  CA       -44.4070 -128.5860  -10.7900 C.3   263  ASP263      0.1709
    107  C        -44.8100 -128.7870   -9.3350 C.2   263  ASP263      0.2293
    108  O        -45.9560 -128.5180   -8.9570 O.2   263  ASP263     -0.2864
    109  CB       -44.4620 -129.9090  -11.5540 C.3   263  ASP263      0.1436
    110  CG       -44.1480 -129.7430  -13.0290 C.2   263  ASP263      0.3671
    111  OD1      -43.9300 -128.5950  -13.4700 O.co2 263  ASP263     -0.2456
    112  OD2      -44.1230 -130.7620  -13.7500 O.co2 263  ASP263     -0.2456
    113  N        -45.4270 -125.2840   -7.8550 N.3   266  GLY266     -0.1210
    114  CA       -46.6420 -124.6810   -8.3770 C.3   266  GLY266      0.1956
    115  C        -47.8950 -125.2990   -7.7840 C.2   266  GLY266      0.2611
    116  O        -48.8200 -124.5900   -7.3770 O.2   266  GLY266     -0.2717
    117  N        -47.9480 -126.6330   -7.7390 N.am  267  ALA267     -0.1979
    118  CA       -49.0930 -127.3040   -7.1360 C.3   267  ALA267      0.1597
    119  C        -49.1320 -127.0980   -5.6280 C.2   267  ALA267      0.2287
    120  O        -50.2150 -127.0840   -5.0330 O.2   267  ALA267     -0.2864
    121  CB       -49.0610 -128.7970   -7.4600 C.3   267  ALA267      0.0319
    122  N        -48.1400 -124.4040   -3.4580 N.3   269  PHE269     -0.1227
    123  CA       -48.6710 -123.1720   -2.8880 C.3   269  PHE269      0.1736
    124  C        -50.0650 -122.8550   -3.4080 C.2   269  PHE269      0.2595
    125  O        -50.8410 -122.1870   -2.7160 O.2   269  PHE269     -0.2718
    126  CB       -47.7310 -121.9960   -3.1800 C.3   269  PHE269      0.0547
    127  CG       -47.9190 -121.3850   -4.5470 C.ar  269  PHE269     -0.0202
    128  CD1      -48.8590 -120.3870   -4.7540 C.ar  269  PHE269     -0.0042
    129  CD2      -47.1430 -121.7950   -5.6170 C.ar  269  PHE269     -0.0042
    130  CE1      -49.0330 -119.8270   -6.0050 C.ar  269  PHE269     -0.0003
    131  CE2      -47.3110 -121.2330   -6.8710 C.ar  269  PHE269     -0.0003
    132  CZ       -48.2560 -120.2490   -7.0630 C.ar  269  PHE269     -0.0000
    133  N        -50.4040 -123.3270   -4.6090 N.am  270  ASP270     -0.1960
    134  CA       -51.6780 -122.9630   -5.2170 C.3   270  ASP270      0.1840
    135  C        -52.8180 -123.8180   -4.6740 C.2   270  ASP270      0.2622
    136  O        -53.8330 -123.2900   -4.2060 O.2   270  ASP270     -0.2715
    137  CB       -51.5800 -123.0900   -6.7380 C.3   270  ASP270      0.1450
    138  CG       -52.8040 -122.5460   -7.4490 C.2   270  ASP270      0.3671
    139  OD1      -53.7670 -122.1520   -6.7590 O.co2 270  ASP270     -0.2456
    140  OD2      -52.7970 -122.4980   -8.7000 O.co2 270  ASP270     -0.2456
    141  N        -52.6630 -125.1430   -4.7220 N.am  271  THR271     -0.1951
    142  CA       -53.7610 -126.0380   -4.3710 C.3   271  THR271      0.1897
    143  C        -54.0540 -126.0000   -2.8770 C.2   271  THR271      0.2313
    144  O        -55.2150 -125.9010   -2.4620 O.2   271  THR271     -0.2863
    145  CB       -53.4310 -127.4660   -4.8010 C.3   271  THR271      0.1794
    146  OG1      -52.2140 -127.8830   -4.1670 O.3   271  THR271     -0.2208
    147  CG2      -53.2670 -127.5530   -6.3080 C.3   271  THR271      0.0378
    148  N        -61.1950 -128.2420   -7.3170 N.3   332  VAL332     -0.1245
    149  CA       -60.5780 -128.8200   -8.5090 C.3   332  VAL332      0.1561
    150  C        -61.6570 -129.5900   -9.2620 C.2   332  VAL332      0.2260
    151  O        -61.6970 -130.8260   -9.1900 O.2   332  VAL332     -0.2867
    152  CB       -59.3870 -129.7210   -8.1530 C.3   332  VAL332      0.0252
    153  CG1      -58.7280 -130.2500   -9.4200 C.3   332  VAL332      0.0019
    154  CG2      -58.3860 -128.9570   -7.3010 C.3   332  VAL332      0.0019
    155  N        -56.5730 -132.6280  -14.5990 N.3   336  ILE336     -0.1245
    156  CA       -55.8210 -132.2160  -15.7880 C.3   336  ILE336      0.1561
    157  C        -56.2530 -133.0880  -16.9620 C.2   336  ILE336      0.2260
    158  O        -56.3710 -134.3200  -16.8050 O.2   336  ILE336     -0.2867
    159  CB       -54.3090 -132.3330  -15.5350 C.3   336  ILE336      0.0252
    160  CG1      -53.9010 -131.4070  -14.3860 C.3   336  ILE336      0.0019
    161  CG2      -53.5200 -132.0170  -16.8100 C.3   336  ILE336      0.0019
    162  CD1      -52.4580 -131.5580  -13.9450 C.3   336  ILE336      0.0001
    163  N        -58.5360 -124.1440  -13.0110 N.3   446  LEU446     -0.1231
    164  CA       -57.8900 -125.3670  -12.5430 C.3   446  LEU446      0.1693
    165  C        -58.0980 -125.5410  -11.0460 C.2   446  LEU446      0.2592
    166  O        -58.5290 -126.6030  -10.5830 O.2   446  LEU446     -0.2718
    167  CB       -56.4000 -125.3440  -12.8810 C.3   446  LEU446      0.0284
    168  CG       -55.6040 -126.5650  -12.4120 C.3   446  LEU446      0.0019
    169  CD1      -56.1990 -127.8560  -12.9600 C.3   446  LEU446      0.0001
    170  CD2      -54.1500 -126.4300  -12.8270 C.3   446  LEU446      0.0001
    171  N        -57.8020 -124.4980  -10.2770 N.am  447  THR447     -0.1953
    172  CA       -58.0950 -124.4450   -8.8460 C.3   447  THR447      0.1897
    173  C        -59.0790 -123.2940   -8.6540 C.2   447  THR447      0.2313
    174  O        -58.6890 -122.1230   -8.6940 O.2   447  THR447     -0.2863
    175  CB       -56.8220 -124.2490   -8.0240 C.3   447  THR447      0.1794
    176  OG1      -56.1510 -123.0560   -8.4490 O.3   447  THR447     -0.2208
    177  CG2      -55.8840 -125.4380   -8.1880 C.3   447  THR447      0.0378
@<TRIPOS>BOND
     1    24    23    2
     2     1     2    1
     3    66    68   ar
     4    66    64   ar
     5    23    22    1
     6    68    69   ar
     7    63    64    1
     8    63    60    1
     9     4     3    2
    10    61    60    1
    11    61    62    2
    12    12    11    2
    13    59    60    1
    14    64    65   ar
    15    11    10    1
    16     2     3    1
    17     2     5    1
    18     3     9   am
    19     6     5    1
    20     6     8    1
    21    69    67   ar
    22    22    25    1
    23    22    21    1
    24    25    26    1
    25     5     7    1
    26    85    83   am
    27     9    10    1
    28    82    83    1
    29    82    79    1
    30    65    67   ar
    31    10    13    1
    32    47    45   am
    33    83    84    2
    34    21    17   am
    35    26    27   ar
    36    26    28   ar
    37    27    29   ar
    38    80    79    1
    39    80    81    2
    40    70    71    1
    41   157   158    2
    42   157   156    1
    43    13    14    1
    44    79    78    1
    45   161   159    1
    46    78    72   am
    47    18    17    2
    48    17    16    1
    49    45    46    2
    50    45    44    1
    51    28    30   ar
    52    29    31   ar
    53   156   159    1
    54   156   155    1
    55    43    42    2
    56    72    71    1
    57    72    73    2
    58    71    74    1
    59    44    41    1
    60   159   160    1
    61    15    16    1
    62    51    50    2
    63    16    19    1
    64    30    31   ar
    65    56    54   ar
    66    56    58   ar
    67    74    75    1
    68    42    41    1
    69    42    48   am
    70    54    53   ar
    71    50    49    1
    72    58    57   ar
    73    49    48    1
    74    49    52    1
    75   160   162    1
    76    41    40    1
    77    19    20    1
    78   104   102    1
    79    53    52    1
    80    53    55   ar
    81   112   110   ar
    82    57    55   ar
    83    86    87    1
    84    40    34   am
    85   111   110   ar
    86    75    76    1
    87    75    77    1
    88    88    87    1
    89    88    89    2
    90   110   109    1
    91   163   164    1
    92    90    87    1
    93    90    91    1
    94   169   168    1
    95   167   164    1
    96   167   168    1
    97   170   168    1
    98   164   165    1
    99   102   101    1
   100   102   103    1
   101    34    35    2
   102    34    33    1
   103   101    98    1
   104    91    92   ar
   105    91    93   ar
   106    92    94   ar
   107    38    37    2
   108   109   106    1
   109    33    32    1
   110    33    36    1
   111   165   166    2
   112   165   171   am
   113    37    39   am
   114    37    36    1
   115   105   106    1
   116   105    99   am
   117    93    95   ar
   118   106   107    1
   119    94    96   ar
   120    98    99    1
   121    98    97    1
   122    99   100    2
   123   171   172    1
   124    95    96   ar
   125   153   152    1
   126   107   108    2
   127   150   151    2
   128   150   149    1
   129   172   173    1
   130   172   175    1
   131   140   138   ar
   132   174   173    2
   133   149   152    1
   134   149   148    1
   135   176   175    1
   136   114   113    1
   137   114   115    1
   138   177   175    1
   139   152   154    1
   140   115   117   am
   141   115   116    2
   142   117   118    1
   143   121   118    1
   144   138   139   ar
   145   138   137    1
   146   118   119    1
   147   132   131   ar
   148   132   130   ar
   149   131   129   ar
   150   137   134    1
   151   147   145    1
   152   130   128   ar
   153   119   120    2
   154   129   127   ar
   155   134   135    1
   156   134   133    1
   157   145   142    1
   158   145   146    1
   159   128   127   ar
   160   141   135   am
   161   141   142    1
   162   135   136    2
   163   133   124   am
   164   127   126    1
   165   142   143    1
   166   122   123    1
   167   124   123    1
   168   124   125    2
   169   126   123    1
   170   143   144    2
