@<TRIPOS>MOLECULE
tmp/6dx5A00.pdb
 96 96 0 0 0
SMALL
GASTEIGER

@<TRIPOS>ATOM
      1  N        -10.7220   12.8250    3.8840 N.3    76  VAL76      -0.1231
      2  CA       -10.1350   11.5550    3.4490 C.3    76  VAL76       0.1692
      3  C         -9.1300   11.0440    4.4820 C.2    76  VAL76       0.2592
      4  O         -9.2940    9.9340    5.0210 O.2    76  VAL76      -0.2718
      5  CB        -9.4950   11.7010    2.0520 C.3    76  VAL76       0.0266
      6  CG1       -8.8330   10.3860    1.6270 C.3    76  VAL76       0.0020
      7  CG2      -10.5620   12.2080    1.0310 C.3    76  VAL76       0.0020
      8  N         -8.1070   11.8760    4.8220 N.am   77  TYR77      -0.1976
      9  CA        -6.9720   11.3480    5.5830 C.3    77  TYR77       0.1639
     10  C         -7.2600   11.1260    7.0650 C.2    77  TYR77       0.2290
     11  O         -6.6510   10.2320    7.6690 O.2    77  TYR77      -0.2864
     12  CB        -5.7640   12.2520    5.3740 C.3    77  TYR77       0.0560
     13  CG        -5.2790   12.0980    3.9620 C.ar   77  TYR77      -0.0198
     14  CD1       -5.7790   12.9070    2.9330 C.ar   77  TYR77      -0.0009
     15  CD2       -4.3630   11.1030    3.6370 C.ar   77  TYR77      -0.0009
     16  CE1       -5.3570   12.7450    1.6180 C.ar   77  TYR77       0.0417
     17  CE2       -3.9280   10.9320    2.3220 C.ar   77  TYR77       0.0417
     18  CZ        -4.4260   11.7600    1.3250 C.ar   77  TYR77       0.1957
     19  OH        -3.9970   11.5810    0.0350 O.3    77  TYR77      -0.2866
     20  N         -8.8040    7.7920    7.1330 N.3    80  ARG80      -0.1245
     21  CA        -7.8320    6.7120    6.9630 C.3    80  ARG80       0.1563
     22  C         -6.9810    6.5190    8.2040 C.2    80  ARG80       0.2260
     23  O         -6.6080    5.3840    8.5270 O.2    80  ARG80      -0.2867
     24  CB        -6.9340    6.9660    5.7770 C.3    80  ARG80       0.0307
     25  CG        -7.7080    7.1370    4.5260 C.3    80  ARG80       0.0489
     26  CD        -6.8140    6.9620    3.3960 C.3    80  ARG80       0.2205
     27  NE        -7.5310    7.2710    2.1920 N.pl3  80  ARG80      -0.0865
     28  CZ        -6.9600    7.3730    1.0130 C.cat  80  ARG80       0.5346
     29  NH1       -5.6520    7.1940    0.9270 N.pl3  80  ARG80       0.1354
     30  NH2       -7.6960    7.6430   -0.0600 N.pl3  80  ARG80       0.1354
     31  N         -1.6310   12.6780    5.0560 N.3    99  TYR99      -0.1241
     32  CA        -1.7480   13.5990    3.9310 C.3    99  TYR99       0.1605
     33  C         -0.3710   14.0510    3.4670 C.2    99  TYR99       0.2264
     34  O         -0.0590   13.9860    2.2760 O.2    99  TYR99      -0.2867
     35  CB        -2.6190   14.8150    4.2970 C.3    99  TYR99       0.0534
     36  CG        -2.5250   15.9350    3.2660 C.ar   99  TYR99      -0.0201
     37  CD1       -3.1380   15.8130    2.0200 C.ar   99  TYR99      -0.0009
     38  CD2       -1.7950   17.0850    3.5210 C.ar   99  TYR99      -0.0009
     39  CE1       -3.0170   16.7990    1.0620 C.ar   99  TYR99       0.0417
     40  CE2       -1.6720   18.0870    2.5630 C.ar   99  TYR99       0.0417
     41  CZ        -2.3070   17.9320    1.3530 C.ar   99  TYR99       0.1957
     42  OH        -2.1930   18.9090    0.4020 O.3    99  TYR99      -0.2866
     43  N          3.0920   13.5180   -6.7020 N.3   108  TYR108     -0.1227
     44  CA         1.7440   13.8320   -6.2420 C.3   108  TYR108      0.1736
     45  C          1.0100   14.7410   -7.2200 C.2   108  TYR108      0.2595
     46  O          1.5660   15.7050   -7.7340 O.2   108  TYR108     -0.2718
     47  CB         1.8240   14.5140   -4.8730 C.3   108  TYR108      0.0548
     48  CG         0.4940   14.9350   -4.2750 C.ar  108  TYR108     -0.0200
     49  CD1        0.1680   16.2870   -4.1320 C.ar  108  TYR108     -0.0009
     50  CD2       -0.3990   13.9820   -3.7990 C.ar  108  TYR108     -0.0009
     51  CE1       -1.0020   16.6790   -3.5460 C.ar  108  TYR108      0.0417
     52  CE2       -1.5810   14.3670   -3.2090 C.ar  108  TYR108      0.0417
     53  CZ        -1.8700   15.7100   -3.0640 C.ar  108  TYR108      0.1957
     54  OH        -3.0500   16.0790   -2.4600 O.3   108  TYR108     -0.2866
     55  N         -0.2590   14.4540   -7.4410 N.am  109  TRP109     -0.1976
     56  CA        -1.1130   15.2190   -8.3290 C.3   109  TRP109      0.1640
     57  C         -1.9120   16.2380   -7.5190 C.2   109  TRP109      0.2290
     58  O         -2.9500   15.9020   -6.9330 O.2   109  TRP109     -0.2864
     59  CB        -2.0440   14.2780   -9.0750 C.3   109  TRP109      0.0576
     60  CG        -1.4210   13.7040  -10.2870 C.ar  109  TRP109      0.0006
     61  CD1       -0.5500   12.6550  -10.3350 C.ar  109  TRP109      0.0946
     62  CD2       -1.6330   14.1140  -11.6400 C.ar  109  TRP109      0.0152
     63  NE1       -0.1980   12.3810  -11.6310 N.ar  109  TRP109     -0.2442
     64  CE2       -0.8400   13.2580  -12.4610 C.ar  109  TRP109      0.0810
     65  CE3       -2.4100   15.1100  -12.2440 C.ar  109  TRP109      0.0012
     66  CZ2       -0.7780   13.3880  -13.8520 C.ar  109  TRP109      0.0191
     67  CZ3       -2.3680   15.2200  -13.6250 C.ar  109  TRP109      0.0001
     68  CH2       -1.5590   14.3560  -14.4220 C.ar  109  TRP109      0.0015
     69  N         -4.5440   19.3010   -6.7350 N.3   111  GLY111     -0.1210
     70  CA        -5.8990   19.4810   -7.2610 C.3   111  GLY111      0.1956
     71  C         -6.8180   20.2420   -6.3340 C.2   111  GLY111      0.2613
     72  O         -6.3490   21.1200   -5.6310 O.2   111  GLY111     -0.2717
     73  N         -8.1140   19.8960   -6.2690 N.am  112  THR112     -0.1938
     74  CA        -9.0550   20.7250   -5.5030 C.3   112  THR112      0.2028
     75  C         -8.7290   20.7400   -3.9990 C.2   112  THR112      0.2642
     76  O         -8.9560   21.7530   -3.3270 O.2   112  THR112     -0.2714
     77  CB       -10.4940   20.2400   -5.7450 C.3   112  THR112      0.1808
     78  OG1      -10.5730   18.8390   -5.4580 O.3   112  THR112     -0.2208
     79  CG2      -10.8770   20.4320   -7.2190 C.3   112  THR112      0.0379
     80  N         -8.1710   19.6570   -3.4400 N.am  113  ASP113     -0.1957
     81  CA        -7.8330   19.7130   -2.0090 C.3   113  ASP113      0.1840
     82  C         -6.8850   20.8650   -1.7560 C.2   113  ASP113      0.2621
     83  O         -7.0000   21.5700   -0.7570 O.2   113  ASP113     -0.2715
     84  CB        -7.1870   18.4180   -1.5330 C.3   113  ASP113      0.1450
     85  CG        -8.1780   17.2540   -1.3870 C.2   113  ASP113      0.3671
     86  OD1       -9.4240   17.3880   -1.5990 O.co2 113  ASP113     -0.2456
     87  OD2       -7.6580   16.1680   -1.0530 O.co2 113  ASP113     -0.2456
     88  N         -5.9800   21.1120   -2.6850 N.am  114  GLU114     -0.1977
     89  CA        -5.0350   22.2060   -2.5110 C.3   114  GLU114      0.1602
     90  C         -5.6080   23.5520   -2.9840 C.2   114  GLU114      0.2287
     91  O         -5.2270   24.5860   -2.4170 O.2   114  GLU114     -0.2864
     92  CB        -3.7150   21.8880   -3.2200 C.3   114  GLU114      0.0415
     93  CG        -2.9150   20.7470   -2.5230 C.3   114  GLU114      0.1163
     94  CD        -3.4600   19.3590   -2.8470 C.2   114  GLU114      0.3649
     95  OE1       -3.3020   18.4530   -1.9670 O.co2 114  GLU114     -0.2457
     96  OE2       -4.0260   19.1740   -3.9790 O.co2 114  GLU114     -0.2457
@<TRIPOS>BOND
     1    68    66   ar
     2    68    67   ar
     3    66    64   ar
     4    67    65   ar
     5    64    62   ar
     6    64    63   ar
     7    65    62   ar
     8    62    60   ar
     9    63    61   ar
    10    61    60   ar
    11    60    59    1
    12    59    56    1
    13    56    57    1
    14    56    55    1
    15    46    45    2
    16    57    58    2
    17    55    45   am
    18    70    69    1
    19    70    71    1
    20    45    44    1
    21    79    77    1
    22    43    44    1
    23    71    73   am
    24    71    72    2
    25    73    74    1
    26    44    47    1
    27    77    74    1
    28    77    78    1
    29    74    75    1
    30    47    48    1
    31    48    49   ar
    32    48    50   ar
    33    49    51   ar
    34    75    80   am
    35    75    76    2
    36    96    94   ar
    37    50    52   ar
    38    51    53   ar
    39    80    81    1
    40    92    93    1
    41    92    89    1
    42    52    53   ar
    43    53    54    1
    44    90    89    1
    45    90    91    2
    46    94    93    1
    47    94    95   ar
    48    88    89    1
    49    88    82   am
    50    81    82    1
    51    81    84    1
    52    82    83    2
    53    86    85   ar
    54    84    85    1
    55    85    87   ar
    56    30    28    1
    57    19    18    1
    58    42    41    1
    59    29    28    1
    60    28    27    2
    61     7     5    1
    62    39    41   ar
    63    39    37   ar
    64    18    16   ar
    65    18    17   ar
    66    41    40   ar
    67    16    14   ar
    68     6     5    1
    69    37    36   ar
    70     5     2    1
    71    27    26    1
    72    34    33    2
    73    17    15   ar
    74    40    38   ar
    75    14    13   ar
    76    36    38   ar
    77    36    35    1
    78    26    25    1
    79     2     1    1
    80     2     3    1
    81    33    32    1
    82    15    13   ar
    83    32    35    1
    84    32    31    1
    85    13    12    1
    86     3     8   am
    87     3     4    2
    88    25    24    1
    89     8     9    1
    90    12     9    1
    91     9    10    1
    92    24    21    1
    93    21    20    1
    94    21    22    1
    95    10    11    2
    96    22    23    2
