@<TRIPOS>MOLECULE
tmp/6dxgA00.pdb
 105 102 0 0 0
SMALL
GASTEIGER

@<TRIPOS>ATOM
      1  N         -1.8100   15.6340  -16.4970 N.3     7  LEU7       -0.1245
      2  CA        -2.5750   16.8670  -16.3910 C.3     7  LEU7        0.1561
      3  C         -2.7890   17.2440  -14.9210 C.2     7  LEU7        0.2260
      4  O         -2.6120   18.4060  -14.5320 O.2     7  LEU7       -0.2867
      5  CB        -3.9110   16.7050  -17.1010 C.3     7  LEU7        0.0270
      6  CG        -3.8190   16.6110  -18.6390 C.3     7  LEU7        0.0019
      7  CD1       -5.1440   16.2130  -19.1960 C.3     7  LEU7        0.0001
      8  CD2       -3.4040   17.9220  -19.1660 C.3     7  LEU7        0.0001
      9  N          0.5000   18.3530  -13.2690 N.3    10  SER10      -0.1202
     10  CA         0.9180   19.6600  -13.7480 C.3    10  SER10       0.2020
     11  C          0.0610   20.7620  -13.1610 C.2    10  SER10       0.2618
     12  O          0.5730   21.8260  -12.7900 O.2    10  SER10      -0.2717
     13  CB         0.8490   19.7060  -15.2920 C.3    10  SER10       0.2103
     14  OG         1.2470   20.9970  -15.7410 O.3    10  SER10      -0.2182
     15  N         -1.2510   20.5310  -13.0850 N.am   11  TYR11      -0.1975
     16  CA        -2.1700   21.5090  -12.5030 C.3    11  TYR11       0.1639
     17  C         -1.8420   21.7640  -11.0400 C.2    11  TYR11       0.2290
     18  O         -1.8440   22.9110  -10.5820 O.2    11  TYR11      -0.2864
     19  CB        -3.6020   20.9890  -12.6820 C.3    11  TYR11       0.0560
     20  CG        -4.7250   21.9590  -12.3210 C.ar   11  TYR11      -0.0198
     21  CD1       -4.8260   23.2200  -12.9150 C.ar   11  TYR11      -0.0009
     22  CD2       -5.6750   21.5950  -11.3630 C.ar   11  TYR11      -0.0009
     23  CE1       -5.8710   24.0970  -12.5620 C.ar   11  TYR11       0.0417
     24  CE2       -6.7020   22.4440  -11.0040 C.ar   11  TYR11       0.0417
     25  CZ        -6.7990   23.6750  -11.5950 C.ar   11  TYR11       0.1957
     26  OH        -7.8340   24.4830  -11.2120 O.3    11  TYR11      -0.2866
     27  N          2.2080   23.1070  -10.8660 N.3    14  GLY14      -0.1210
     28  CA         2.4440   24.3550  -11.5590 C.3    14  GLY14       0.1956
     29  C          1.4270   25.4370  -11.3370 C.2    14  GLY14       0.2611
     30  O          1.6010   26.5390  -11.8640 O.2    14  GLY14      -0.2717
     31  N          0.3580   25.1720  -10.5910 N.am   15  TYR15      -0.1976
     32  CA        -0.5860   26.2280  -10.2790 C.3    15  TYR15       0.1639
     33  C         -1.1100   26.1290   -8.8440 C.2    15  TYR15       0.2290
     34  O         -0.8730   27.0380   -8.0490 O.2    15  TYR15      -0.2864
     35  CB        -1.7460   26.1730  -11.2790 C.3    15  TYR15       0.0560
     36  CG        -2.8370   27.1890  -11.0290 C.ar   15  TYR15      -0.0198
     37  CD1       -2.5530   28.5490  -11.0220 C.ar   15  TYR15      -0.0009
     38  CD2       -4.1380   26.7870  -10.7950 C.ar   15  TYR15      -0.0009
     39  CE1       -3.5450   29.4750  -10.7740 C.ar   15  TYR15       0.0417
     40  CE2       -5.1360   27.7020  -10.5560 C.ar   15  TYR15       0.0417
     41  CZ        -4.8390   29.0380  -10.5600 C.ar   15  TYR15       0.1957
     42  OH        -5.8520   29.9340  -10.3210 O.3    15  TYR15      -0.2866
     43  N          1.4490   37.3820  -10.5930 N.3    77  VAL77      -0.1231
     44  CA         0.1400   37.9330  -10.2410 C.3    77  VAL77       0.1692
     45  C         -0.9800   37.0050  -10.7210 C.2    77  VAL77       0.2592
     46  O         -1.0840   36.7090  -11.9090 O.2    77  VAL77      -0.2718
     47  CB        -0.0470   39.3440  -10.8260 C.3    77  VAL77       0.0266
     48  CG1       -1.4120   39.9270  -10.4750 C.3    77  VAL77       0.0020
     49  CG2        1.0300   40.2610  -10.2420 C.3    77  VAL77       0.0020
     50  N         -1.8250   36.5590   -9.7960 N.am   78  TYR78      -0.1962
     51  CA        -2.8940   35.6140  -10.0980 C.3    78  TYR78       0.1771
     52  C         -4.2470   36.3150  -10.0790 C.2    78  TYR78       0.2620
     53  O         -4.5920   36.9950   -9.1050 O.2    78  TYR78      -0.2715
     54  CB        -2.8900   34.4530   -9.1000 C.3    78  TYR78       0.0574
     55  CG        -1.7900   33.4460   -9.3510 C.ar   78  TYR78      -0.0198
     56  CD1       -1.8090   32.6420  -10.4830 C.ar   78  TYR78      -0.0009
     57  CD2       -0.7300   33.3000   -8.4590 C.ar   78  TYR78      -0.0009
     58  CE1       -0.8100   31.7240  -10.7280 C.ar   78  TYR78       0.0417
     59  CE2        0.2780   32.3710   -8.6930 C.ar   78  TYR78       0.0417
     60  CZ         0.2320   31.5850   -9.8330 C.ar   78  TYR78       0.1957
     61  OH         1.2270   30.6630  -10.0970 O.3    78  TYR78      -0.2866
     62  N         -5.0180   36.1320  -11.1470 N.am   79  SER79      -0.1936
     63  CA        -6.3600   36.6930  -11.2300 C.3    79  SER79       0.2055
     64  C         -7.3720   35.6600  -10.7400 C.2    79  SER79       0.2643
     65  O         -7.3940   34.5210  -11.2220 O.2    79  SER79      -0.2714
     66  CB        -6.6800   37.1240  -12.6620 C.3    79  SER79       0.2130
     67  OG        -8.0290   37.5390  -12.7750 O.3    79  SER79      -0.2179
     68  N         -8.1930   36.0560   -9.7710 N.am   80  ASN80      -0.1971
     69  CA        -9.2190   35.1880   -9.2070 C.3    80  ASN80       0.1688
     70  C        -10.4620   36.0190   -8.9490 C.2    80  ASN80       0.2292
     71  O        -10.3660   37.1760   -8.5380 O.2    80  ASN80      -0.2864
     72  CB        -8.7590   34.5240   -7.9030 C.3    80  ASN80       0.1181
     73  CG        -7.4470   33.8030   -8.0680 C.2    80  ASN80       0.2629
     74  OD1       -6.3770   34.3780   -7.8580 O.2    80  ASN80      -0.2716
     75  ND2       -7.5160   32.5570   -8.4990 N.am   80  ASN80      -0.0877
     76  N        -13.5880   28.8090   -9.9780 N.3    98  GLU98      -0.1245
     77  CA       -13.0010   28.7780  -11.3280 C.3    98  GLU98       0.1567
     78  C        -12.9810   27.3580  -11.8740 C.2    98  GLU98       0.2260
     79  O        -13.0150   26.3870  -11.1270 O.2    98  GLU98      -0.2867
     80  CB       -11.5910   29.3890  -11.3430 C.3    98  GLU98       0.0388
     81  CG       -10.5870   28.6750  -10.5140 C.3    98  GLU98       0.1160
     82  CD        -9.2770   29.4750  -10.3970 C.2    98  GLU98       0.3649
     83  OE1       -9.3080   30.6800  -10.0430 O.co2  98  GLU98      -0.2457
     84  OE2       -8.2130   28.8950  -10.6910 O.co2  98  GLU98      -0.2457
     85  N         -8.7490   24.3030  -15.6650 N.3   101  THR101     -0.1204
     86  CA        -8.3520   24.4900  -17.0670 C.3   101  THR101      0.1979
     87  C         -7.9050   23.2130  -17.7730 C.2   101  THR101      0.2459
     88  O         -8.0890   23.1490  -19.0060 O.2   101  THR101     -0.2732
     89  CB        -7.2260   25.5410  -17.1590 C.3   101  THR101      0.1783
     90  OG1       -6.0440   25.0430  -16.5290 O.3   101  THR101     -0.2211
     91  CG2       -7.6000   26.8380  -16.4870 C.3   101  THR101      0.0376
     92  N         -7.2650   22.2210  -17.1160 N.am  102  PRO102     -0.2728
     93  CA        -6.8500   21.0140  -17.8580 C.3   102  PRO102      0.1401
     94  C         -7.9850   20.3320  -18.5680 C.2   102  PRO102      0.2269
     95  O         -7.7550   19.6320  -19.5680 O.2   102  PRO102     -0.2865
     96  CB        -6.2540   20.1130  -16.7770 C.3   102  PRO102      0.0296
     97  CG        -5.7550   21.0780  -15.7320 C.3   102  PRO102      0.0237
     98  CD        -6.7700   22.1930  -15.7220 C.3   102  PRO102      0.0939
     99  N         -8.0400   20.9980  -22.1950 N.3   105  THR105     -0.1218
    100  CA        -7.1340   20.2010  -23.0020 C.3   105  THR105      0.1862
    101  C         -7.8050   18.9150  -23.4150 C.2   105  THR105      0.2287
    102  O         -7.7420   18.5340  -24.5960 O.2   105  THR105     -0.2866
    103  CB        -5.8420   19.9210  -22.2400 C.3   105  THR105      0.1770
    104  OG1       -5.1390   21.1550  -22.1020 O.3   105  THR105     -0.2211
    105  CG2       -4.9660   18.9100  -22.9690 C.3   105  THR105      0.0375
@<TRIPOS>BOND
     1   102   101    2
     2   101   100    1
     3   100   103    1
     4   100    99    1
     5   105   103    1
     6   103   104    1
     7    95    94    2
     8     7     6    1
     9     8     6    1
    10    88    87    2
    11     6     5    1
    12    94    93    1
    13    93    92    1
    14    93    96    1
    15    87    92   am
    16    87    86    1
    17    89    86    1
    18    89    90    1
    19    89    91    1
    20    92    98    1
    21     5     2    1
    22    86    85    1
    23    96    97    1
    24     1     2    1
    25     2     3    1
    26    14    13    1
    27    97    98    1
    28    13    10    1
    29     3     4    2
    30    10     9    1
    31    10    11    1
    32    11    15   am
    33    11    12    2
    34    15    16    1
    35    21    23   ar
    36    21    20   ar
    37    67    66    1
    38    19    16    1
    39    19    20    1
    40    66    63    1
    41    23    25   ar
    42    16    17    1
    43    20    22   ar
    44    46    45    2
    45    78    77    1
    46    78    79    2
    47    30    29    2
    48    25    26    1
    49    25    24   ar
    50    28    29    1
    51    28    27    1
    52    22    24   ar
    53    80    77    1
    54    80    81    1
    55    29    31   am
    56    77    76    1
    57    35    36    1
    58    35    32    1
    59    63    62    1
    60    63    64    1
    61    65    64    2
    62    62    52   am
    63    17    18    2
    64    36    37   ar
    65    36    38   ar
    66    37    39   ar
    67    47    48    1
    68    47    49    1
    69    47    44    1
    70    38    40   ar
    71    39    41   ar
    72    64    68   am
    73    58    56   ar
    74    58    60   ar
    75    45    44    1
    76    45    50   am
    77    84    82   ar
    78    43    44    1
    79    31    32    1
    80    41    40   ar
    81    41    42    1
    82    81    82    1
    83    56    55   ar
    84    82    83   ar
    85    32    33    1
    86    51    52    1
    87    51    50    1
    88    51    54    1
    89    61    60    1
    90    52    53    2
    91    60    59   ar
    92    68    69    1
    93    55    54    1
    94    55    57   ar
    95    69    70    1
    96    69    72    1
    97    70    71    2
    98    33    34    2
    99    59    57   ar
   100    75    73   am
   101    73    72    1
   102    73    74    2
