@<TRIPOS>MOLECULE
tmp/6dxhA00.pdb
 89 87 0 0 0
SMALL
GASTEIGER

@<TRIPOS>ATOM
      1  N         -0.1540   15.2020   14.3020 N.3    37  TRP37      -0.1241
      2  CA         0.7740   15.9150   15.0970 C.3    37  TRP37       0.1605
      3  C          0.3720   15.8890   16.5760 C.2    37  TRP37       0.2264
      4  O         -0.7890   16.2180   16.9460 O.2    37  TRP37      -0.2867
      5  CB         0.8220   17.3480   14.5940 C.3    37  TRP37       0.0550
      6  CG         1.3740   17.4480   13.2250 C.ar   37  TRP37       0.0003
      7  CD1        0.6740   17.3810   12.0580 C.ar   37  TRP37       0.0946
      8  CD2        2.7450   17.6460   12.8710 C.ar   37  TRP37       0.0152
      9  NE1        1.5290   17.5370   10.9980 N.ar   37  TRP37      -0.2442
     10  CE2        2.7980   17.7070   11.4620 C.ar   37  TRP37       0.0810
     11  CE3        3.9250   17.7930   13.5960 C.ar   37  TRP37       0.0012
     12  CZ2        3.9830   17.8880   10.7690 C.ar   37  TRP37       0.0191
     13  CZ3        5.1010   17.9850   12.9120 C.ar   37  TRP37       0.0001
     14  CH2        5.1270   18.0400   11.5140 C.ar   37  TRP37       0.0015
     15  N         -2.7470   17.5410   10.3170 N.3    48  GLY48      -0.1210
     16  CA        -1.9800   18.6120    9.7010 C.3    48  GLY48       0.1956
     17  C         -2.7840   19.5080    8.7470 C.2    48  GLY48       0.2611
     18  O         -3.9720   19.2960    8.4960 O.2    48  GLY48      -0.2717
     19  N         -2.1080   20.5470    8.2590 N.am   49  ARG49      -0.1979
     20  CA        -2.6860   21.5720    7.4200 C.3    49  ARG49       0.1597
     21  C         -3.1720   20.9260    6.1280 C.2    49  ARG49       0.2287
     22  O         -2.5880   19.9530    5.6650 O.2    49  ARG49      -0.2864
     23  CB        -1.6780   22.6760    7.1040 C.3    49  ARG49       0.0334
     24  CG        -1.3390   23.5590    8.2860 C.3    49  ARG49       0.0492
     25  CD        -0.0530   24.3180    8.0680 C.3    49  ARG49       0.2205
     26  NE        -0.2140   25.7300    8.3900 N.pl3  49  ARG49      -0.0865
     27  CZ         0.5030   26.4240    9.2800 C.cat  49  ARG49       0.5346
     28  NH1        1.5370   25.8770    9.9020 N.pl3  49  ARG49       0.1354
     29  NH2        0.1710   27.6840    9.5270 N.pl3  49  ARG49       0.1354
     30  N         -4.6350   20.5860   13.9840 N.3    61  ALA61      -0.1231
     31  CA        -3.4750   20.8870   14.8280 C.3    61  ALA61       0.1694
     32  C         -3.1650   22.3930   14.8070 C.2    61  ALA61       0.2591
     33  O         -2.8870   23.0090   15.8290 O.2    61  ALA61      -0.2718
     34  CB        -2.2990   20.0880   14.3410 C.3    61  ALA61       0.0304
     35  N         -3.2270   22.9880   13.6220 N.am   62  VAL62      -0.1980
     36  CA        -2.8660   24.3760   13.5050 C.3    62  VAL62       0.1595
     37  C         -3.9570   25.2220   14.1570 C.2    62  VAL62       0.2287
     38  O         -3.6400   26.1720   14.8470 O.2    62  VAL62      -0.2864
     39  CB        -2.5840   24.7830   12.0460 C.3    62  VAL62       0.0276
     40  CG1       -3.8050   24.6610   11.1470 C.3    62  VAL62       0.0022
     41  CG2       -2.0050   26.1900   11.9760 C.3    62  VAL62       0.0022
     42  N          7.9780   20.1930   14.7260 N.3    87  TYR87      -0.1241
     43  CA         7.6580   21.4810   14.1460 C.3    87  TYR87       0.1605
     44  C          7.3070   22.4670   15.2390 C.2    87  TYR87       0.2264
     45  O          6.6390   22.0930   16.2150 O.2    87  TYR87      -0.2867
     46  CB         6.5160   21.3530   13.1340 C.3    87  TYR87       0.0534
     47  CG         6.1010   22.6650   12.5210 C.ar   87  TYR87      -0.0201
     48  CD1        6.8880   23.3260   11.5840 C.ar   87  TYR87      -0.0009
     49  CD2        4.9090   23.2620   12.8990 C.ar   87  TYR87      -0.0009
     50  CE1        6.4810   24.5390   11.0370 C.ar   87  TYR87       0.0417
     51  CE2        4.4950   24.4730   12.3750 C.ar   87  TYR87       0.0417
     52  CZ         5.2780   25.1160   11.4410 C.ar   87  TYR87       0.1957
     53  OH         4.8020   26.3130   10.9870 O.3    87  TYR87      -0.2866
     54  N          5.2510   25.9850   15.6450 N.3    89  TYR89      -0.1241
     55  CA         4.2210   26.8310   15.0300 C.3    89  TYR89       0.1605
     56  C          4.6690   28.2840   15.2030 C.2    89  TYR89       0.2264
     57  O          4.4570   29.1350   14.3820 O.2    89  TYR89      -0.2867
     58  CB         2.8660   26.6070   15.7160 C.3    89  TYR89       0.0534
     59  CG         2.1100   25.3710   15.2750 C.ar   89  TYR89      -0.0201
     60  CD1        1.4740   25.3200   14.0420 C.ar   89  TYR89      -0.0009
     61  CD2        2.0570   24.2410   16.0730 C.ar   89  TYR89      -0.0009
     62  CE1        0.7830   24.1900   13.6360 C.ar   89  TYR89       0.0417
     63  CE2        1.3690   23.0960   15.6820 C.ar   89  TYR89       0.0417
     64  CZ         0.7300   23.0690   14.4520 C.ar   89  TYR89       0.1957
     65  OH         0.0720   21.9500   14.0600 O.3    89  TYR89      -0.2866
     66  N          7.8540   28.8200   13.2270 N.3    92  ASP92      -0.1225
     67  CA         7.5360   28.4080   11.8660 C.3    92  ASP92       0.1805
     68  C          8.7220   27.6750   11.2260 C.2    92  ASP92       0.2598
     69  O          9.1050   27.9800   10.1010 O.2    92  ASP92      -0.2718
     70  CB         7.0300   29.5780   11.0070 C.3    92  ASP92       0.1424
     71  CG         6.4980   29.1460    9.6400 C.2    92  ASP92       0.3668
     72  OD1        6.2740   27.8980    9.4100 O.co2  92  ASP92      -0.2456
     73  OD2        6.3630   30.0400    8.7790 O.co2  92  ASP92      -0.2456
     74  N          9.2200   26.6250   11.8840 N.am   93  ASP93      -0.1960
     75  CA        10.2860   25.7820   11.3090 C.3    93  ASP93       0.1840
     76  C         10.2420   24.3810   11.9000 C.2    93  ASP93       0.2621
     77  O          9.6790   24.1750   12.9820 O.2    93  ASP93      -0.2715
     78  CB        11.6700   26.3290   11.6650 C.3    93  ASP93       0.1450
     79  CG        12.3000   27.1290   10.5520 C.2    93  ASP93       0.3671
     80  OD1       12.4420   26.5430    9.4540 O.co2  93  ASP93      -0.2456
     81  OD2       12.6040   28.3240   10.7950 O.co2  93  ASP93      -0.2456
     82  N         10.9080   23.4500   11.2260 N.am   94  MET94      -0.1977
     83  CA        11.3020   22.2260   11.8550 C.3    94  MET94       0.1605
     84  C         12.4240   22.5700   12.8390 C.2    94  MET94       0.2287
     85  O         13.3140   23.3570   12.5130 O.2    94  MET94      -0.2864
     86  CB        11.7970   21.1870   10.8650 C.3    94  MET94       0.0413
     87  CG        10.8060   20.8850    9.7640 C.3    94  MET94       0.0598
     88  SD         9.1910   20.4110   10.4090 S.3    94  MET94      -0.1393
     89  CE         9.4890   18.7150   10.9050 C.3    94  MET94       0.0692
@<TRIPOS>BOND
     1    22    21    2
     2    21    20    1
     3    23    20    1
     4    23    24    1
     5    20    19    1
     6    25    24    1
     7    25    26    1
     8    19    17   am
     9    26    27    2
    10    18    17    2
    11    17    16    1
    12    73    71   ar
    13    27    29    1
    14    27    28    1
    15    72    71   ar
    16    80    79   ar
    17    71    70    1
    18    16    15    1
    19    87    88    1
    20    87    86    1
    21    69    68    2
    22    88    89    1
    23    79    81   ar
    24    79    78    1
    25    12    10   ar
    26    12    14   ar
    27    86    83    1
    28    53    52    1
    29     9    10   ar
    30     9     7   ar
    31    70    67    1
    32    50    52   ar
    33    50    48   ar
    34    40    39    1
    35    68    67    1
    36    68    74   am
    37    82    83    1
    38    82    76   am
    39    75    78    1
    40    75    74    1
    41    75    76    1
    42    52    51   ar
    43    10     8   ar
    44    14    13   ar
    45    48    47   ar
    46    83    84    1
    47    67    66    1
    48    76    77    2
    49    41    39    1
    50    39    36    1
    51     7     6   ar
    52    51    49   ar
    53    85    84    2
    54    47    49   ar
    55    47    46    1
    56     8     6   ar
    57     8    11   ar
    58    13    11   ar
    59    46    43    1
    60     6     5    1
    61    36    35    1
    62    36    37    1
    63    35    32   am
    64    62    60   ar
    65    62    64   ar
    66    30    31    1
    67    60    59   ar
    68    65    64    1
    69    43    42    1
    70    43    44    1
    71    37    38    2
    72     1     2    1
    73    34    31    1
    74    57    56    2
    75    64    63   ar
    76     5     2    1
    77    32    31    1
    78    32    33    2
    79    55    56    1
    80    55    54    1
    81    55    58    1
    82     2     3    1
    83    44    45    2
    84    59    58    1
    85    59    61   ar
    86    63    61   ar
    87     3     4    2
