@<TRIPOS>MOLECULE
tmp/6dxlA00.pdb
 98 95 0 0 0
SMALL
GASTEIGER

@<TRIPOS>ATOM
      1  N         74.2440  -12.1870   71.0500 N.3     7  LEU7       -0.1245
      2  CA        73.8340  -12.0670   72.4460 C.3     7  LEU7        0.1561
      3  C         73.7630  -10.6050   72.8740 C.2     7  LEU7        0.2260
      4  O         72.8210  -10.1940   73.5650 O.2     7  LEU7       -0.2867
      5  CB        74.7890  -12.8510   73.3490 C.3     7  LEU7        0.0270
      6  CG        74.7270  -14.3760   73.2430 C.3     7  LEU7        0.0019
      7  CD1       75.7770  -14.9990   74.1410 C.3     7  LEU7        0.0001
      8  CD2       73.3490  -14.8920   73.6160 C.3     7  LEU7        0.0001
      9  N         70.7850   -8.8350   71.1770 N.3    10  SER10      -0.1202
     10  CA        69.5160   -9.2980   71.7150 C.3    10  SER10       0.2020
     11  C         69.2900   -8.7460   73.1110 C.2    10  SER10       0.2618
     12  O         68.1670   -8.3790   73.4640 O.2    10  SER10      -0.2717
     13  CB        69.4730  -10.8210   71.7410 C.3    10  SER10       0.2103
     14  OG        68.2530  -11.2390   72.3180 O.3    10  SER10      -0.2182
     15  N         70.3440   -8.7060   73.9260 N.am   11  TYR11      -0.1975
     16  CA        70.2300   -8.1340   75.2610 C.3    11  TYR11       0.1639
     17  C         69.7830   -6.6800   75.1900 C.2    11  TYR11       0.2290
     18  O         68.9060   -6.2490   75.9510 O.2    11  TYR11      -0.2864
     19  CB        71.5740   -8.2620   75.9780 C.3    11  TYR11       0.0560
     20  CG        71.5540   -7.9290   77.4500 C.ar   11  TYR11      -0.0198
     21  CD1       70.6970   -8.5860   78.3210 C.ar   11  TYR11      -0.0009
     22  CD2       72.4160   -6.9730   77.9730 C.ar   11  TYR11      -0.0009
     23  CE1       70.6890   -8.2890   79.6730 C.ar   11  TYR11       0.0417
     24  CE2       72.4160   -6.6670   79.3250 C.ar   11  TYR11       0.0417
     25  CZ        71.5500   -7.3270   80.1690 C.ar   11  TYR11       0.1957
     26  OH        71.5470   -7.0280   81.5130 O.3    11  TYR11      -0.2866
     27  N         66.0140   -6.5240   73.0350 N.3    14  GLY14      -0.1210
     28  CA        64.9070   -7.1710   73.7060 C.3    14  GLY14       0.1956
     29  C         64.7700   -6.8660   75.1750 C.2    14  GLY14       0.2611
     30  O         63.7620   -7.2430   75.7790 O.2    14  GLY14      -0.2717
     31  N         65.7440   -6.1850   75.7760 N.am   15  TYR15      -0.1976
     32  CA        65.6720   -5.9270   77.2100 C.3    15  TYR15       0.1639
     33  C         66.0650   -4.5010   77.5980 C.2    15  TYR15       0.2290
     34  O         65.2300   -3.7520   78.1140 O.2    15  TYR15      -0.2864
     35  CB        66.5420   -6.9320   77.9680 C.3    15  TYR15       0.0560
     36  CG        66.4470   -6.7620   79.4620 C.ar   15  TYR15      -0.0198
     37  CD1       65.2330   -6.9180   80.1170 C.ar   15  TYR15      -0.0009
     38  CD2       67.5630   -6.4330   80.2170 C.ar   15  TYR15      -0.0009
     39  CE1       65.1330   -6.7500   81.4820 C.ar   15  TYR15       0.0417
     40  CE2       67.4740   -6.2690   81.5800 C.ar   15  TYR15       0.0417
     41  CZ        66.2570   -6.4290   82.2110 C.ar   15  TYR15       0.1957
     42  OH        66.1660   -6.2590   83.5780 O.3    15  TYR15      -0.2866
     43  N         58.8350   -7.0780   84.8330 N.3    77  TYR77      -0.1227
     44  CA        60.2570   -6.7870   84.9800 C.3    77  TYR77       0.1736
     45  C         60.5790   -6.3390   86.4030 C.2    77  TYR77       0.2596
     46  O         60.1620   -5.2620   86.8300 O.2    77  TYR77      -0.2718
     47  CB        60.6890   -5.7090   83.9850 C.3    77  TYR77       0.0548
     48  CG        60.5280   -6.1670   82.5590 C.ar   77  TYR77      -0.0200
     49  CD1       61.2940   -7.2380   82.0840 C.ar   77  TYR77      -0.0009
     50  CD2       59.5940   -5.5950   81.7130 C.ar   77  TYR77      -0.0009
     51  CE1       61.1670   -7.6100   80.7730 C.ar   77  TYR77       0.0417
     52  CE2       59.4410   -5.9920   80.4120 C.ar   77  TYR77       0.0417
     53  CZ        60.2320   -7.0350   79.9390 C.ar   77  TYR77       0.1957
     54  OH        60.1510   -7.4770   78.6350 O.3    77  TYR77      -0.2866
     55  N         61.3220   -7.1660   87.1350 N.am   78  SER78      -0.1938
     56  CA        61.6990   -6.8660   88.5090 C.3    78  SER78       0.2055
     57  C         63.1570   -6.4310   88.5660 C.2    78  SER78       0.2643
     58  O         64.0450   -7.1410   88.0830 O.2    78  SER78      -0.2714
     59  CB        61.4770   -8.0740   89.4200 C.3    78  SER78       0.2130
     60  OG        62.2600   -9.1800   89.0060 O.3    78  SER78      -0.2179
     61  N         63.3920   -5.2590   89.1520 N.am   79  ASN79      -0.1971
     62  CA        64.7290   -4.7510   89.4120 C.3    79  ASN79       0.1688
     63  C         64.9050   -4.5670   90.9100 C.2    79  ASN79       0.2292
     64  O         63.9590   -4.2190   91.6240 O.2    79  ASN79      -0.2864
     65  CB        64.9690   -3.4290   88.6880 C.3    79  ASN79       0.1181
     66  CG        64.9190   -3.5800   87.1860 C.2    79  ASN79       0.2629
     67  OD1       65.9470   -3.5620   86.5150 O.2    79  ASN79      -0.2716
     68  ND2       63.7170   -3.7500   86.6530 N.am   79  ASN79      -0.0877
     69  N         72.2980   -5.4530   88.5720 N.3    97  GLU97      -0.1245
     70  CA        71.9380   -6.7960   88.1240 C.3    97  GLU97       0.1567
     71  C         72.9600   -7.3120   87.1190 C.2    97  GLU97       0.2260
     72  O         73.6850   -6.5410   86.4830 O.2    97  GLU97      -0.2867
     73  CB        70.5120   -6.8380   87.5420 C.3    97  GLU97       0.0388
     74  CG        70.2390   -5.9740   86.3160 C.3    97  GLU97       0.1160
     75  CD        68.7750   -6.0350   85.8800 C.2    97  GLU97       0.3649
     76  OE1       67.9070   -5.5070   86.6140 O.co2  97  GLU97      -0.2457
     77  OE2       68.4860   -6.6250   84.8130 O.co2  97  GLU97      -0.2457
     78  N         72.4510  -11.3140   82.0250 N.3   100  THR100     -0.1204
     79  CA        72.0710  -12.7230   81.9610 C.3   100  THR100      0.1979
     80  C         72.6110  -13.4660   80.7410 C.2   100  THR100      0.2459
     81  O         72.7710  -14.6950   80.8360 O.2   100  THR100     -0.2732
     82  CB        70.5420  -12.8450   82.0060 C.3   100  THR100      0.1783
     83  OG1       69.9670  -12.0080   80.9970 O.3   100  THR100     -0.2211
     84  CG2       70.0100  -12.4280   83.3650 C.3   100  THR100      0.0376
     85  N         72.8900  -12.8310   79.5990 N.am  101  PRO101     -0.2728
     86  CA        73.4470  -13.5960   78.4720 C.3   101  PRO101      0.1401
     87  C         74.7450  -14.3010   78.8020 C.2   101  PRO101      0.2269
     88  O         75.0890  -15.2780   78.1280 O.2   101  PRO101     -0.2865
     89  CB        73.6450  -12.5340   77.3840 C.3   101  PRO101      0.0296
     90  CG        72.6600  -11.4720   77.7120 C.3   101  PRO101      0.0237
     91  CD        72.5620  -11.4500   79.2080 C.3   101  PRO101      0.0939
     92  N         74.3040  -17.8250   79.3360 N.3   104  THR104     -0.1218
     93  CA        74.2890  -18.6060   78.1060 C.3   104  THR104      0.1862
     94  C         75.6930  -19.0680   77.7430 C.2   104  THR104      0.2287
     95  O         75.9240  -20.2630   77.5180 O.2   104  THR104     -0.2866
     96  CB        73.6730  -17.7870   76.9710 C.3   104  THR104      0.1770
     97  OG1       72.3000  -17.5170   77.2790 O.3   104  THR104     -0.2211
     98  CG2       73.7540  -18.5380   75.6520 C.3   104  THR104      0.0375
@<TRIPOS>BOND
     1     1     2    1
     2     9    10    1
     3    10    13    1
     4    10    11    1
     5    13    14    1
     6     2     3    1
     7     2     5    1
     8     3     4    2
     9    27    28    1
    10    11    12    2
    11    11    15   am
    12     6     5    1
    13     6     8    1
    14     6     7    1
    15    28    29    1
    16    15    16    1
    17    29    31   am
    18    29    30    2
    19    17    16    1
    20    17    18    2
    21    16    19    1
    22    98    96    1
    23    31    32    1
    24    19    20    1
    25    96    97    1
    26    96    93    1
    27    32    33    1
    28    32    35    1
    29    89    90    1
    30    89    86    1
    31    20    22   ar
    32    20    21   ar
    33    95    94    2
    34    33    34    2
    35    90    91    1
    36    94    93    1
    37    35    36    1
    38    22    24   ar
    39    93    92    1
    40    88    87    2
    41    21    23   ar
    42    86    87    1
    43    86    85    1
    44    54    53    1
    45    91    85    1
    46    24    25   ar
    47    36    37   ar
    48    36    38   ar
    49    85    80   am
    50    23    25   ar
    51    53    52   ar
    52    53    51   ar
    53    37    39   ar
    54    25    26    1
    55    38    40   ar
    56    52    50   ar
    57    80    81    2
    58    80    79    1
    59    51    49   ar
    60    83    82    1
    61    39    41   ar
    62    40    41   ar
    63    50    48   ar
    64    79    82    1
    65    79    78    1
    66    82    84    1
    67    49    48   ar
    68    41    42    1
    69    48    47    1
    70    47    44    1
    71    77    75   ar
    72    43    44    1
    73    44    45    1
    74    75    74    1
    75    75    76   ar
    76    74    73    1
    77    45    46    2
    78    45    55   am
    79    72    71    2
    80    67    66    2
    81    68    66   am
    82    71    70    1
    83    55    56    1
    84    66    65    1
    85    73    70    1
    86    58    57    2
    87    70    69    1
    88    56    57    1
    89    56    59    1
    90    57    61   am
    91    65    62    1
    92    60    59    1
    93    61    62    1
    94    62    63    1
    95    63    64    2
