@<TRIPOS>MOLECULE
tmp/6dxnB00.pdb
 94 91 0 0 0
SMALL
GASTEIGER

@<TRIPOS>ATOM
      1  N         19.7420   -3.3280   21.7150 N.3    34  PRO34      -0.2116
      2  CA        18.7960   -3.5730   22.8050 C.3    34  PRO34       0.1372
      3  C         17.4170   -2.9470   22.5370 C.2    34  PRO34       0.2244
      4  O         16.4190   -3.4560   23.0170 O.2    34  PRO34      -0.2868
      5  CB        19.4860   -2.9450   24.0310 C.3    34  PRO34       0.0268
      6  CG        20.9650   -2.9700   23.6540 C.3    34  PRO34       0.0207
      7  CD        20.9740   -2.6680   22.1750 C.3    34  PRO34       0.0892
      8  N         14.0110   -4.9660   22.5220 N.3    38  PHE38      -0.1241
      9  CA        12.8850   -4.5190   23.3580 C.3    38  PHE38       0.1605
     10  C         11.5990   -4.4430   22.5290 C.2    38  PHE38       0.2264
     11  O         10.5170   -4.6330   23.0550 O.2    38  PHE38      -0.2867
     12  CB        13.1900   -3.1760   24.0260 C.3    38  PHE38       0.0534
     13  CG        13.9050   -3.2800   25.3510 C.ar   38  PHE38      -0.0203
     14  CD1       15.0660   -4.0270   25.4830 C.ar   38  PHE38      -0.0042
     15  CD2       13.4300   -2.6010   26.4610 C.ar   38  PHE38      -0.0042
     16  CE1       15.7070   -4.1330   26.7070 C.ar   38  PHE38      -0.0003
     17  CE2       14.0920   -2.6810   27.6790 C.ar   38  PHE38      -0.0003
     18  CZ        15.2270   -3.4480   27.8010 C.ar   38  PHE38      -0.0000
     19  N         12.6270   -9.5110   22.8920 N.3    42  ILE42      -0.1245
     20  CA        12.2170   -9.5460   24.3090 C.3    42  ILE42       0.1561
     21  C         10.7380   -9.1540   24.4150 C.2    42  ILE42       0.2260
     22  O         10.0050   -9.6800   25.2490 O.2    42  ILE42      -0.2867
     23  CB        13.0820   -8.6080   25.1770 C.3    42  ILE42       0.0252
     24  CG1       14.5810   -8.7800   24.9230 C.3    42  ILE42       0.0019
     25  CG2       12.7310   -8.7750   26.6480 C.3    42  ILE42       0.0019
     26  CD1       15.4540   -7.8230   25.7010 C.3    42  ILE42       0.0001
     27  N         20.0480    4.3430   25.4070 N.3   146  THR146     -0.1204
     28  CA        18.8650    3.7310   24.8250 C.3   146  THR146      0.1979
     29  C         18.9540    2.2170   25.0220 C.2   146  THR146      0.2459
     30  O         20.0400    1.6530   24.9920 O.2   146  THR146     -0.2732
     31  CB        18.6810    4.1130   23.3460 C.3   146  THR146      0.1783
     32  OG1       19.8060    3.6440   22.6070 O.3   146  THR146     -0.2211
     33  CG2       18.5100    5.6020   23.1280 C.3   146  THR146      0.0376
     34  N         17.8100    1.5640   25.2630 N.am  147  PRO147     -0.2728
     35  CA        16.5190    2.2210   25.3780 C.3   147  PRO147      0.1401
     36  C         16.3440    2.7720   26.8040 C.2   147  PRO147      0.2269
     37  O         16.7170    2.1020   27.7760 O.2   147  PRO147     -0.2865
     38  CB        15.4950    1.1190   25.0630 C.3   147  PRO147      0.0296
     39  CG        16.1830   -0.1350   25.5130 C.3   147  PRO147      0.0237
     40  CD        17.6410    0.1080   25.1940 C.3   147  PRO147      0.0939
     41  N         17.3030   -0.4200   33.5840 N.3   159  ASN159     -0.1225
     42  CA        16.9760   -1.6400   32.8340 C.3   159  ASN159      0.1785
     43  C         17.6710   -2.8860   33.3980 C.2   159  ASN159      0.2597
     44  O         17.0620   -3.9480   33.4660 O.2   159  ASN159     -0.2718
     45  CB        17.3400   -1.5070   31.3510 C.3   159  ASN159      0.1169
     46  CG        16.6310   -0.3680   30.6470 C.2   159  ASN159      0.2627
     47  OD1       15.7060    0.2340   31.1870 O.2   159  ASN159     -0.2716
     48  ND2       17.0560   -0.0700   29.4290 N.am  159  ASN159     -0.0877
     49  N         18.9320   -2.7430   33.8170 N.am  160  ALA160     -0.1979
     50  CA        19.7270   -3.8930   34.2670 C.3   160  ALA160      0.1597
     51  C         19.3700   -4.3760   35.6860 C.2   160  ALA160      0.2287
     52  O         19.9570   -5.3540   36.1470 O.2   160  ALA160     -0.2864
     53  CB        21.1880   -3.5320   34.1850 C.3   160  ALA160      0.0319
     54  N         16.5860  -11.4510   35.5500 N.3   164  GLN164     -0.1245
     55  CA        17.3970  -11.8560   34.3940 C.3   164  GLN164      0.1566
     56  C         17.1630  -13.3320   34.0340 C.2   164  GLN164      0.2260
     57  O         17.7510  -13.8180   33.0640 O.2   164  GLN164     -0.2867
     58  CB        18.8820  -11.6280   34.6870 C.3   164  GLN164      0.0367
     59  CG        19.2140  -10.2000   35.1010 C.3   164  GLN164      0.0905
     60  CD        18.8680   -9.1850   34.0380 C.2   164  GLN164      0.2608
     61  OE1       18.8820   -9.4760   32.8420 O.2   164  GLN164     -0.2717
     62  NE2       18.5610   -7.9720   34.4700 N.am  164  GLN164     -0.0878
     63  N         14.8130  -15.3560   32.4610 N.3   166  ASP166     -0.1225
     64  CA        14.6660  -15.4650   31.0130 C.3   166  ASP166      0.1805
     65  C         14.0190  -14.1630   30.5330 C.2   166  ASP166      0.2597
     66  O         13.6940  -13.2980   31.3530 O.2   166  ASP166     -0.2718
     67  CB        13.9880  -16.7670   30.5780 C.3   166  ASP166      0.1424
     68  CG        12.5870  -17.0040   31.1040 C.2   166  ASP166      0.3668
     69  OD1       12.1640  -16.2820   32.0280 O.co2 166  ASP166     -0.2456
     70  OD2       11.9320  -17.9220   30.5740 O.co2 166  ASP166     -0.2456
     71  N         13.8470  -14.0280   29.2140 N.am  167  TYR167     -0.1976
     72  CA        13.3590  -12.7700   28.6410 C.3   167  TYR167      0.1639
     73  C         11.8690  -12.5410   28.9270 C.2   167  TYR167      0.2290
     74  O         11.4410  -11.3910   29.0080 O.2   167  TYR167     -0.2864
     75  CB        13.7030  -12.6920   27.1510 C.3   167  TYR167      0.0560
     76  CG        15.1870  -12.6510   26.8880 C.ar  167  TYR167     -0.0198
     77  CD1       15.9650  -11.6570   27.4580 C.ar  167  TYR167     -0.0009
     78  CD2       15.8140  -13.5780   26.0680 C.ar  167  TYR167     -0.0009
     79  CE1       17.3260  -11.5910   27.2470 C.ar  167  TYR167      0.0417
     80  CE2       17.1800  -13.5250   25.8400 C.ar  167  TYR167      0.0417
     81  CZ        17.9390  -12.5290   26.4350 C.ar  167  TYR167      0.1957
     82  OH        19.2810  -12.4400   26.2350 O.3   167  TYR167     -0.2866
     83  N         11.6820  -11.1220   32.3940 N.3   170  TYR170     -0.1241
     84  CA        12.2410   -9.7780   32.3630 C.3   170  TYR170      0.1605
     85  C         11.1980   -8.7760   31.8430 C.2   170  TYR170      0.2264
     86  O         10.9900   -7.7110   32.4650 O.2   170  TYR170     -0.2867
     87  CB        13.5280   -9.7200   31.5300 C.3   170  TYR170      0.0534
     88  CG        14.1010   -8.3280   31.4470 C.ar  170  TYR170     -0.0201
     89  CD1       14.8950   -7.8150   32.4640 C.ar  170  TYR170     -0.0009
     90  CD2       13.8020   -7.5000   30.3800 C.ar  170  TYR170     -0.0009
     91  CE1       15.3940   -6.5240   32.4090 C.ar  170  TYR170      0.0417
     92  CE2       14.2970   -6.2090   30.3080 C.ar  170  TYR170      0.0417
     93  CZ        15.0840   -5.7130   31.3320 C.ar  170  TYR170      0.1957
     94  OH        15.5620   -4.4370   31.2610 O.3   170  TYR170     -0.2866
@<TRIPOS>BOND
     1     1     7    1
     2     1     2    1
     3     7     6    1
     4     8     9    1
     5    10    11    2
     6    10     9    1
     7     3     2    1
     8     3     4    2
     9    32    31    1
    10     2     5    1
    11    19    20    1
    12    33    31    1
    13    31    28    1
    14     9    12    1
    15     6     5    1
    16    12    13    1
    17    20    21    1
    18    20    23    1
    19    21    22    2
    20    28    29    1
    21    28    27    1
    22    24    23    1
    23    24    26    1
    24    30    29    2
    25    29    34   am
    26    38    35    1
    27    38    39    1
    28    23    25    1
    29    40    34    1
    30    40    39    1
    31    34    35    1
    32    13    14   ar
    33    13    15   ar
    34    35    36    1
    35    14    16   ar
    36    80    78   ar
    37    80    81   ar
    38    78    76   ar
    39    82    81    1
    40    81    79   ar
    41    15    17   ar
    42    16    18   ar
    43    36    37    2
    44    76    75    1
    45    76    77   ar
    46    75    72    1
    47    79    77   ar
    48    17    18   ar
    49    72    73    1
    50    72    71    1
    51    73    74    2
    52    71    65   am
    53    48    46   am
    54    92    90   ar
    55    92    93   ar
    56    90    88   ar
    57    65    64    1
    58    65    66    2
    59    70    68   ar
    60    67    64    1
    61    67    68    1
    62    46    47    2
    63    46    45    1
    64    64    63    1
    65    68    69   ar
    66    94    93    1
    67    93    91   ar
    68    45    42    1
    69    88    87    1
    70    88    89   ar
    71    87    84    1
    72    85    84    1
    73    85    86    2
    74    84    83    1
    75    91    89   ar
    76    42    43    1
    77    42    41    1
    78    61    60    2
    79    57    56    2
    80    43    44    2
    81    43    49   am
    82    49    50    1
    83    56    55    1
    84    60    62   am
    85    60    59    1
    86    53    50    1
    87    50    51    1
    88    55    58    1
    89    55    54    1
    90    58    59    1
    91    51    52    2
