@<TRIPOS>MOLECULE
tmp/6dxpA00.pdb
 163 157 0 0 0
SMALL
GASTEIGER

@<TRIPOS>ATOM
      1  N        -36.5680   -1.9140   36.4520 N.3    15  SER15      -0.1202
      2  CA       -38.0280   -1.8930   36.6040 C.3    15  SER15       0.2020
      3  C        -38.4380   -1.6620   38.0460 C.2    15  SER15       0.2619
      4  O        -37.7110   -2.0080   38.9600 O.2    15  SER15      -0.2717
      5  CB       -38.6980   -3.1600   36.0710 C.3    15  SER15       0.2103
      6  OG       -40.0970   -3.2090   36.4180 O.3    15  SER15      -0.2182
      7  N        -39.5990   -1.0480   38.2230 N.am   16  ILE16      -0.1965
      8  CA       -40.1850   -0.8220   39.5390 C.3    16  ILE16       0.1727
      9  C        -41.2960   -1.8140   39.8220 C.2    16  ILE16       0.2616
     10  O        -42.0290   -1.6520   40.7970 O.2    16  ILE16      -0.2715
     11  CB       -40.7220    0.6220   39.6870 C.3    16  ILE16       0.0290
     12  CG1      -41.9770    0.8810   38.8230 C.3    16  ILE16       0.0022
     13  CG2      -39.6180    1.6130   39.3310 C.3    16  ILE16       0.0023
     14  CD1      -42.7150    2.1430   39.1950 C.3    16  ILE16       0.0001
     15  N        -41.4360   -2.8230   38.9620 N.am   17  ASN17      -0.1972
     16  CA       -42.4730   -3.8490   39.1220 C.3    17  ASN17       0.1688
     17  C        -42.0190   -5.0880   39.9230 C.2    17  ASN17       0.2292
     18  O        -42.8520   -5.9170   40.2950 O.2    17  ASN17      -0.2864
     19  CB       -43.0470   -4.2380   37.7530 C.3    17  ASN17       0.1181
     20  CG       -44.0760   -3.2360   37.2500 C.2    17  ASN17       0.2629
     21  OD1      -44.9770   -2.8380   37.9920 O.2    17  ASN17      -0.2716
     22  ND2      -43.9670   -2.8450   35.9880 N.am   17  ASN17      -0.0877
     23  N        -42.9930   -9.0440   39.2780 N.3    20  THR20      -0.1203
     24  CA       -43.8430   -9.0320   38.0710 C.3    20  THR20       0.1994
     25  C        -43.1550   -8.3950   36.8540 C.2    20  THR20       0.2619
     26  O        -43.7780   -8.2240   35.8080 O.2    20  THR20      -0.2717
     27  CB       -45.1850   -8.2640   38.2910 C.3    20  THR20       0.1784
     28  OG1      -45.5460   -8.2680   39.6740 O.3    20  THR20      -0.2211
     29  CG2      -46.3400   -8.8920   37.4890 C.3    20  THR20       0.0376
     30  N        -41.8850   -8.0240   36.9700 N.am   21  SER21      -0.1937
     31  CA       -41.2390   -7.2430   35.9090 C.3    21  SER21       0.2055
     32  C        -41.0180   -8.0570   34.6420 C.2    21  SER21       0.2643
     33  O        -40.1490   -8.9240   34.6080 O.2    21  SER21      -0.2714
     34  CB       -39.9040   -6.6590   36.3890 C.3    21  SER21       0.2130
     35  OG       -39.0530   -6.3160   35.2980 O.3    21  SER21      -0.2179
     36  N        -41.7820   -7.7390   33.6020 N.am   22  LEU22      -0.1963
     37  CA       -41.6000   -8.3410   32.2990 C.3    22  LEU22       0.1728
     38  C        -40.2010   -8.1630   31.7100 C.2    22  LEU22       0.2616
     39  O        -39.6980   -9.1010   31.0960 O.2    22  LEU22      -0.2715
     40  CB       -42.6100   -7.7950   31.3190 C.3    22  LEU22       0.0311
     41  CG       -42.6170   -8.4380   29.9430 C.3    22  LEU22       0.0022
     42  CD1      -42.9600   -9.9210   30.0040 C.3    22  LEU22       0.0001
     43  CD2      -43.6440   -7.6960   29.1140 C.3    22  LEU22       0.0001
     44  N        -39.5730   -6.9930   31.8780 N.am   23  THR23      -0.1951
     45  CA       -38.1790   -6.8110   31.3960 C.3    23  THR23       0.1897
     46  C        -37.1860   -7.6960   32.1720 C.2    23  THR23       0.2313
     47  O        -36.1490   -8.1290   31.5980 O.2    23  THR23      -0.2863
     48  CB       -37.6680   -5.3300   31.3710 C.3    23  THR23       0.1794
     49  OG1      -37.8290   -4.6810   32.6420 O.3    23  THR23      -0.2208
     50  CG2      -38.3910   -4.5410   30.3050 C.3    23  THR23       0.0378
     51  N        -37.6450   -0.6010   30.5310 N.3    99  PRO99      -0.2102
     52  CA       -39.0380   -0.4640   30.1010 C.3    99  PRO99       0.1504
     53  C        -39.3850    1.0000   29.9420 C.2    99  PRO99       0.2576
     54  O        -38.7960    1.8330   30.6010 O.2    99  PRO99      -0.2718
     55  CB       -39.8320   -1.0990   31.2310 C.3    99  PRO99       0.0282
     56  CG       -38.9270   -1.0060   32.4270 C.3    99  PRO99       0.0208
     57  CD       -37.5020   -1.0400   31.9200 C.3    99  PRO99       0.0893
     58  N        -40.2980    1.3400   29.0610 N.am  100  MET100     -0.1966
     59  CA       -40.5820    2.7370   28.8480 C.3   100  MET100      0.1736
     60  C        -41.5480    3.2280   29.9150 C.2   100  MET100      0.2616
     61  O        -42.6290    2.6350   30.0780 O.2   100  MET100     -0.2715
     62  CB       -41.2040    2.9350   27.4790 C.3   100  MET100      0.0427
     63  CG       -41.4750    4.3950   27.1650 C.3   100  MET100      0.0599
     64  SD       -42.3460    4.5870   25.6400 S.3   100  MET100     -0.1393
     65  CE       -40.9730    4.2690   24.4940 C.3   100  MET100      0.0692
     66  N        -41.1400    4.3020   30.6120 N.am  101  TYR101     -0.1960
     67  CA       -41.9710    5.0220   31.5840 C.3   101  TYR101      0.1771
     68  C        -42.0590    6.4980   31.2310 C.2   101  TYR101      0.2620
     69  O        -41.0420    7.1930   31.1950 O.2   101  TYR101     -0.2715
     70  CB       -41.4380    4.9330   33.0260 C.3   101  TYR101      0.0574
     71  CG       -41.3660    3.5570   33.6820 C.ar  101  TYR101     -0.0198
     72  CD1      -42.0580    2.4550   33.1820 C.ar  101  TYR101     -0.0009
     73  CD2      -40.6130    3.3800   34.8320 C.ar  101  TYR101     -0.0009
     74  CE1      -41.9800    1.2140   33.7920 C.ar  101  TYR101      0.0417
     75  CE2      -40.5180    2.1470   35.4460 C.ar  101  TYR101      0.0417
     76  CZ       -41.2050    1.0570   34.9270 C.ar  101  TYR101      0.1957
     77  OH       -41.1190   -0.1840   35.5460 O.3   101  TYR101     -0.2866
     78  N        -43.2860    6.9750   31.0010 N.am  102  ASN102     -0.1958
     79  CA       -43.5620    8.3620   30.6240 C.3   102  ASN102      0.1819
     80  C        -42.5300    8.8310   29.6020 C.2   102  ASN102      0.2621
     81  O        -41.7870    9.8150   29.7700 O.2   102  ASN102     -0.2715
     82  CB       -43.6350    9.2140   31.8620 C.3   102  ASN102      0.1195
     83  CG       -44.5110    8.5800   32.9260 C.2   102  ASN102      0.2630
     84  OD1      -45.6980    8.3290   32.6990 O.2   102  ASN102     -0.2716
     85  ND2      -43.9330    8.3030   34.0840 N.am  102  ASN102     -0.0877
     86  N        -42.4880    7.9970   28.5680 N.am  103  LEU103     -0.1977
     87  CA       -41.6700    8.1060   27.3700 C.3   103  LEU103      0.1596
     88  C        -40.1680    8.2090   27.5580 C.2   103  LEU103      0.2287
     89  O        -39.4480    8.4770   26.5960 O.2   103  LEU103     -0.2864
     90  CB       -42.2610    9.1610   26.4400 C.3   103  LEU103      0.0297
     91  CG       -43.7040    8.7380   26.0880 C.3   103  LEU103      0.0022
     92  CD1      -44.7570    9.5420   26.8480 C.3   103  LEU103      0.0001
     93  CD2      -43.9000    8.8200   24.5880 C.3   103  LEU103      0.0001
     94  N        -39.5760   -3.0130   27.1050 N.3   144  SER144     -0.1202
     95  CA       -41.0320   -3.1840   26.9130 C.3   144  SER144      0.2020
     96  C        -41.8360   -1.9080   27.0380 C.2   144  SER144      0.2619
     97  O        -41.4340   -0.9700   27.7040 O.2   144  SER144     -0.2717
     98  CB       -41.6270   -4.2200   27.8670 C.3   144  SER144      0.2103
     99  OG       -41.3550   -3.9230   29.2130 O.3   144  SER144     -0.2182
    100  N        -42.9890   -1.9230   26.3740 N.am  145  ARG145     -0.1965
    101  CA       -43.8560   -0.7670   26.1620 C.3   145  ARG145      0.1729
    102  C        -45.2880   -1.2610   26.0450 C.2   145  ARG145      0.2617
    103  O        -45.5350   -2.2590   25.3720 O.2   145  ARG145     -0.2715
    104  CB       -43.5310   -0.0860   24.8320 C.3   145  ARG145      0.0348
    105  CG       -42.1040    0.4250   24.6710 C.3   145  ARG145      0.0492
    106  CD       -41.1590   -0.6000   24.0880 C.3   145  ARG145      0.2205
    107  NE       -39.7960   -0.1080   24.1440 N.pl3 145  ARG145     -0.0865
    108  CZ       -39.2760    0.7840   23.3090 C.cat 145  ARG145      0.5346
    109  NH1      -40.0090    1.2930   22.3150 N.pl3 145  ARG145      0.1354
    110  NH2      -38.0090    1.1720   23.4650 N.pl3 145  ARG145      0.1354
    111  N        -46.2240   -0.5660   26.6760 N.am  146  GLY146     -0.1940
    112  CA       -47.6520   -0.8730   26.5360 C.3   146  GLY146      0.2014
    113  C        -48.2880   -0.3630   25.2390 C.2   146  GLY146      0.2639
    114  O        -49.3740   -0.8120   24.8450 O.2   146  GLY146     -0.2714
    115  N        -47.6390    0.6060   24.5920 N.am  147  GLY147     -0.1954
    116  CA       -48.0600    1.0790   23.2830 C.3   147  GLY147      0.1869
    117  C        -48.9760    2.2910   23.2680 C.2   147  GLY147      0.2309
    118  O        -48.8210    3.2330   24.0470 O.2   147  GLY147     -0.2863
    119  N        -50.9280    3.6030   26.3090 N.3   150  GLN150     -0.1245
    120  CA       -50.1230    4.4130   27.2650 C.3   150  GLN150      0.1566
    121  C        -49.5240    5.7010   26.6710 C.2   150  GLN150      0.2260
    122  O        -48.6200    6.2920   27.2580 O.2   150  GLN150     -0.2867
    123  CB       -48.9730    3.5580   27.8090 C.3   150  GLN150      0.0367
    124  CG       -49.4250    2.2890   28.5070 C.3   150  GLN150      0.0905
    125  CD       -49.7170    2.5230   29.9690 C.2   150  GLN150      0.2608
    126  OE1      -50.4950    3.4130   30.3220 O.2   150  GLN150     -0.2717
    127  NE2      -49.0710    1.7440   30.8350 N.am  150  GLN150     -0.0878
    128  N        -47.7010    5.8770   23.6170 N.3   152  GLU152     -0.1245
    129  CA       -46.3890    5.7430   22.9370 C.3   152  GLU152      0.1567
    130  C        -46.4070    6.3970   21.5460 C.2   152  GLU152      0.2260
    131  O        -46.5260    5.6960   20.5340 O.2   152  GLU152     -0.2867
    132  CB       -45.9580    4.2760   22.8270 C.3   152  GLU152      0.0388
    133  CG       -44.4910    4.0970   22.3970 C.3   152  GLU152      0.1160
    134  CD       -44.1410    2.6470   22.0760 C.2   152  GLU152      0.3649
    135  OE1      -44.9720    1.7710   22.4280 O.co2 152  GLU152     -0.2457
    136  OE2      -43.0600    2.3870   21.4770 O.co2 152  GLU152     -0.2457
    137  N        -48.0000   -4.0440   24.4100 N.3   181  LEU181     -0.1231
    138  CA       -48.3830   -5.0280   25.4290 C.3   181  LEU181      0.1693
    139  C        -49.7060   -4.7440   26.1160 C.2   181  LEU181      0.2592
    140  O        -50.1600   -5.5670   26.9010 O.2   181  LEU181     -0.2718
    141  CB       -47.3170   -5.1050   26.5230 C.3   181  LEU181      0.0284
    142  CG       -45.8940   -5.3700   26.0520 C.3   181  LEU181      0.0019
    143  CD1      -45.0260   -5.3680   27.2810 C.3   181  LEU181      0.0001
    144  CD2      -45.7700   -6.6900   25.2950 C.3   181  LEU181      0.0001
    145  N        -50.2880   -3.5730   25.8820 N.am  182  ASP182     -0.1974
    146  CA       -51.6160   -3.2690   26.4050 C.3   182  ASP182      0.1709
    147  C        -52.7180   -3.4230   25.3450 C.2   182  ASP182      0.2293
    148  O        -53.9110   -3.2970   25.6760 O.2   182  ASP182     -0.2864
    149  CB       -51.6520   -1.8760   27.0550 C.3   182  ASP182      0.1436
    150  CG       -51.1860   -1.8990   28.4920 C.2   182  ASP182      0.3671
    151  OD1      -49.9830   -2.1420   28.7230 O.co2 182  ASP182     -0.2456
    152  OD2      -52.0280   -1.6780   29.3960 O.co2 182  ASP182     -0.2456
    153  N        -49.9590   -8.5510   24.7210 N.3   188  ARG188     -0.1245
    154  CA       -48.9010   -9.0190   25.6090 C.3   188  ARG188      0.1563
    155  C        -48.2360  -10.2540   24.9960 C.2   188  ARG188      0.2260
    156  O        -47.0360  -10.2360   24.6910 O.2   188  ARG188     -0.2867
    157  CB       -49.4590   -9.2740   27.0210 C.3   188  ARG188      0.0307
    158  CG       -48.4020   -9.6070   28.0770 C.3   188  ARG188      0.0489
    159  CD       -48.9390   -9.5980   29.5050 C.3   188  ARG188      0.2205
    160  NE       -47.8870   -9.9160   30.4800 N.pl3 188  ARG188     -0.0865
    161  CZ       -46.9980   -9.0440   30.9890 C.cat 188  ARG188      0.5346
    162  NH1      -46.9930   -7.7550   30.6380 N.pl3 188  ARG188      0.1354
    163  NH2      -46.0850   -9.4660   31.8610 N.pl3 188  ARG188      0.1354
@<TRIPOS>BOND
     1   131   130    2
     2   136   134   ar
     3   130   129    1
     4   134   133    1
     5   134   135   ar
     6   109   108    1
     7   133   132    1
     8   132   129    1
     9   129   128    1
    10   117   116    1
    11   117   118    2
    12   116   115    1
    13   108   110    1
    14   108   107    2
    15   106   107    1
    16   106   105    1
    17   137   138    1
    18    65    64    1
    19    93    91    1
    20   115   113   am
    21   105   104    1
    22   156   155    2
    23   153   154    1
    24   104   101    1
    25   114   113    2
    26   155   154    1
    27   113   112    1
    28   144   142    1
    29   147   148    2
    30   147   146    1
    31   103   102    2
    32   138   139    1
    33   138   141    1
    34   154   157    1
    35    64    63    1
    36   145   139   am
    37   145   146    1
    38   102   101    1
    39   102   111   am
    40   142   141    1
    41   142   143    1
    42    91    90    1
    43    91    92    1
    44   139   140    2
    45   101   100    1
    46   119   120    1
    47   100    96   am
    48   146   149    1
    49    90    87    1
    50   112   111    1
    51    89    88    2
    52   121   122    2
    53   121   120    1
    54    95    96    1
    55    95    94    1
    56    95    98    1
    57   157   158    1
    58    96    97    2
    59   149   150    1
    60    63    62    1
    61   120   123    1
    62    87    88    1
    63    87    86    1
    64    62    59    1
    65   123   124    1
    66    98    99    1
    67   158   159    1
    68   150   151   ar
    69   150   152   ar
    70   124   125    1
    71    86    80   am
    72    59    58    1
    73    59    60    1
    74    58    53   am
    75    43    41    1
    76   159   160    1
    77    80    81    2
    78    80    79    1
    79    60    61    2
    80    60    66   am
    81    53    52    1
    82    53    54    2
    83    41    42    1
    84    41    40    1
    85   125   126    2
    86   125   127   am
    87    52    51    1
    88    52    55    1
    89    50    48    1
    90   160   161    2
    91    51    57    1
    92    66    67    1
    93    79    78    1
    94    79    82    1
    95   162   161    1
    96   161   163    1
    97    78    68   am
    98    39    38    2
    99    69    68    2
   100    68    67    1
   101    55    56    1
   102    40    37    1
   103    48    45    1
   104    48    49    1
   105    45    44    1
   106    45    46    1
   107    67    70    1
   108    47    46    2
   109    38    44   am
   110    38    37    1
   111    82    83    1
   112    57    56    1
   113    37    36    1
   114    84    83    2
   115    83    85   am
   116    70    71    1
   117    72    71   ar
   118    72    74   ar
   119    36    32   am
   120    71    73   ar
   121    74    76   ar
   122    33    32    2
   123    32    31    1
   124    73    75   ar
   125    76    75   ar
   126    76    77    1
   127    35    34    1
   128    26    25    2
   129    31    34    1
   130    31    30    1
   131    22    20   am
   132     5     6    1
   133     5     2    1
   134     1     2    1
   135     2     3    1
   136    25    30   am
   137    25    24    1
   138    20    19    1
   139    20    21    2
   140    29    27    1
   141    19    16    1
   142     3     7   am
   143     3     4    2
   144    24    27    1
   145    24    23    1
   146     7     8    1
   147    27    28    1
   148    12    14    1
   149    12    11    1
   150    15    16    1
   151    15     9   am
   152    16    17    1
   153    13    11    1
   154     8    11    1
   155     8     9    1
   156     9    10    2
   157    17    18    2
