@<TRIPOS>MOLECULE
tmp/6dxsD00.pdb
 135 128 0 0 0
SMALL
GASTEIGER

@<TRIPOS>ATOM
      1  N        135.6730  113.7450  174.7750 N.3     7  HIS7       -0.1241
      2  CA       135.7530  112.7870  175.8780 C.3     7  HIS7        0.1621
      3  C        137.1730  112.2370  175.9120 C.2     7  HIS7        0.2264
      4  O        137.5910  111.5270  174.9920 O.2     7  HIS7       -0.2867
      5  CB       134.7060  111.6780  175.6930 C.3     7  HIS7        0.0745
      6  CG       134.5940  110.7260  176.8360 C.ar    7  HIS7        0.0817
      7  ND1      133.7000  109.6760  176.8310 N.ar    7  HIS7       -0.2268
      8  CD2      135.2540  110.6500  178.0160 C.ar    7  HIS7        0.1154
      9  CE1      133.8180  108.9890  177.9540 C.ar    7  HIS7        0.1986
     10  NE2      134.7520  109.5610  178.6910 N.ar    7  HIS7       -0.2212
     11  N        140.5960  111.5610  179.0400 N.3     9  HIS9       -0.1241
     12  CA       141.1690  111.7750  180.3640 C.3     9  HIS9        0.1621
     13  C        142.6880  111.6330  180.3780 C.2     9  HIS9        0.2264
     14  O        143.2740  110.8650  179.6050 O.2     9  HIS9       -0.2867
     15  CB       140.5580  110.8140  181.3770 C.3     9  HIS9        0.0745
     16  CG       139.0690  110.8650  181.4000 C.ar    9  HIS9        0.0817
     17  ND1      138.3590  111.3710  182.4620 N.ar    9  HIS9       -0.2268
     18  CD2      138.1550  110.5160  180.4660 C.ar    9  HIS9        0.1154
     19  CE1      137.0680  111.3100  182.1920 C.ar    9  HIS9        0.1986
     20  NE2      136.9180  110.7980  180.9840 N.ar    9  HIS9       -0.2212
     21  N        145.1870  109.9500  181.7000 N.3    11  THR11      -0.1218
     22  CA       145.2150  108.6230  182.2860 C.3    11  THR11       0.1862
     23  C        146.6150  108.1290  182.5770 C.2    11  THR11       0.2287
     24  O        146.7980  107.3460  183.5150 O.2    11  THR11      -0.2866
     25  CB       144.5380  107.6400  181.3400 C.3    11  THR11       0.1770
     26  OG1      144.9780  107.9310  180.0080 O.3    11  THR11      -0.2211
     27  CG2      143.0350  107.7770  181.4200 C.3    11  THR11       0.0375
     28  N        141.5790  111.5630  185.0910 N.3    70  ARG70      -0.1231
     29  CA       141.3100  110.1280  185.0880 C.3    70  ARG70       0.1694
     30  C        140.0270  109.8460  185.8700 C.2    70  ARG70       0.2592
     31  O        139.9170  110.1920  187.0500 O.2    70  ARG70      -0.2718
     32  CB       142.5050  109.3800  185.6940 C.3    70  ARG70       0.0321
     33  CG       142.3090  107.8980  185.8350 C.3    70  ARG70       0.0489
     34  CD       143.6190  107.1000  185.8990 C.3    70  ARG70       0.2205
     35  NE       143.5240  105.9320  185.0200 N.pl3  70  ARG70      -0.0865
     36  CZ       144.3050  104.8550  185.0550 C.cat  70  ARG70       0.5346
     37  NH1      145.2840  104.7400  185.9410 N.pl3  70  ARG70       0.1354
     38  NH2      144.1040  103.8910  184.1800 N.pl3  70  ARG70       0.1354
     39  N        139.0400  109.2420  185.2090 N.am   71  ALA71      -0.1966
     40  CA       137.7480  109.0380  185.8660 C.3    71  ALA71       0.1728
     41  C        137.7690  107.8360  186.8090 C.2    71  ALA71       0.2616
     42  O        137.1650  107.8760  187.8880 O.2    71  ALA71      -0.2715
     43  CB       136.6470  108.8900  184.8190 C.3    71  ALA71       0.0334
     44  N        138.4770  106.7730  186.4330 N.am   72  SER72      -0.1950
     45  CA       138.6210  105.6140  187.3070 C.3    72  SER72       0.1924
     46  C        139.3730  105.9310  188.5960 C.2    72  SER72       0.2314
     47  O        139.1880  105.2250  189.5970 O.2    72  SER72      -0.2863
     48  CB       139.3340  104.5160  186.5470 C.3    72  SER72       0.2116
     49  OG       140.4870  105.0540  185.9400 O.3    72  SER72      -0.2180
     50  N        129.2580  110.9340  184.6830 N.3   177  HIS177     -0.1241
     51  CA       130.3740  110.0150  184.6560 C.3   177  HIS177      0.1621
     52  C        130.5620  109.4220  186.0390 C.2   177  HIS177      0.2264
     53  O        130.6080  110.1580  187.0260 O.2   177  HIS177     -0.2867
     54  CB       131.6470  110.7170  184.1770 C.3   177  HIS177      0.0745
     55  CG       132.6320  109.7800  183.5570 C.ar  177  HIS177      0.0817
     56  ND1      133.1140  108.6730  184.2230 N.ar  177  HIS177     -0.2268
     57  CD2      133.1890  109.7530  182.3230 C.ar  177  HIS177      0.1154
     58  CE1      133.9440  108.0170  183.4340 C.ar  177  HIS177      0.1986
     59  NE2      134.0040  108.6490  182.2730 N.ar  177  HIS177     -0.2212
     60  N        135.0270   99.6490  183.9830 N.3   189  THR189     -0.1218
     61  CA       134.9620  100.1220  182.6040 C.3   189  THR189      0.1862
     62  C        134.2400   99.1570  181.6720 C.2   189  THR189      0.2287
     63  O        133.9600   99.5300  180.5270 O.2   189  THR189     -0.2866
     64  CB       136.3650  100.4310  182.0600 C.3   189  THR189      0.1770
     65  OG1      137.0200   99.2350  181.6340 O.3   189  THR189     -0.2211
     66  CG2      137.2290  101.1070  183.1180 C.3   189  THR189      0.0375
     67  N        130.3830  101.6180  184.0280 N.3   193  TYR193     -0.1241
     68  CA       130.1840  102.7710  183.1610 C.3   193  TYR193      0.1605
     69  C        128.9240  102.6010  182.3360 C.2   193  TYR193      0.2264
     70  O        128.0610  103.4760  182.3260 O.2   193  TYR193     -0.2867
     71  CB       131.3830  102.9750  182.2330 C.3   193  TYR193      0.0534
     72  CG       132.6590  103.4900  182.8780 C.ar  193  TYR193     -0.0201
     73  CD1      132.7050  103.8670  184.2140 C.ar  193  TYR193     -0.0009
     74  CD2      133.8200  103.6040  182.1350 C.ar  193  TYR193     -0.0009
     75  CE1      133.8870  104.3470  184.7830 C.ar  193  TYR193      0.0417
     76  CE2      134.9780  104.0620  182.6940 C.ar  193  TYR193      0.0417
     77  CZ       135.0220  104.4350  184.0090 C.ar  193  TYR193      0.1957
     78  OH       136.2220  104.8920  184.5330 O.3   193  TYR193     -0.2866
     79  N        129.7860  106.8680  176.1070 N.3   222  HIS222     -0.1241
     80  CA       129.6620  105.5240  175.5610 C.3   222  HIS222      0.1621
     81  C        128.4380  105.4180  174.6690 C.2   222  HIS222      0.2264
     82  O        127.6730  104.4540  174.7390 O.2   222  HIS222     -0.2867
     83  CB       129.6090  104.4870  176.6760 C.3   222  HIS222      0.0745
     84  CG       130.5770  104.7530  177.7750 C.ar  222  HIS222      0.0817
     85  ND1      130.1910  105.2790  178.9880 N.ar  222  HIS222     -0.2268
     86  CD2      131.9180  104.5860  177.8410 C.ar  222  HIS222      0.1154
     87  CE1      131.2530  105.4140  179.7610 C.ar  222  HIS222      0.1986
     88  NE2      132.3120  104.9930  179.0910 N.ar  222  HIS222     -0.2212
     89  N        131.9980  107.0300  171.8240 N.3   259  CYS259     -0.1235
     90  CA       132.9070  105.9970  172.3320 C.3   259  CYS259      0.1677
     91  C        132.2050  104.6400  172.2920 C.2   259  CYS259      0.2270
     92  O        131.8690  104.0390  173.3130 O.2   259  CYS259     -0.2867
     93  CB       133.3980  106.3480  173.7320 C.3   259  CYS259      0.0956
     94  SG       134.3760  107.8760  173.7600 S.3   259  CYS259     -0.0801
     95  N        133.2390  101.1540  170.4770 N.3   261  TYR261     -0.1241
     96  CA       134.5190  100.6950  169.9440 C.3   261  TYR261      0.1605
     97  C        134.3430   99.6010  168.8900 C.2   261  TYR261      0.2264
     98  O        134.9300   98.5240  168.9550 O.2   261  TYR261     -0.2867
     99  CB       135.4030  100.2300  171.0900 C.3   261  TYR261      0.0534
    100  CG       135.8520  101.3700  171.9930 C.ar  261  TYR261     -0.0201
    101  CD1      135.8400  102.7000  171.5340 C.ar  261  TYR261     -0.0009
    102  CD2      136.3040  101.1360  173.2950 C.ar  261  TYR261     -0.0009
    103  CE1      136.2540  103.7480  172.3530 C.ar  261  TYR261      0.0417
    104  CE2      136.7000  102.1830  174.1090 C.ar  261  TYR261      0.0417
    105  CZ       136.6820  103.4830  173.6340 C.ar  261  TYR261      0.1957
    106  OH       137.0860  104.5190  174.4470 O.3   261  TYR261     -0.2866
    107  N        137.8060  108.8340  173.9740 N.3   283  GLN283     -0.1245
    108  CA       138.6010  108.5800  175.1690 C.3   283  GLN283      0.1566
    109  C        139.7430  107.6020  174.8790 C.2   283  GLN283      0.2260
    110  O        139.7930  106.5040  175.4470 O.2   283  GLN283     -0.2867
    111  CB       137.7170  108.0530  176.2990 C.3   283  GLN283      0.0367
    112  CG       138.0530  108.6220  177.6610 C.3   283  GLN283      0.0905
    113  CD       139.4390  108.2540  178.1150 C.2   283  GLN283      0.2608
    114  OE1      140.3800  109.0110  177.9210 O.2   283  GLN283     -0.2717
    115  NE2      139.5770  107.0820  178.7290 N.am  283  GLN283     -0.0878
    116  N        142.4290  104.6650  177.1910 N.3   286  GLY286     -0.1210
    117  CA       141.4830  104.4280  178.2650 C.3   286  GLY286      0.1956
    118  C        141.1860  102.9640  178.5290 C.2   286  GLY286      0.2611
    119  O        142.0700  102.2180  178.9530 O.2   286  GLY286     -0.2717
    120  N        139.9530  102.5280  178.2540 N.am  287  ALA287     -0.1979
    121  CA       139.5070  101.1970  178.6480 C.3   287  ALA287      0.1597
    122  C        139.9420  100.0880  177.6940 C.2   287  ALA287      0.2287
    123  O        139.8350   98.9140  178.0590 O.2   287  ALA287     -0.2864
    124  CB       137.9760  101.1770  178.7750 C.3   287  ALA287      0.0319
    125  N        143.0820   99.8510  174.9700 N.3   289  ARG289     -0.1245
    126  CA       144.2040  100.4690  174.2730 C.3   289  ARG289      0.1563
    127  C        144.8180   99.5860  173.1890 C.2   289  ARG289      0.2260
    128  O        145.8790   99.9230  172.6490 O.2   289  ARG289     -0.2867
    129  CB       145.2700  100.8780  175.2840 C.3   289  ARG289      0.0307
    130  CG       144.6870  101.6160  176.4470 C.3   289  ARG289      0.0489
    131  CD       145.7190  101.9640  177.4600 C.3   289  ARG289      0.2205
    132  NE       145.1040  102.5450  178.6490 N.pl3 289  ARG289     -0.0865
    133  CZ       145.8070  103.0260  179.6630 C.cat 289  ARG289      0.5346
    134  NH1      147.1250  102.9990  179.6020 N.pl3 289  ARG289      0.1354
    135  NH2      145.2010  103.5250  180.7220 N.pl3 289  ARG289      0.1354
@<TRIPOS>BOND
     1    97    98    2
     2    97    96    1
     3    96    95    1
     4    96    99    1
     5    99   100    1
     6   101   100   ar
     7   101   103   ar
     8    89    90    1
     9   100   102   ar
    10    91    90    1
    11    91    92    2
    12    90    93    1
    13   103   105   ar
    14   128   127    2
    15   127   126    1
    16   102   104   ar
    17   105   104   ar
    18   105   106    1
    19    93    94    1
    20   107   108    1
    21   126   125    1
    22   126   129    1
    23    81    82    2
    24    81    80    1
    25     1     2    1
    26   109   108    1
    27   109   110    2
    28     4     3    2
    29   108   111    1
    30   129   130    1
    31    80    79    1
    32    80    83    1
    33     5     2    1
    34     5     6    1
    35     2     3    1
    36   111   112    1
    37   130   131    1
    38    83    84    1
    39     7     6   ar
    40     7     9   ar
    41     6     8   ar
    42   116   117    1
    43   131   132    1
    44   112   113    1
    45   122   123    2
    46   122   121    1
    47    84    86   ar
    48    84    85   ar
    49    86    88   ar
    50   114   113    2
    51     9    10   ar
    52     8    10   ar
    53   113   115   am
    54   120   118   am
    55   120   121    1
    56   117   118    1
    57   118   119    2
    58   121   124    1
    59   132   133    2
    60    85    87   ar
    61    11    12    1
    62    88    87   ar
    63   134   133    1
    64    14    13    2
    65   133   135    1
    66    26    25    1
    67    12    13    1
    68    12    15    1
    69    18    20   ar
    70    18    16   ar
    71    63    62    2
    72    20    19   ar
    73    25    27    1
    74    25    22    1
    75    15    16    1
    76    16    17   ar
    77    65    64    1
    78    62    61    1
    79    21    22    1
    80    64    61    1
    81    64    66    1
    82    74    76   ar
    83    74    72   ar
    84    19    17   ar
    85    71    72    1
    86    71    68    1
    87    59    57   ar
    88    59    58   ar
    89    22    23    1
    90    57    55   ar
    91    70    69    2
    92    69    68    1
    93    23    24    2
    94    61    60    1
    95    76    77   ar
    96    72    73   ar
    97    68    67    1
    98    58    56   ar
    99    55    54    1
   100    55    56   ar
   101    77    78    1
   102    77    75   ar
   103    54    51    1
   104    38    36    1
   105    73    75   ar
   106    51    50    1
   107    51    52    1
   108    43    40    1
   109    35    36    2
   110    35    34    1
   111    36    37    1
   112    29    28    1
   113    29    32    1
   114    29    30    1
   115    39    40    1
   116    39    30   am
   117    32    33    1
   118    33    34    1
   119    40    41    1
   120    30    31    2
   121    49    48    1
   122    52    53    2
   123    44    41   am
   124    44    45    1
   125    48    45    1
   126    41    42    2
   127    45    46    1
   128    46    47    2
