@<TRIPOS>MOLECULE
tmp/6dxtA00.pdb
 101 99 0 0 0
SMALL
GASTEIGER

@<TRIPOS>ATOM
      1  N         14.8300   48.2670  -12.5880 N.3    37  TRP37      -0.1241
      2  CA        15.1960   47.1450  -11.7410 C.3    37  TRP37       0.1605
      3  C         14.7100   47.4190  -10.3070 C.2    37  TRP37       0.2264
      4  O         14.9510   48.4990   -9.7960 O.2    37  TRP37      -0.2867
      5  CB        16.7140   46.9150  -11.8010 C.3    37  TRP37       0.0550
      6  CG        17.1090   46.4740  -13.1660 C.ar   37  TRP37       0.0003
      7  CD1       17.3180   47.2680  -14.2520 C.ar   37  TRP37       0.0946
      8  CD2       17.2060   45.1140  -13.6260 C.ar   37  TRP37       0.0152
      9  NE1       17.5660   46.4970  -15.3580 N.ar   37  TRP37      -0.2442
     10  CE2       17.5370   45.1740  -15.0000 C.ar   37  TRP37       0.0810
     11  CE3       17.0970   43.8650  -13.0060 C.ar   37  TRP37       0.0012
     12  CZ2       17.7480   44.0240  -15.7620 C.ar   37  TRP37       0.0191
     13  CZ3       17.3320   42.7260  -13.7510 C.ar   37  TRP37       0.0001
     14  CH2       17.6330   42.8080  -15.1160 C.ar   37  TRP37       0.0015
     15  N         18.6450   50.5800  -15.5980 N.3    48  GLY48      -0.1210
     16  CA        19.7680   49.6630  -15.9440 C.3    48  GLY48       0.1956
     17  C         20.9850   50.4020  -16.4930 C.2    48  GLY48       0.2611
     18  O         20.9770   51.6120  -16.6660 O.2    48  GLY48      -0.2717
     19  N         22.0770   49.6640  -16.7010 N.am   49  ARG49      -0.1979
     20  CA        23.3460   50.2910  -17.0720 C.3    49  ARG49       0.1597
     21  C         23.1980   50.8770  -18.4740 C.2    49  ARG49       0.2287
     22  O         22.3740   50.3940  -19.2660 O.2    49  ARG49      -0.2864
     23  CB        24.4940   49.2820  -17.1830 C.3    49  ARG49       0.0334
     24  CG        24.9230   48.5820  -15.9030 C.3    49  ARG49       0.0492
     25  CD        25.7430   47.3470  -16.3060 C.3    49  ARG49       0.2205
     26  NE        25.8810   46.3790  -15.2200 N.pl3  49  ARG49      -0.0865
     27  CZ        26.8140   46.4280  -14.2810 C.cat  49  ARG49       0.5346
     28  NH1       26.8400   45.5040  -13.3350 N.pl3  49  ARG49       0.1354
     29  NH2       27.7190   47.3960  -14.3000 N.pl3  49  ARG49       0.1354
     30  N         24.8250   50.7960  -21.8580 N.3    51  TYR51      -0.1241
     31  CA        25.7210   49.9070  -22.5960 C.3    51  TYR51       0.1605
     32  C         26.7170   50.7650  -23.3900 C.2    51  TYR51       0.2264
     33  O         26.4910   51.9510  -23.6290 O.2    51  TYR51      -0.2867
     34  CB        24.9270   48.9330  -23.4770 C.3    51  TYR51       0.0534
     35  CG        24.2070   47.8460  -22.7120 C.ar   51  TYR51      -0.0201
     36  CD1       24.9030   46.8810  -21.9990 C.ar   51  TYR51      -0.0009
     37  CD2       22.8200   47.7780  -22.7060 C.ar   51  TYR51      -0.0009
     38  CE1       24.2420   45.8810  -21.3020 C.ar   51  TYR51       0.0417
     39  CE2       22.1440   46.7770  -22.0230 C.ar   51  TYR51       0.0417
     40  CZ        22.8580   45.8320  -21.3100 C.ar   51  TYR51       0.1957
     41  OH        22.2000   44.8580  -20.6120 O.3    51  TYR51      -0.2866
     42  N         20.7320   51.9670  -11.1420 N.3    61  ALA61      -0.1231
     43  CA        20.7160   50.7380  -10.3390 C.3    61  ALA61       0.1694
     44  C         22.1360   50.3230   -9.9360 C.2    61  ALA61       0.2591
     45  O         22.3970   49.9880   -8.7660 O.2    61  ALA61      -0.2718
     46  CB        19.9630   49.6480  -11.0590 C.3    61  ALA61       0.0304
     47  N         23.1000   50.3850  -10.8700 N.am   62  VAL62      -0.1980
     48  CA        24.4480   49.9180  -10.5200 C.3    62  VAL62       0.1595
     49  C         25.1060   50.8940   -9.5520 C.2    62  VAL62       0.2287
     50  O         25.8490   50.4720   -8.6670 O.2    62  VAL62      -0.2864
     51  CB        25.3580   49.6440  -11.7410 C.3    62  VAL62       0.0276
     52  CG1       25.6210   50.8970  -12.5320 C.3    62  VAL62       0.0022
     53  CG2       26.6900   49.0080  -11.3130 C.3    62  VAL62       0.0022
     54  N         18.7720   39.5400  -11.7150 N.3    87  TYR87      -0.1241
     55  CA        20.2080   39.8060  -11.9250 C.3    87  TYR87       0.1605
     56  C         20.9070   39.9300  -10.5700 C.2    87  TYR87       0.2264
     57  O         20.3020   40.3960   -9.5830 O.2    87  TYR87      -0.2867
     58  CB        20.3870   41.0340  -12.8250 C.3    87  TYR87       0.0534
     59  CG        21.8220   41.4820  -12.9770 C.ar   87  TYR87      -0.0201
     60  CD1       22.6970   40.8920  -13.8770 C.ar   87  TYR87      -0.0009
     61  CD2       22.2940   42.5320  -12.2130 C.ar   87  TYR87      -0.0009
     62  CE1       24.0150   41.3120  -13.9810 C.ar   87  TYR87       0.0417
     63  CE2       23.5950   42.9700  -12.3070 C.ar   87  TYR87       0.0417
     64  CZ        24.4630   42.3580  -13.1840 C.ar   87  TYR87       0.1957
     65  OH        25.7490   42.8150  -13.1880 O.3    87  TYR87      -0.2866
     66  N         24.3400   41.6190   -9.1160 N.3    89  TYR89      -0.1241
     67  CA        25.4530   42.5420   -9.3190 C.3    89  TYR89       0.1605
     68  C         26.7780   41.8790   -8.9380 C.2    89  TYR89       0.2264
     69  O         27.7680   42.0710   -9.5880 O.2    89  TYR89      -0.2867
     70  CB        25.2730   43.7990   -8.4750 C.3    89  TYR89       0.0534
     71  CG        24.2570   44.7000   -9.1020 C.ar   89  TYR89      -0.0201
     72  CD1       24.6240   45.4500  -10.1950 C.ar   89  TYR89      -0.0009
     73  CD2       22.9400   44.7450   -8.6770 C.ar   89  TYR89      -0.0009
     74  CE1       23.7100   46.2260  -10.8690 C.ar   89  TYR89       0.0417
     75  CE2       22.0080   45.5350   -9.3330 C.ar   89  TYR89       0.0417
     76  CZ        22.4060   46.2940  -10.4240 C.ar   89  TYR89       0.1957
     77  OH        21.5730   47.1230  -11.1190 O.3    89  TYR89      -0.2866
     78  N         27.6010   39.0450  -11.3040 N.3    92  ASP92      -0.1225
     79  CA        27.5280   39.7040  -12.5630 C.3    92  ASP92       0.1805
     80  C         26.9270   38.7710  -13.6220 C.2    92  ASP92       0.2598
     81  O         27.5590   38.4840  -14.6380 O.2    92  ASP92      -0.2718
     82  CB        28.8850   40.2920  -12.9810 C.3    92  ASP92       0.1424
     83  CG        28.7660   41.1770  -14.2130 C.2    92  ASP92       0.3668
     84  OD1       27.6350   41.6120  -14.5390 O.co2  92  ASP92      -0.2456
     85  OD2       29.7690   41.3450  -14.8960 O.co2  92  ASP92      -0.2456
     86  N         25.6690   38.3850  -13.4120 N.am   93  ASP93      -0.1960
     87  CA        24.9440   37.5440  -14.3440 C.3    93  ASP93       0.1840
     88  C         23.4640   37.4800  -13.9740 C.2    93  ASP93       0.2621
     89  O         23.0960   37.7050  -12.8190 O.2    93  ASP93      -0.2715
     90  CB        25.5070   36.1200  -14.3610 C.3    93  ASP93       0.1450
     91  CG        25.7440   35.6210  -15.7880 C.2    93  ASP93       0.3671
     92  OD1       24.8420   35.8320  -16.6720 O.co2  93  ASP93      -0.2456
     93  OD2       26.8310   35.0820  -16.0190 O.co2  93  ASP93      -0.2456
     94  N         22.6460   37.0870  -14.9500 N.am   94  MET94      -0.1977
     95  CA        21.3010   36.6800  -14.6970 C.3    94  MET94       0.1605
     96  C         21.3550   35.3740  -13.8980 C.2    94  MET94       0.2287
     97  O         22.2410   34.5410  -14.1300 O.2    94  MET94      -0.2864
     98  CB        20.5220   36.4710  -15.9890 C.3    94  MET94       0.0413
     99  CG        20.6340   37.6350  -16.9470 C.3    94  MET94       0.0598
    100  SD        20.0160   39.1590  -16.1980 S.3    94  MET94      -0.1393
    101  CE        18.2950   38.7420  -15.9440 C.3    94  MET94       0.0692
@<TRIPOS>BOND
     1    33    32    2
     2    34    35    1
     3    34    31    1
     4    32    31    1
     5    35    37   ar
     6    35    36   ar
     7    37    39   ar
     8    31    30    1
     9    39    40   ar
    10    36    38   ar
    11    40    38   ar
    12    40    41    1
    13    22    21    2
    14    21    20    1
    15    23    20    1
    16    23    24    1
    17    20    19    1
    18    99   100    1
    19    99    98    1
    20    19    17   am
    21    92    91   ar
    22    18    17    2
    23    17    16    1
    24    25    24    1
    25    25    26    1
    26   100   101    1
    27    93    91   ar
    28    98    95    1
    29    16    15    1
    30    91    90    1
    31    12    14   ar
    32    12    10   ar
    33     9    10   ar
    34     9     7   ar
    35    26    27    2
    36    14    13   ar
    37    10     8   ar
    38    94    95    1
    39    94    88   am
    40    85    83   ar
    41    95    96    1
    42    81    80    2
    43    84    83   ar
    44    90    87    1
    45    87    88    1
    46    87    86    1
    47    29    27    1
    48    27    28    1
    49     7     6   ar
    50    83    82    1
    51    97    96    2
    52    62    60   ar
    53    62    64   ar
    54    88    89    2
    55    60    59   ar
    56    13    11   ar
    57     8     6   ar
    58     8    11   ar
    59    80    86   am
    60    80    79    1
    61    65    64    1
    62    64    63   ar
    63     6     5    1
    64    82    79    1
    65    59    58    1
    66    59    61   ar
    67    58    55    1
    68     1     2    1
    69    79    78    1
    70    52    51    1
    71    63    61   ar
    72    55    54    1
    73    55    56    1
    74     5     2    1
    75     2     3    1
    76    51    53    1
    77    51    48    1
    78    42    43    1
    79    77    76    1
    80    46    43    1
    81    47    48    1
    82    47    44   am
    83    74    76   ar
    84    74    72   ar
    85    56    57    2
    86    48    49    1
    87    76    75   ar
    88    43    44    1
    89     3     4    2
    90    72    71   ar
    91    44    45    2
    92    69    68    2
    93    49    50    2
    94    75    73   ar
    95    67    66    1
    96    67    68    1
    97    67    70    1
    98    71    73   ar
    99    71    70    1
