@<TRIPOS>MOLECULE
tmp/6dxuD00.pdb
 103 99 0 0 0
SMALL
GASTEIGER

@<TRIPOS>ATOM
      1  N        -23.0770   18.1390   74.9330 N.3   500  ARG500     -0.1245
      2  CA       -23.8570   18.7170   76.0210 C.3   500  ARG500      0.1563
      3  C        -23.6200   17.9320   77.3010 C.2   500  ARG500      0.2260
      4  O        -23.7240   16.7000   77.3100 O.2   500  ARG500     -0.2867
      5  CB       -25.3450   18.7370   75.6980 C.3   500  ARG500      0.0307
      6  CG       -26.2000   19.3080   76.8210 C.3   500  ARG500      0.0489
      7  CD       -27.6860   19.2150   76.4860 C.3   500  ARG500      0.2205
      8  NE       -28.1040   20.2150   75.5010 N.pl3 500  ARG500     -0.0865
      9  CZ       -29.2550   20.1760   74.8380 C.cat 500  ARG500      0.5346
     10  NH1      -30.1100   19.1730   75.0380 N.pl3 500  ARG500      0.1354
     11  NH2      -29.5560   21.1340   73.9630 N.pl3 500  ARG500      0.1354
     12  N        -42.7450   14.0900   71.7630 N.3   527  LEU527     -0.1245
     13  CA       -42.2880   15.1380   72.6660 C.3   527  LEU527      0.1561
     14  C        -43.3820   15.6550   73.5950 C.2   527  LEU527      0.2260
     15  O        -43.0710   16.4070   74.5250 O.2   527  LEU527     -0.2867
     16  CB       -41.7010   16.3030   71.8590 C.3   527  LEU527      0.0270
     17  CG       -40.3630   16.0440   71.1670 C.3   527  LEU527      0.0019
     18  CD1      -40.0220   17.2430   70.3130 C.3   527  LEU527      0.0001
     19  CD2      -39.2510   15.8090   72.1560 C.3   527  LEU527      0.0001
     20  N        -36.9930   10.5670   78.6990 N.3   535  SER535     -0.1202
     21  CA       -37.0200   10.9300   77.2850 C.3   535  SER535      0.2020
     22  C        -37.6920   12.2800   77.0730 C.2   535  SER535      0.2618
     23  O        -37.3080   13.0300   76.1690 O.2   535  SER535     -0.2717
     24  CB       -37.7480    9.8590   76.4650 C.3   535  SER535      0.2103
     25  OG       -39.1060    9.7680   76.8470 O.3   535  SER535     -0.2182
     26  N        -38.6840   12.6060   77.9010 N.am  536  ARG536     -0.1979
     27  CA       -39.4110   13.8630   77.7830 C.3   536  ARG536      0.1597
     28  C        -38.8410   14.9630   78.6700 C.2   536  ARG536      0.2287
     29  O        -38.7890   16.1210   78.2520 O.2   536  ARG536     -0.2864
     30  CB       -40.8860   13.6640   78.1290 C.3   536  ARG536      0.0334
     31  CG       -41.7390   14.8850   77.8070 C.3   536  ARG536      0.0492
     32  CD       -43.1030   14.7980   78.4520 C.3   536  ARG536      0.2205
     33  NE       -43.0100   14.7860   79.9080 N.pl3 536  ARG536     -0.0865
     34  CZ       -44.0620   14.6950   80.7130 C.cat 536  ARG536      0.5346
     35  NH1      -45.2890   14.6120   80.2030 N.pl3 536  ARG536      0.1354
     36  NH2      -43.8870   14.6900   82.0260 N.pl3 536  ARG536      0.1354
     37  N        -35.7790   14.8030   80.5870 N.3   538  GLY538     -0.1210
     38  CA       -34.3430   14.8370   80.8000 C.3   538  GLY538      0.1956
     39  C        -33.6730   15.9500   80.0160 C.2   538  GLY538      0.2612
     40  O        -34.2630   16.5650   79.1190 O.2   538  GLY538     -0.2717
     41  N        -32.4360   16.2820   80.3960 N.am  539  ASP539     -0.1959
     42  CA       -31.7610   17.3410   79.6420 C.3   539  ASP539      0.1840
     43  C        -31.1270   16.8710   78.3380 C.2   539  ASP539      0.2622
     44  O        -30.6030   17.7150   77.5910 O.2   539  ASP539     -0.2715
     45  CB       -30.6810   18.0570   80.4580 C.3   539  ASP539      0.1450
     46  CG       -29.5360   17.1550   80.8860 C.2   539  ASP539      0.3671
     47  OD1      -29.5070   15.9380   80.5840 O.co2 539  ASP539     -0.2456
     48  OD2      -28.6520   17.6830   81.6080 O.co2 539  ASP539     -0.2456
     49  N        -31.0830   15.5530   78.0980 N.am  540  TRP540     -0.1974
     50  CA       -30.4420   14.9770   76.9040 C.3   540  TRP540      0.1640
     51  C        -28.9410   15.2390   76.8790 C.2   540  TRP540      0.2290
     52  O        -28.3210   15.3870   75.8090 O.2   540  TRP540     -0.2864
     53  CB       -31.0920   15.4410   75.5990 C.3   540  TRP540      0.0576
     54  CG       -32.4610   14.8350   75.3740 C.ar  540  TRP540      0.0006
     55  CD1      -33.4470   14.6280   76.3130 C.ar  540  TRP540      0.0946
     56  CD2      -32.9960   14.3800   74.1260 C.ar  540  TRP540      0.0152
     57  NE1      -34.5550   14.0580   75.7130 N.ar  540  TRP540     -0.2442
     58  CE2      -34.3010   13.9040   74.3730 C.ar  540  TRP540      0.0810
     59  CE3      -32.4950   14.3310   72.8210 C.ar  540  TRP540      0.0012
     60  CZ2      -35.1090   13.3730   73.3560 C.ar  540  TRP540      0.0191
     61  CZ3      -33.2890   13.8050   71.8200 C.ar  540  TRP540      0.0001
     62  CH2      -34.5860   13.3380   72.0890 C.ar  540  TRP540      0.0015
     63  N        -37.9440   17.9670   65.9350 N.3   580  ASP580     -0.1225
     64  CA       -37.6420   18.8820   67.0310 C.3   580  ASP580      0.1805
     65  C        -36.5380   18.3880   67.9540 C.2   580  ASP580      0.2598
     66  O        -36.3760   18.9390   69.0520 O.2   580  ASP580     -0.2718
     67  CB       -38.9050   19.1660   67.8380 C.3   580  ASP580      0.1424
     68  CG       -39.9360   19.9340   67.0320 C.2   580  ASP580      0.3668
     69  OD1      -39.5400   20.8620   66.2960 O.co2 580  ASP580     -0.2456
     70  OD2      -41.1260   19.5800   67.1000 O.co2 580  ASP580     -0.2456
     71  N        -35.7810   17.3660   67.5540 N.am  581  ASN581     -0.1961
     72  CA       -34.6590   16.9230   68.3630 C.3   581  ASN581      0.1804
     73  C        -33.5890   18.0130   68.3920 C.2   581  ASN581      0.2463
     74  O        -33.5570   18.8760   67.5120 O.2   581  ASN581     -0.2730
     75  CB       -34.0850   15.6210   67.8050 C.3   581  ASN581      0.1195
     76  CG       -34.7600   14.4000   68.3900 C.2   581  ASN581      0.2630
     77  OD1      -35.8120   14.5200   69.0180 O.2   581  ASN581     -0.2716
     78  ND2      -34.1630   13.2160   68.1890 N.am  581  ASN581     -0.0877
     79  N        -32.7050   17.9940   69.4020 N.am  582  PRO582     -0.2727
     80  CA       -31.6470   19.0250   69.4900 C.3   582  PRO582      0.1402
     81  C        -30.8340   19.1800   68.2210 C.2   582  PRO582      0.2269
     82  O        -30.5350   20.3130   67.8160 O.2   582  PRO582     -0.2865
     83  CB       -30.7820   18.5280   70.6590 C.3   582  PRO582      0.0296
     84  CG       -31.7470   17.7960   71.5390 C.3   582  PRO582      0.0237
     85  CD       -32.7210   17.1140   70.5850 C.3   582  PRO582      0.0939
     86  N        -30.0150   25.6300   76.4710 N.3   743  LYS743     -0.1245
     87  CA       -30.3360   24.7490   75.3540 C.3   743  LYS743      0.1561
     88  C        -31.0140   25.4770   74.2230 C.2   743  LYS743      0.2260
     89  O        -31.6340   24.8400   73.3620 O.2   743  LYS743     -0.2867
     90  CB       -31.2340   23.6200   75.7770 C.3   743  LYS743      0.0271
     91  CG       -30.5030   22.8340   76.6990 C.3   743  LYS743      0.0035
     92  CD       -31.4060   21.8230   77.2500 C.3   743  LYS743      0.0206
     93  CE       -30.6400   20.7600   77.9800 C.3   743  LYS743      0.1093
     94  NZ       -31.4250   19.6210   77.7620 N.3   743  LYS743     -0.1314
     95  N        -29.7460   23.1210   68.8040 N.3   770  GLN770     -0.1245
     96  CA       -29.8360   23.5620   70.1920 C.3   770  GLN770      0.1566
     97  C        -28.4350   23.7430   70.7490 C.2   770  GLN770      0.2260
     98  O        -27.5160   22.9940   70.4080 O.2   770  GLN770     -0.2867
     99  CB       -30.6060   22.5480   71.0460 C.3   770  GLN770      0.0367
    100  CG       -32.1170   22.5820   70.8940 C.3   770  GLN770      0.0905
    101  CD       -32.7970   21.5940   71.8300 C.2   770  GLN770      0.2608
    102  OE1      -32.2020   21.1710   72.8170 O.2   770  GLN770     -0.2717
    103  NE2      -34.0350   21.1970   71.5090 N.am  770  GLN770     -0.0878
@<TRIPOS>BOND
     1    63    64    1
     2    69    68   ar
     3    64    67    1
     4    64    65    1
     5    68    70   ar
     6    68    67    1
     7    74    73    2
     8    71    65   am
     9    71    72    1
    10    75    72    1
    11    75    76    1
    12    82    81    2
    13    65    66    2
    14    78    76   am
    15    81    80    1
    16    72    73    1
    17    76    77    2
    18    73    79   am
    19    95    96    1
    20    79    80    1
    21    79    85    1
    22    80    83    1
    23    96    97    1
    24    96    99    1
    25    18    17    1
    26    98    97    2
    27    85    84    1
    28    83    84    1
    29   100    99    1
    30   100   101    1
    31    17    16    1
    32    17    19    1
    33   103   101   am
    34    12    13    1
    35    61    62   ar
    36    61    59   ar
    37   101   102    2
    38    16    13    1
    39    62    60   ar
    40    13    14    1
    41    59    56   ar
    42    60    58   ar
    43    89    88    2
    44    14    15    2
    45    11     9    1
    46    56    58   ar
    47    56    54   ar
    48    88    87    1
    49    58    57   ar
    50     9    10    1
    51     9     8    2
    52     1     2    1
    53    87    90    1
    54    87    86    1
    55    54    53    1
    56    54    55   ar
    57     8     7    1
    58    53    50    1
    59     5     2    1
    60     5     6    1
    61    57    55   ar
    62    90    91    1
    63    52    51    2
    64     2     3    1
    65    23    22    2
    66    24    25    1
    67    24    21    1
    68     7     6    1
    69    91    92    1
    70    51    50    1
    71    50    49    1
    72    22    21    1
    73    22    26   am
    74    92    93    1
    75    21    20    1
    76     3     4    2
    77    44    43    2
    78    94    93    1
    79    27    26    1
    80    27    30    1
    81    27    28    1
    82    31    30    1
    83    31    32    1
    84    49    43   am
    85    29    28    2
    86    43    42    1
    87    32    33    1
    88    40    39    2
    89    42    41    1
    90    42    45    1
    91    33    34    2
    92    39    41   am
    93    39    38    1
    94    35    34    1
    95    45    46    1
    96    47    46   ar
    97    37    38    1
    98    34    36    1
    99    46    48   ar
