@<TRIPOS>MOLECULE
tmp/6dxxD03.pdb
 120 118 0 0 0
SMALL
GASTEIGER

@<TRIPOS>ATOM
      1  N         40.3140    7.4300  -10.0940 N.3     1  CYS1       -0.1235
      2  CA        39.2220    6.4870  -10.3060 C.3     1  CYS1        0.1677
      3  C         37.9100    7.0220   -9.7300 C.2     1  CYS1        0.2270
      4  O         37.9100    7.9430   -8.9170 O.2     1  CYS1       -0.2867
      5  CB        39.5540    5.1390   -9.6650 C.3     1  CYS1        0.0956
      6  SG        41.2680    4.6370   -9.8380 S.3     1  CYS1       -0.0801
      7  N         38.0010    3.3090  -14.1380 N.3    19  LEU19      -0.1231
      8  CA        39.3720    3.0550  -13.7120 C.3    19  LEU19       0.1693
      9  C         40.2800    4.0160  -14.4660 C.2    19  LEU19       0.2592
     10  O         40.5280    3.8370  -15.6630 O.2    19  LEU19      -0.2718
     11  CB        39.7790    1.6080  -13.9640 C.3    19  LEU19       0.0284
     12  CG        41.1320    1.2760  -13.3360 C.3    19  LEU19       0.0019
     13  CD1       41.0780   -0.0460  -12.5980 C.3    19  LEU19       0.0001
     14  CD2       42.2090    1.2580  -14.4070 C.3    19  LEU19       0.0001
     15  N         40.7930    5.0160  -13.7560 N.am   20  ASP20      -0.1960
     16  CA        41.6470    6.0420  -14.3370 C.3    20  ASP20       0.1840
     17  C         43.0970    5.7300  -14.0090 C.2    20  ASP20       0.2622
     18  O         43.4350    5.4560  -12.8520 O.2    20  ASP20      -0.2715
     19  CB        41.2760    7.4250  -13.8040 C.3    20  ASP20       0.1450
     20  CG        39.8170    7.7610  -14.0260 C.2    20  ASP20       0.3671
     21  OD1       39.2070    7.1850  -14.9550 O.co2  20  ASP20      -0.2456
     22  OD2       39.2740    8.5750  -13.2480 O.co2  20  ASP20      -0.2456
     23  N         43.9540    5.8110  -15.0250 N.am   21  TYR21      -0.1974
     24  CA        45.3720    5.5480  -14.8640 C.3    21  TYR21       0.1639
     25  C         46.0680    6.0960  -16.0950 C.2    21  TYR21       0.2290
     26  O         45.4840    6.0410  -17.1860 O.2    21  TYR21      -0.2864
     27  CB        45.6390    4.0480  -14.7080 C.3    21  TYR21       0.0560
     28  CG        47.0280    3.7230  -14.2160 C.ar   21  TYR21      -0.0198
     29  CD1       47.9710    3.1590  -15.0630 C.ar   21  TYR21      -0.0009
     30  CD2       47.4000    3.9820  -12.9020 C.ar   21  TYR21      -0.0009
     31  CE1       49.2440    2.8590  -14.6170 C.ar   21  TYR21       0.0417
     32  CE2       48.6700    3.6940  -12.4510 C.ar   21  TYR21       0.0417
     33  CZ        49.5860    3.1310  -13.3130 C.ar   21  TYR21       0.1957
     34  OH        50.8510    2.8360  -12.8740 O.3    21  TYR21      -0.2866
     35  N         47.7360    0.6800  -22.3090 N.3    27  LEU27      -0.1245
     36  CA        46.9770   -0.2500  -21.4770 C.3    27  LEU27       0.1561
     37  C         45.5900   -0.5390  -22.0370 C.2    27  LEU27       0.2260
     38  O         45.1220   -1.6800  -21.9630 O.2    27  LEU27      -0.2867
     39  CB        46.8480    0.2860  -20.0550 C.3    27  LEU27       0.0270
     40  CG        48.1000    0.4080  -19.1910 C.3    27  LEU27       0.0019
     41  CD1       47.6750    0.6730  -17.7510 C.3    27  LEU27       0.0001
     42  CD2       48.9560   -0.8380  -19.2880 C.3    27  LEU27       0.0001
     43  N         44.8010   -3.6170  -23.5610 N.3    30  LEU30      -0.1245
     44  CA        44.9530   -4.7880  -22.7130 C.3    30  LEU30       0.1561
     45  C         43.7780   -5.0050  -21.7710 C.2    30  LEU30       0.2260
     46  O         43.8210   -5.9380  -20.9620 O.2    30  LEU30      -0.2867
     47  CB        46.2430   -4.6700  -21.9080 C.3    30  LEU30       0.0270
     48  CG        47.5100   -4.4830  -22.7440 C.3    30  LEU30       0.0019
     49  CD1       48.7440   -4.5400  -21.8470 C.3    30  LEU30       0.0001
     50  CD2       47.6010   -5.5170  -23.8540 C.3    30  LEU30       0.0001
     51  N         43.9030   -5.9840  -16.7250 N.3    49  PHE49      -0.1227
     52  CA        44.7810   -5.8610  -17.8790 C.3    49  PHE49       0.1736
     53  C         45.5610   -7.1610  -18.0050 C.2    49  PHE49       0.2595
     54  O         46.1360   -7.6380  -17.0200 O.2    49  PHE49      -0.2718
     55  CB        45.7340   -4.6770  -17.7210 C.3    49  PHE49       0.0547
     56  CG        45.0330   -3.3790  -17.4490 C.ar   49  PHE49      -0.0202
     57  CD1       44.1190   -2.8710  -18.3520 C.ar   49  PHE49      -0.0042
     58  CD2       45.2860   -2.6660  -16.2910 C.ar   49  PHE49      -0.0042
     59  CE1       43.4670   -1.6740  -18.1040 C.ar   49  PHE49      -0.0003
     60  CE2       44.6390   -1.4720  -16.0400 C.ar   49  PHE49      -0.0003
     61  CZ        43.7290   -0.9760  -16.9480 C.ar   49  PHE49      -0.0000
     62  N         45.6030   -7.7170  -19.2180 N.am   50  ILE50      -0.1966
     63  CA        46.2560   -9.0050  -19.4110 C.3    50  ILE50       0.1727
     64  C         47.6800   -8.9140  -18.8920 C.2    50  ILE50       0.2617
     65  O         48.4220   -7.9830  -19.2280 O.2    50  ILE50      -0.2715
     66  CB        46.2030   -9.4250  -20.8900 C.3    50  ILE50       0.0290
     67  CG1       46.6350  -10.8910  -21.0420 C.3    50  ILE50       0.0022
     68  CG2       47.0520   -8.4980  -21.7420 C.3    50  ILE50       0.0023
     69  CD1       45.6820  -11.8890  -20.4200 C.3    50  ILE50       0.0001
     70  N         48.0590   -9.8760  -18.0520 N.am   51  GLY51      -0.1940
     71  CA        49.3060   -9.8340  -17.3260 C.3    51  GLY51       0.2014
     72  C         49.1460   -9.4420  -15.8750 C.2    51  GLY51       0.2638
     73  O         50.1000   -9.5870  -15.1000 O.2    51  GLY51      -0.2714
     74  N         47.9720   -8.9510  -15.4900 N.am   52  TYR52      -0.1973
     75  CA        47.6770   -8.5580  -14.1190 C.3    52  TYR52       0.1639
     76  C         46.6200   -9.5100  -13.5780 C.2    52  TYR52       0.2290
     77  O         45.4970   -9.5580  -14.0960 O.2    52  TYR52      -0.2864
     78  CB        47.1940   -7.1110  -14.0590 C.3    52  TYR52       0.0560
     79  CG        47.1190   -6.5670  -12.6610 C.ar   52  TYR52      -0.0198
     80  CD1       48.2610   -6.1190  -12.0190 C.ar   52  TYR52      -0.0009
     81  CD2       45.9150   -6.4900  -11.9830 C.ar   52  TYR52      -0.0009
     82  CE1       48.2090   -5.6110  -10.7340 C.ar   52  TYR52       0.0417
     83  CE2       45.8520   -5.9870  -10.6960 C.ar   52  TYR52       0.0417
     84  CZ        47.0070   -5.5490  -10.0780 C.ar   52  TYR52       0.1957
     85  OH        46.9640   -5.0450   -8.8020 O.3    52  TYR52      -0.2866
     86  N         40.4950   -5.3930   -9.9950 N.3    56  TRP56      -0.1241
     87  CA        39.9860   -4.1510   -9.4310 C.3    56  TRP56       0.1605
     88  C         38.5010   -3.9540   -9.7000 C.2    56  TRP56       0.2264
     89  O         37.9160   -2.9940   -9.1900 O.2    56  TRP56      -0.2867
     90  CB        40.7600   -2.9550   -9.9900 C.3    56  TRP56       0.0550
     91  CG        42.1650   -2.8710   -9.4840 C.ar   56  TRP56       0.0003
     92  CD1       43.2930   -3.2960  -10.1220 C.ar   56  TRP56       0.0946
     93  CD2       42.5930   -2.3260   -8.2310 C.ar   56  TRP56       0.0152
     94  NE1       44.3960   -3.0470   -9.3460 N.ar   56  TRP56      -0.2442
     95  CE2       43.9930   -2.4520   -8.1790 C.ar   56  TRP56       0.0810
     96  CE3       41.9290   -1.7410   -7.1500 C.ar   56  TRP56       0.0012
     97  CZ2       44.7390   -2.0230   -7.0900 C.ar   56  TRP56       0.0191
     98  CZ3       42.6710   -1.3120   -6.0730 C.ar   56  TRP56       0.0001
     99  CH2       44.0610   -1.4550   -6.0490 C.ar   56  TRP56       0.0015
    100  N         37.4730   -1.4670   -6.5280 N.3    68  GLY68      -0.1210
    101  CA        38.4220   -0.8630   -5.6120 C.3    68  GLY68       0.1956
    102  C         39.0690    0.3770   -6.1920 C.2    68  GLY68       0.2612
    103  O         39.5100    0.3780   -7.3470 O.2    68  GLY68      -0.2717
    104  N         39.1350    1.4400   -5.3940 N.am   69  ASP69      -0.1959
    105  CA        39.7430    2.7000   -5.7950 C.3    69  ASP69       0.1840
    106  C         40.9730    2.9680   -4.9360 C.2    69  ASP69       0.2621
    107  O         41.1120    2.4450   -3.8270 O.2    69  ASP69      -0.2715
    108  CB        38.7380    3.8530   -5.6560 C.3    69  ASP69       0.1450
    109  CG        37.5720    3.7320   -6.6280 C.2    69  ASP69       0.3671
    110  OD1       37.3800    2.6380   -7.2000 O.co2  69  ASP69      -0.2456
    111  OD2       36.8360    4.7240   -6.8120 O.co2  69  ASP69      -0.2456
    112  N         41.8690    3.8020   -5.4540 N.am   70  GLU70      -0.1977
    113  CA        43.1210    4.0620   -4.7570 C.3    70  GLU70       0.1602
    114  C         42.8930    4.9560   -3.5470 C.2    70  GLU70       0.2287
    115  O         42.1030    5.9050   -3.5910 O.2    70  GLU70      -0.2864
    116  CB        44.1330    4.7140   -5.6990 C.3    70  GLU70       0.0415
    117  CG        45.4520    5.1000   -5.0140 C.3    70  GLU70       0.1163
    118  CD        46.4290    5.8230   -5.9380 C.2    70  GLU70       0.3649
    119  OE1       46.1080    6.0140   -7.1340 O.co2  70  GLU70      -0.2457
    120  OE2       47.5250    6.1960   -5.4600 O.co2  70  GLU70      -0.2457
@<TRIPOS>BOND
     1    50    48    1
     2    43    44    1
     3    48    47    1
     4    48    49    1
     5    44    47    1
     6    44    45    1
     7    35    36    1
     8    37    38    2
     9    37    36    1
    10    45    46    2
    11    68    66    1
    12    36    39    1
    13    67    66    1
    14    67    69    1
    15    66    63    1
    16    39    40    1
    17    63    62    1
    18    63    64    1
    19    42    40    1
    20    65    64    2
    21    62    53   am
    22    40    41    1
    23    64    70   am
    24    57    59   ar
    25    57    56   ar
    26    59    61   ar
    27    70    71    1
    28    53    52    1
    29    53    54    2
    30    52    55    1
    31    52    51    1
    32    55    56    1
    33    56    58   ar
    34    71    72    1
    35    26    25    2
    36    61    60   ar
    37    58    60   ar
    38    25    24    1
    39    72    74   am
    40    72    73    2
    41    10     9    2
    42    74    75    1
    43    29    31   ar
    44    29    28   ar
    45    23    24    1
    46    23    17   am
    47    21    20   ar
    48    24    27    1
    49    27    28    1
    50    31    33   ar
    51     9    15   am
    52     9     8    1
    53    14    12    1
    54    16    17    1
    55    16    19    1
    56    16    15    1
    57    28    30   ar
    58     7     8    1
    59    75    78    1
    60    75    76    1
    61    77    76    2
    62    78    79    1
    63    20    19    1
    64    20    22   ar
    65    17    18    2
    66    11     8    1
    67    11    12    1
    68    12    13    1
    69    33    34    1
    70    33    32   ar
    71    30    32   ar
    72    79    80   ar
    73    79    81   ar
    74    80    82   ar
    75    81    83   ar
    76    82    84   ar
    77    83    84   ar
    78     2     1    1
    79     2     3    1
    80     2     5    1
    81    92    91   ar
    82    92    94   ar
    83    84    85    1
    84    86    87    1
    85    90    91    1
    86    90    87    1
    87     6     5    1
    88     3     4    2
    89    88    87    1
    90    88    89    2
    91    91    93   ar
    92    94    95   ar
    93    93    95   ar
    94    93    96   ar
    95    95    97   ar
    96   103   102    2
    97   110   109   ar
    98    96    98   ar
    99   119   118   ar
   100    97    99   ar
   101   111   109   ar
   102   109   108    1
   103   100   101    1
   104   102   101    1
   105   102   104   am
   106    98    99   ar
   107   118   120   ar
   108   118   117    1
   109   105   108    1
   110   105   104    1
   111   105   106    1
   112   116   117    1
   113   116   113    1
   114   112   106   am
   115   112   113    1
   116   106   107    2
   117   113   114    1
   118   115   114    2
