@<TRIPOS>MOLECULE
tmp/6dxxE00.pdb
 103 98 0 0 0
SMALL
GASTEIGER

@<TRIPOS>ATOM
      1  N         61.9820   -2.9710   29.5550 N.3    45  PRO45      -0.2116
      2  CA        61.7460   -2.7360   28.1270 C.3    45  PRO45       0.1372
      3  C         61.4900   -4.0440   27.3930 C.2    45  PRO45       0.2244
      4  O         61.9920   -5.1060   27.7700 O.2    45  PRO45      -0.2868
      5  CB        63.0450   -2.0700   27.6490 C.3    45  PRO45       0.0268
      6  CG        63.7420   -1.5970   28.9010 C.3    45  PRO45       0.0207
      7  CD        63.3490   -2.5900   29.9540 C.3    45  PRO45       0.0892
      8  N         62.4750   -5.3180   24.6330 N.3    47  TRP47      -0.1227
      9  CA        63.5950   -6.0550   24.0570 C.3    47  TRP47       0.1737
     10  C         64.3230   -6.8950   25.1020 C.2    47  TRP47       0.2595
     11  O         64.9510   -7.9030   24.7560 O.2    47  TRP47      -0.2718
     12  CB        64.5510   -5.0870   23.3530 C.3    47  TRP47       0.0564
     13  CG        65.4390   -4.2810   24.2480 C.ar   47  TRP47       0.0003
     14  CD1       65.1830   -3.0360   24.7420 C.ar   47  TRP47       0.0946
     15  CD2       66.7350   -4.6510   24.7430 C.ar   47  TRP47       0.0152
     16  NE1       66.2380   -2.6040   25.5110 N.ar   47  TRP47      -0.2442
     17  CE2       67.2020   -3.5790   25.5300 C.ar   47  TRP47       0.0810
     18  CE3       67.5430   -5.7840   24.5980 C.ar   47  TRP47       0.0012
     19  CZ2       68.4390   -3.6080   26.1710 C.ar   47  TRP47       0.0191
     20  CZ3       68.7680   -5.8100   25.2330 C.ar   47  TRP47       0.0001
     21  CH2       69.2040   -4.7300   26.0090 C.ar   47  TRP47       0.0015
     22  N         64.2470   -6.5120   26.3770 N.am   48  VAL48      -0.1980
     23  CA        64.8290   -7.3450   27.4260 C.3    48  VAL48       0.1595
     24  C         64.0410   -8.6410   27.5710 C.2    48  VAL48       0.2287
     25  O         64.6180   -9.7190   27.7670 O.2    48  VAL48      -0.2864
     26  CB        64.8820   -6.5720   28.7580 C.3    48  VAL48       0.0276
     27  CG1       65.4300   -7.4600   29.8720 C.3    48  VAL48       0.0022
     28  CG2       65.7220   -5.3090   28.6120 C.3    48  VAL48       0.0022
     29  N         65.0230  -10.9870   24.6980 N.3    51  LEU51      -0.1231
     30  CA        66.3910  -11.4710   24.8430 C.3    51  LEU51       0.1693
     31  C         66.4930  -12.4960   25.9650 C.2    51  LEU51       0.2591
     32  O         67.1000  -13.5610   25.7970 O.2    51  LEU51      -0.2718
     33  CB        67.3440  -10.3040   25.0910 C.3    51  LEU51       0.0284
     34  CG        68.7910  -10.7160   25.3770 C.3    51  LEU51       0.0019
     35  CD1       69.3280  -11.6140   24.2600 C.3    51  LEU51       0.0001
     36  CD2       69.6690   -9.4870   25.5460 C.3    51  LEU51       0.0001
     37  N         65.9300  -12.1800   27.1340 N.am   52  ILE52      -0.1980
     38  CA        66.0340  -13.1000   28.2620 C.3    52  ILE52       0.1595
     39  C         65.3400  -14.4150   27.9370 C.2    52  ILE52       0.2287
     40  O         65.7640  -15.4810   28.4000 O.2    52  ILE52      -0.2864
     41  CB        65.4780  -12.4680   29.5520 C.3    52  ILE52       0.0276
     42  CG1       65.9990  -13.2580   30.7590 C.3    52  ILE52       0.0022
     43  CG2       63.9550  -12.4610   29.5410 C.3    52  ILE52       0.0022
     44  CD1       65.9240  -12.5270   32.0790 C.3    52  ILE52       0.0001
     45  N         67.7850  -16.5870   26.2230 N.3    55  VAL55      -0.1245
     46  CA        68.8740  -17.0910   27.0500 C.3    55  VAL55       0.1561
     47  C         68.3590  -17.9630   28.1760 C.2    55  VAL55       0.2260
     48  O         69.1590  -18.5180   28.9400 O.2    55  VAL55      -0.2867
     49  CB        69.7170  -15.9380   27.6360 C.3    55  VAL55       0.0252
     50  CG1       70.8500  -16.4730   28.4920 C.3    55  VAL55       0.0019
     51  CG2       70.3050  -15.0890   26.5160 C.3    55  VAL55       0.0019
     52  N         71.3650  -19.2100   30.7470 N.3    59  LEU59      -0.1245
     53  CA        71.5330  -18.7860   32.1380 C.3    59  LEU59       0.1561
     54  C         71.0710  -19.8600   33.1180 C.2    59  LEU59       0.2260
     55  O         71.6810  -20.0330   34.1770 O.2    59  LEU59      -0.2867
     56  CB        70.8310  -17.4640   32.4150 C.3    59  LEU59       0.0270
     57  CG        71.6020  -16.2820   31.8190 C.3    59  LEU59       0.0019
     58  CD1       70.7390  -15.0220   31.7880 C.3    59  LEU59       0.0001
     59  CD2       72.9330  -16.0530   32.4980 C.3    59  LEU59       0.0001
     60  N         63.8210  -12.6660   35.6660 N.3    87  LEU87      -0.1245
     61  CA        64.0150  -11.2300   35.5080 C.3    87  LEU87       0.1561
     62  C         63.7470  -10.4980   36.8160 C.2    87  LEU87       0.2260
     63  O         64.3950   -9.4890   37.1150 O.2    87  LEU87      -0.2867
     64  CB        63.1190  -10.7000   34.3930 C.3    87  LEU87       0.0270
     65  CG        63.3730   -9.2570   33.9630 C.3    87  LEU87       0.0019
     66  CD1       64.8200   -9.0520   33.5410 C.3    87  LEU87       0.0001
     67  CD2       62.4330   -8.9200   32.8250 C.3    87  LEU87       0.0001
     68  N         66.7580  -11.0810   39.0010 N.3    90  LEU90      -0.1245
     69  CA        67.8790  -10.2970   38.5030 C.3    90  LEU90       0.1561
     70  C         67.5070   -8.8310   38.3060 C.2    90  LEU90       0.2260
     71  O         68.1350   -8.1390   37.5000 O.2    90  LEU90      -0.2867
     72  CB        68.3940  -10.9010   37.1940 C.3    90  LEU90       0.0270
     73  CG        68.8490  -12.3630   37.2750 C.3    90  LEU90       0.0019
     74  CD1       69.1180  -12.9310   35.8890 C.3    90  LEU90       0.0001
     75  CD2       70.0740  -12.4950   38.1590 C.3    90  LEU90       0.0001
     76  N         70.3700   -6.6220   38.5990 N.3    93  GLU93      -0.1231
     77  CA        71.3210   -6.7870   37.5080 C.3    93  GLU93       0.1699
     78  C         70.7880   -6.2090   36.2020 C.2    93  GLU93       0.2593
     79  O         71.5710   -5.7260   35.3780 O.2    93  GLU93      -0.2718
     80  CB        71.6560   -8.2700   37.3350 C.3    93  GLU93       0.0402
     81  CG        72.5400   -8.8670   38.4370 C.3    93  GLU93       0.1161
     82  CD        71.9100   -8.8410   39.8270 C.2    93  GLU93       0.3649
     83  OE1       70.6810   -8.6640   39.9390 O.co2  93  GLU93      -0.2457
     84  OE2       72.6570   -9.0050   40.8130 O.co2  93  GLU93      -0.2457
     85  N         69.4680   -6.2560   35.9900 N.am   94  SER94      -0.1938
     86  CA        68.8940   -5.7510   34.7450 C.3    94  SER94       0.2055
     87  C         69.1210   -4.2530   34.5790 C.2    94  SER94       0.2644
     88  O         69.1570   -3.7520   33.4490 O.2    94  SER94      -0.2714
     89  CB        67.3980   -6.0540   34.6950 C.3    94  SER94       0.2130
     90  OG        66.6870   -5.2450   35.6160 O.3    94  SER94      -0.2179
     91  N         69.2480   -3.5210   35.6800 N.am   95  SER95      -0.1935
     92  CA        69.5440   -2.0970   35.7300 C.3    95  SER95       0.2055
     93  C         68.3330   -1.2450   35.3810 C.2    95  SER95       0.2642
     94  O         68.3920   -0.0250   35.5540 O.2    95  SER95      -0.2714
     95  CB        70.7100   -1.6850   34.8080 C.3    95  SER95       0.2130
     96  OG        70.2970   -1.6480   33.4550 O.3    95  SER95      -0.2179
     97  N         67.2330   -1.8310   34.8960 N.am   96  VAL96      -0.1977
     98  CA        66.0590   -1.0390   34.5540 C.3    96  VAL96       0.1596
     99  C         65.1390   -0.8150   35.7450 C.2    96  VAL96       0.2287
    100  O         64.1570   -0.0710   35.6210 O.2    96  VAL96      -0.2864
    101  CB        65.2460   -1.6970   33.4160 C.3    96  VAL96       0.0276
    102  CG1       66.0480   -1.7410   32.1520 C.3    96  VAL96       0.0022
    103  CG2       64.8000   -3.0990   33.8210 C.3    96  VAL96       0.0022
@<TRIPOS>BOND
     1    12     9    1
     2    12    13    1
     3     9     8    1
     4     9    10    1
     5    13    14   ar
     6    13    15   ar
     7    35    34    1
     8    18    15   ar
     9    18    20   ar
    10    29    30    1
    11    14    16   ar
    12    15    17   ar
    13    11    10    2
    14    30    33    1
    15    30    31    1
    16    33    34    1
    17    10    22   am
    18    20    21   ar
    19    34    36    1
    20    16    17   ar
    21    17    19   ar
    22    32    31    2
    23    31    37   am
    24    21    19   ar
    25    45    46    1
    26    22    23    1
    27    51    49    1
    28    46    49    1
    29    46    47    1
    30    37    38    1
    31     3     4    2
    32     3     2    1
    33    23    24    1
    34    23    26    1
    35    24    25    2
    36    49    50    1
    37     5     2    1
    38     5     6    1
    39    39    38    1
    40    39    40    2
    41     2     1    1
    42    47    48    2
    43    38    41    1
    44    28    26    1
    45    26    27    1
    46     6     7    1
    47    43    41    1
    48    41    42    1
    49     1     7    1
    50    52    53    1
    51    42    44    1
    52    58    57    1
    53    57    56    1
    54    57    59    1
    55    53    56    1
    56    53    54    1
    57   102   101    1
    58    67    65    1
    59    54    55    2
    60   101   103    1
    61   101    98    1
    62    88    87    2
    63    96    95    1
    64    66    65    1
    65    65    64    1
    66    64    61    1
    67    98    97    1
    68    98    99    1
    69    87    86    1
    70    87    91   am
    71    89    86    1
    72    89    90    1
    73    86    85    1
    74    95    92    1
    75    97    93   am
    76    79    78    2
    77    93    94    2
    78    93    92    1
    79    61    60    1
    80    61    62    1
    81   100    99    2
    82    91    92    1
    83    74    73    1
    84    85    78   am
    85    78    77    1
    86    62    63    2
    87    72    73    1
    88    72    69    1
    89    73    75    1
    90    80    77    1
    91    80    81    1
    92    71    70    2
    93    77    76    1
    94    70    69    1
    95    81    82    1
    96    69    68    1
    97    82    83   ar
    98    82    84   ar
