@<TRIPOS>MOLECULE
tmp/6dxxE01.pdb
 76 71 0 0 0
SMALL
GASTEIGER

@<TRIPOS>ATOM
      1  N         50.6010  -12.5090   44.6030 N.3    32  VAL32      -0.1245
      2  CA        52.0360  -12.5050   44.3570 C.3    32  VAL32       0.1561
      3  C         52.3060  -12.4960   42.8550 C.2    32  VAL32       0.2260
      4  O         53.1540  -11.7390   42.3560 O.2    32  VAL32      -0.2867
      5  CB        52.7440  -13.6890   45.0520 C.3    32  VAL32       0.0252
      6  CG1       54.2330  -13.6580   44.8070 C.3    32  VAL32       0.0019
      7  CG2       52.4270  -13.6640   46.5440 C.3    32  VAL32       0.0019
      8  N         51.5860   -9.0510   41.4440 N.3    35  ALA35      -0.1231
      9  CA        52.5780   -8.0510   41.8270 C.3    35  ALA35       0.1694
     10  C         53.8800   -8.2150   41.0480 C.2    35  ALA35       0.2591
     11  O         54.5640   -7.2220   40.7640 O.2    35  ALA35      -0.2718
     12  CB        52.8380   -8.1420   43.3290 C.3    35  ALA35       0.0304
     13  N         54.2610   -9.4540   40.7250 N.am   36  MET36      -0.1979
     14  CA        55.4410   -9.6660   39.8910 C.3    36  MET36       0.1605
     15  C         55.2120   -9.1470   38.4760 C.2    36  MET36       0.2287
     16  O         56.0660   -8.4560   37.9090 O.2    36  MET36      -0.2864
     17  CB        55.8010  -11.1490   39.8590 C.3    36  MET36       0.0413
     18  CG        56.2620  -11.6920   41.1890 C.3    36  MET36       0.0598
     19  SD        57.1300  -13.2440   40.9840 S.3    36  MET36      -0.1393
     20  CE        57.5530  -13.5980   42.6900 C.3    36  MET36       0.0692
     21  N         55.4470   -5.0450   38.3340 N.3    39  VAL39      -0.1245
     22  CA        56.7130   -4.3270   38.2520 C.3    39  VAL39       0.1561
     23  C         57.4140   -4.6400   36.9430 C.2    39  VAL39       0.2260
     24  O         58.0960   -3.7790   36.3760 O.2    39  VAL39      -0.2867
     25  CB        57.6220   -4.6280   39.4550 C.3    39  VAL39       0.0252
     26  CG1       58.9770   -4.0070   39.2380 C.3    39  VAL39       0.0019
     27  CG2       57.0250   -4.0700   40.6870 C.3    39  VAL39       0.0019
     28  N         62.7740  -10.9720   37.5930 N.3    88  VAL88      -0.1231
     29  CA        62.5140  -10.3770   38.8980 C.3    88  VAL88       0.1692
     30  C         63.6850  -10.6260   39.8440 C.2    88  VAL88       0.2592
     31  O         64.0870   -9.7360   40.6040 O.2    88  VAL88      -0.2718
     32  CB        61.1960  -10.9260   39.4710 C.3    88  VAL88       0.0266
     33  CG1       60.9730  -10.4100   40.8920 C.3    88  VAL88       0.0020
     34  CG2       60.0270  -10.5430   38.5730 C.3    88  VAL88       0.0020
     35  N         64.2340  -11.8410   39.8360 N.am   89  ASN89      -0.1974
     36  CA        65.3620  -12.1450   40.7110 C.3    89  ASN89       0.1688
     37  C         66.6450  -11.4470   40.2770 C.2    89  ASN89       0.2292
     38  O         67.5390  -11.2430   41.1090 O.2    89  ASN89      -0.2864
     39  CB        65.5850  -13.6530   40.7620 C.3    89  ASN89       0.1181
     40  CG        64.6270  -14.3460   41.6930 C.2    89  ASN89       0.2629
     41  OD1       64.9610  -14.6470   42.8380 O.2    89  ASN89      -0.2716
     42  ND2       63.4140  -14.5800   41.2190 N.am   89  ASN89      -0.0877
     43  N         66.4960   -8.3450   39.0330 N.3    91  ALA91      -0.1231
     44  CA        66.0430   -6.9710   38.8480 C.3    91  ALA91       0.1694
     45  C         67.1870   -5.9930   39.0600 C.2    91  ALA91       0.2592
     46  O         67.3170   -5.0050   38.3270 O.2    91  ALA91      -0.2718
     47  CB        64.8950   -6.6690   39.8110 C.3    91  ALA91       0.0304
     48  N         68.0270   -6.2490   40.0620 N.am   92  TYR92      -0.1976
     49  CA        69.1620   -5.3700   40.3060 C.3    92  TYR92       0.1639
     50  C         70.1430   -5.4250   39.1430 C.2    92  TYR92       0.2290
     51  O         70.6720   -4.3920   38.7150 O.2    92  TYR92      -0.2864
     52  CB        69.8470   -5.7670   41.6180 C.3    92  TYR92       0.0560
     53  CG        70.9650   -4.8430   42.0220 C.ar   92  TYR92      -0.0198
     54  CD1       72.2830   -5.1420   41.7100 C.ar   92  TYR92      -0.0009
     55  CD2       70.7020   -3.6680   42.7140 C.ar   92  TYR92      -0.0009
     56  CE1       73.3110   -4.2940   42.0720 C.ar   92  TYR92       0.0417
     57  CE2       71.7190   -2.8120   43.0790 C.ar   92  TYR92       0.0417
     58  CZ        73.0240   -3.1290   42.7560 C.ar   92  TYR92       0.1957
     59  OH        74.0490   -2.2850   43.1150 O.3    92  TYR92      -0.2866
     60  N         69.2480   -3.5210   35.6800 N.3    95  SER95      -0.1217
     61  CA        69.5440   -2.0970   35.7300 C.3    95  SER95       0.1889
     62  C         68.3330   -1.2450   35.3810 C.2    95  SER95       0.2288
     63  O         68.3920   -0.0250   35.5540 O.2    95  SER95      -0.2866
     64  CB        70.7100   -1.6850   34.8080 C.3    95  SER95       0.2089
     65  OG        70.2970   -1.6480   33.4550 O.3    95  SER95      -0.2183
     66  N         65.4310   -1.4220   36.8930 N.3    97  PHE97      -0.1241
     67  CA        64.5830   -1.3260   38.0800 C.3    97  PHE97       0.1605
     68  C         65.0410   -0.2210   39.0220 C.2    97  PHE97       0.2264
     69  O         66.0410    0.4560   38.7790 O.2    97  PHE97      -0.2867
     70  CB        64.5700   -2.6730   38.8140 C.3    97  PHE97       0.0534
     71  CG        63.6840   -3.7060   38.1690 C.ar   97  PHE97      -0.0203
     72  CD1       62.5320   -4.1420   38.8040 C.ar   97  PHE97      -0.0042
     73  CD2       64.0020   -4.2460   36.9330 C.ar   97  PHE97      -0.0042
     74  CE1       61.7260   -5.0930   38.2230 C.ar   97  PHE97      -0.0003
     75  CE2       63.1790   -5.1890   36.3420 C.ar   97  PHE97      -0.0003
     76  CZ        62.0430   -5.6100   36.9910 C.ar   97  PHE97      -0.0000
@<TRIPOS>BOND
     1    65    64    1
     2    64    61    1
     3    62    63    2
     4    62    61    1
     5    60    61    1
     6    75    73   ar
     7    75    76   ar
     8    24    23    2
     9    66    67    1
    10    73    71   ar
    11    23    22    1
    12    76    74   ar
    13    28    29    1
    14    16    15    2
    15    67    70    1
    16    67    68    1
    17    71    72   ar
    18    71    70    1
    19    74    72   ar
    20    22    21    1
    21    22    25    1
    22    46    45    2
    23    15    14    1
    24    34    32    1
    25    51    50    2
    26    69    68    2
    27    44    43    1
    28    44    45    1
    29    44    47    1
    30    29    32    1
    31    29    30    1
    32    45    48   am
    33    50    49    1
    34    26    25    1
    35    25    27    1
    36    32    33    1
    37    35    30   am
    38    35    36    1
    39    30    31    2
    40    17    14    1
    41    17    18    1
    42    14    13    1
    43    48    49    1
    44    37    36    1
    45    37    38    2
    46    49    52    1
    47    36    39    1
    48    13    10   am
    49    39    40    1
    50    11    10    2
    51    19    18    1
    52    19    20    1
    53    10     9    1
    54    42    40   am
    55     8     9    1
    56    52    53    1
    57    40    41    2
    58    54    53   ar
    59    54    56   ar
    60     9    12    1
    61    53    55   ar
    62    56    58   ar
    63     4     3    2
    64    55    57   ar
    65    58    57   ar
    66    58    59    1
    67     3     2    1
    68     2     1    1
    69     2     5    1
    70     6     5    1
    71     5     7    1
