@<TRIPOS>MOLECULE
tmp/6dxzA00.pdb
 100 97 0 0 0
SMALL
GASTEIGER

@<TRIPOS>ATOM
      1  N        -32.2550   28.2420   51.4650 N.3    43  PRO43      -0.2116
      2  CA       -32.4530   29.2900   52.4730 C.3    43  PRO43       0.1372
      3  C        -32.8840   28.6960   53.8060 C.2    43  PRO43       0.2244
      4  O        -33.4730   27.6140   53.8680 O.2    43  PRO43      -0.2868
      5  CB       -33.5500   30.1720   51.8650 C.3    43  PRO43       0.0268
      6  CG       -33.4300   29.9580   50.3850 C.3    43  PRO43       0.0207
      7  CD       -32.9970   28.5200   50.2210 C.3    43  PRO43       0.0892
      8  N        -35.1820   29.7300   55.8040 N.3    45  TRP45      -0.1227
      9  CA       -36.6300   29.6980   55.9780 C.3    45  TRP45       0.1737
     10  C        -37.2660   28.5410   55.2200 C.2    45  TRP45       0.2595
     11  O        -38.3200   28.0430   55.6300 O.2    45  TRP45      -0.2718
     12  CB       -37.2510   31.0280   55.5420 C.3    45  TRP45       0.0564
     13  CG       -37.0710   31.3550   54.0940 C.ar   45  TRP45       0.0003
     14  CD1      -36.0030   31.9780   53.5210 C.ar   45  TRP45       0.0946
     15  CD2      -37.9980   31.0910   53.0350 C.ar   45  TRP45       0.0152
     16  NE1      -36.2030   32.1140   52.1690 N.ar   45  TRP45      -0.2442
     17  CE2      -37.4210   31.5770   51.8450 C.ar   45  TRP45       0.0810
     18  CE3      -39.2580   30.4880   52.9760 C.ar   45  TRP45       0.0012
     19  CZ2      -38.0580   31.4770   50.6090 C.ar   45  TRP45       0.0191
     20  CZ3      -39.8900   30.3900   51.7490 C.ar   45  TRP45       0.0001
     21  CH2      -39.2890   30.8820   50.5830 C.ar   45  TRP45       0.0015
     22  N        -36.6460   28.0960   54.1260 N.am   46  VAL46      -0.1980
     23  CA       -37.1280   26.9060   53.4320 C.3    46  VAL46       0.1595
     24  C        -36.8170   25.6600   54.2490 C.2    46  VAL46       0.2287
     25  O        -37.6710   24.7830   54.4290 O.2    46  VAL46      -0.2864
     26  CB       -36.5140   26.8230   52.0210 C.3    46  VAL46       0.0276
     27  CG1      -36.8980   25.5120   51.3470 C.3    46  VAL46       0.0022
     28  CG2      -36.9550   28.0130   51.1790 C.3    46  VAL46       0.0022
     29  N        -39.5090   22.7250   55.4460 N.3    50  ILE50      -0.1245
     30  CA       -39.3750   21.3710   54.9200 C.3    50  ILE50       0.1561
     31  C        -39.1950   20.3730   56.0560 C.2    50  ILE50       0.2260
     32  O        -39.7540   19.2700   56.0230 O.2    50  ILE50      -0.2867
     33  CB       -38.2160   21.3010   53.9100 C.3    50  ILE50       0.0252
     34  CG1      -38.5900   22.0630   52.6370 C.3    50  ILE50       0.0019
     35  CG2      -37.8740   19.8530   53.5880 C.3    50  ILE50       0.0019
     36  CD1      -37.4820   22.1470   51.6180 C.3    50  ILE50       0.0001
     37  N        -44.1500   15.1090   52.9690 N.3    57  LEU57      -0.1245
     38  CA       -43.5010   15.1140   51.6630 C.3    57  LEU57       0.1561
     39  C        -43.0560   13.7130   51.2630 C.2    57  LEU57       0.2260
     40  O        -43.1450   13.3390   50.0880 O.2    57  LEU57      -0.2867
     41  CB       -42.3130   16.0730   51.6910 C.3    57  LEU57       0.0270
     42  CG       -41.2810   16.0130   50.5650 C.3    57  LEU57       0.0019
     43  CD1      -41.8820   16.4350   49.2450 C.3    57  LEU57       0.0001
     44  CD2      -40.0870   16.8940   50.9300 C.3    57  LEU57       0.0001
     45  N        -33.9390   14.0040   51.4610 N.3    84  LEU84      -0.1231
     46  CA       -34.8490   14.2780   50.3550 C.3    84  LEU84       0.1693
     47  C        -34.3880   15.4820   49.5470 C.2    84  LEU84       0.2591
     48  O        -34.5090   15.4940   48.3170 O.2    84  LEU84      -0.2718
     49  CB       -36.2640   14.5020   50.8860 C.3    84  LEU84       0.0284
     50  CG       -36.9210   13.3110   51.5850 C.3    84  LEU84       0.0019
     51  CD1      -38.2550   13.7340   52.1900 C.3    84  LEU84       0.0001
     52  CD2      -37.1090   12.1470   50.6280 C.3    84  LEU84       0.0001
     53  N        -33.8570   16.5060   50.2170 N.am   85  LEU85      -0.1980
     54  CA       -33.4060   17.6950   49.5030 C.3    85  LEU85       0.1596
     55  C        -32.2460   17.3760   48.5690 C.2    85  LEU85       0.2287
     56  O        -32.2070   17.8560   47.4290 O.2    85  LEU85      -0.2864
     57  CB       -33.0060   18.7820   50.5020 C.3    85  LEU85       0.0297
     58  CG       -34.1320   19.6720   51.0280 C.3    85  LEU85       0.0022
     59  CD1      -33.6490   20.4930   52.2110 C.3    85  LEU85       0.0001
     60  CD2      -34.6440   20.5820   49.9250 C.3    85  LEU85       0.0001
     61  N        -33.5480   15.3380   45.6480 N.3    88  LEU88      -0.1245
     62  CA       -34.3510   16.1590   44.7510 C.3    88  LEU88       0.1561
     63  C        -33.6300   17.4440   44.3700 C.2    88  LEU88       0.2260
     64  O        -34.2740   18.4460   44.0370 O.2    88  LEU88      -0.2867
     65  CB       -35.7030   16.4750   45.3930 C.3    88  LEU88       0.0270
     66  CG       -36.6090   15.2680   45.6410 C.3    88  LEU88       0.0019
     67  CD1      -37.8380   15.6800   46.4400 C.3    88  LEU88       0.0001
     68  CD2      -37.0180   14.6170   44.3300 C.3    88  LEU88       0.0001
     69  N        -34.4780   18.6840   40.9250 N.3    91  GLU91      -0.1231
     70  CA       -35.8400   19.1930   40.8360 C.3    91  GLU91       0.1699
     71  C        -36.0380   20.4950   41.6060 C.2    91  GLU91       0.2592
     72  O        -37.1310   21.0690   41.5450 O.2    91  GLU91      -0.2718
     73  CB       -36.8240   18.1330   41.3430 C.3    91  GLU91       0.0402
     74  CG       -36.9300   16.8980   40.4460 C.3    91  GLU91       0.1161
     75  CD       -35.6690   16.0430   40.4470 C.2    91  GLU91       0.3649
     76  OE1      -34.8000   16.2500   41.3210 O.co2  91  GLU91      -0.2457
     77  OE2      -35.5440   15.1630   39.5700 O.co2  91  GLU91      -0.2457
     78  N        -35.0170   20.9740   42.3130 N.am   92  TYR92      -0.1962
     79  CA       -35.0850   22.2170   43.0740 C.3    92  TYR92       0.1771
     80  C        -34.0520   23.1820   42.5140 C.2    92  TYR92       0.2620
     81  O        -32.8490   22.9000   42.5560 O.2    92  TYR92      -0.2715
     82  CB       -34.8290   21.9580   44.5620 C.3    92  TYR92       0.0574
     83  CG       -35.0260   23.1600   45.4620 C.ar   92  TYR92      -0.0198
     84  CD1      -35.7440   24.2710   45.0360 C.ar   92  TYR92      -0.0009
     85  CD2      -34.4890   23.1790   46.7420 C.ar   92  TYR92      -0.0009
     86  CE1      -35.9230   25.3640   45.8630 C.ar   92  TYR92       0.0417
     87  CE2      -34.6610   24.2680   47.5750 C.ar   92  TYR92       0.0417
     88  CZ       -35.3780   25.3570   47.1290 C.ar   92  TYR92       0.1957
     89  OH       -35.5500   26.4410   47.9570 O.3    92  TYR92      -0.2866
     90  N        -34.5190   24.3210   42.0010 N.am   93  SER93      -0.1936
     91  CA       -33.6340   25.2660   41.3290 C.3    93  SER93       0.2055
     92  C        -32.5730   25.8480   42.2530 C.2    93  SER93       0.2642
     93  O        -31.6170   26.4570   41.7600 O.2    93  SER93      -0.2714
     94  CB       -34.4550   26.3970   40.7110 C.3    93  SER93       0.2130
     95  OG       -35.2550   27.0340   41.6890 O.3    93  SER93      -0.2179
     96  N        -32.7080   25.6800   43.5700 N.am   94  ALA94      -0.1977
     97  CA       -31.6920   26.1950   44.4820 C.3    94  ALA94       0.1597
     98  C        -30.3420   25.5270   44.2530 C.2    94  ALA94       0.2287
     99  O        -29.2990   26.1330   44.5180 O.2    94  ALA94      -0.2864
    100  CB       -32.1420   26.0030   45.9290 C.3    94  ALA94       0.0319
@<TRIPOS>BOND
     1    77    75   ar
     2    74    75    1
     3    74    73    1
     4    75    76   ar
     5    94    91    1
     6    94    95    1
     7    70    69    1
     8    70    73    1
     9    70    71    1
    10    91    90    1
    11    91    92    1
    12    72    71    2
    13    71    78   am
    14    93    92    2
    15    90    80   am
    16    92    96   am
    17    78    79    1
    18    80    81    2
    19    80    79    1
    20    79    82    1
    21    96    97    1
    22    64    63    2
    23    98    97    1
    24    98    99    2
    25    68    66    1
    26    63    62    1
    27    97   100    1
    28    82    83    1
    29    62    65    1
    30    62    61    1
    31    84    83   ar
    32    84    86   ar
    33    65    66    1
    34    83    85   ar
    35    66    67    1
    36    86    88   ar
    37    85    87   ar
    38    88    87   ar
    39    88    89    1
    40    56    55    2
    41    48    47    2
    42    55    54    1
    43    43    42    1
    44    54    53    1
    45    54    57    1
    46    47    53   am
    47    47    46    1
    48    60    58    1
    49    40    39    2
    50     7     6    1
    51     7     1    1
    52    46    49    1
    53    46    45    1
    54     6     5    1
    55    57    58    1
    56    42    44    1
    57    42    41    1
    58    21    19   ar
    59    21    20   ar
    60    19    17   ar
    61    52    50    1
    62    49    50    1
    63    58    59    1
    64    28    26    1
    65    39    38    1
    66    27    26    1
    67     1     2    1
    68    50    51    1
    69    36    34    1
    70    38    41    1
    71    38    37    1
    72    20    18   ar
    73    17    16   ar
    74    17    15   ar
    75     5     2    1
    76    26    23    1
    77    16    14   ar
    78     2     3    1
    79    34    33    1
    80    18    15   ar
    81    15    13   ar
    82    23    22    1
    83    23    24    1
    84    14    13   ar
    85    35    33    1
    86     3     4    2
    87    33    30    1
    88    13    12    1
    89    22    10   am
    90    24    25    2
    91    30    29    1
    92    30    31    1
    93    10    11    2
    94    10     9    1
    95    12     9    1
    96     8     9    1
    97    32    31    2
