@<TRIPOS>MOLECULE
tmp/6dy0A00.pdb
 93 90 0 0 0
SMALL
GASTEIGER

@<TRIPOS>ATOM
      1  N        -12.0530    5.1780  -17.9250 N.3    45  TRP45      -0.1227
      2  CA       -12.0740    3.7180  -17.8760 C.3    45  TRP45       0.1737
      3  C        -12.9380    3.2170  -16.7270 C.2    45  TRP45       0.2595
      4  O        -13.6730    2.2340  -16.8760 O.2    45  TRP45      -0.2718
      5  CB       -10.6510    3.1700  -17.7610 C.3    45  TRP45       0.0564
      6  CG        -9.8530    3.7540  -16.6420 C.ar   45  TRP45       0.0003
      7  CD1       -9.1220    4.9040  -16.6710 C.ar   45  TRP45       0.0946
      8  CD2       -9.6950    3.2110  -15.3260 C.ar   45  TRP45       0.0152
      9  NE1       -8.5200    5.1130  -15.4560 N.ar   45  TRP45      -0.2442
     10  CE2       -8.8580    4.0890  -14.6120 C.ar   45  TRP45       0.0810
     11  CE3      -10.1820    2.0700  -14.6830 C.ar   45  TRP45       0.0012
     12  CZ2       -8.5000    3.8630  -13.2870 C.ar   45  TRP45       0.0191
     13  CZ3       -9.8220    1.8460  -13.3670 C.ar   45  TRP45       0.0001
     14  CH2       -8.9890    2.7380  -12.6840 C.ar   45  TRP45       0.0015
     15  N        -12.8690    3.8810  -15.5720 N.am   46  VAL46      -0.1980
     16  CA       -13.8270    3.6050  -14.5050 C.3    46  VAL46       0.1595
     17  C        -15.2410    3.8450  -15.0140 C.2    46  VAL46       0.2287
     18  O        -16.1320    3.0010  -14.8620 O.2    46  VAL46      -0.2864
     19  CB       -13.5230    4.4690  -13.2670 C.3    46  VAL46       0.0276
     20  CG1      -14.5110    4.1620  -12.1460 C.3    46  VAL46       0.0022
     21  CG2      -12.0960    4.2460  -12.7920 C.3    46  VAL46       0.0022
     22  N        -17.8960    1.0000  -15.5350 N.3    50  ILE50      -0.1245
     23  CA       -19.2650    1.1140  -15.0380 C.3    50  ILE50       0.1561
     24  C        -20.2510    0.9630  -16.1890 C.2    50  ILE50       0.2260
     25  O        -21.1100    0.0740  -16.1820 O.2    50  ILE50      -0.2867
     26  CB       -19.4550    2.4510  -14.3000 C.3    50  ILE50       0.0252
     27  CG1      -18.5690    2.4870  -13.0510 C.3    50  ILE50       0.0019
     28  CG2      -20.9170    2.6530  -13.9100 C.3    50  ILE50       0.0019
     29  CD1      -18.4080    3.8630  -12.4460 C.3    50  ILE50       0.0001
     30  N        -24.7710   -3.9970  -12.7960 N.3    57  LEU57      -0.1245
     31  CA       -24.6480   -3.3960  -11.4720 C.3    57  LEU57       0.1561
     32  C        -26.0150   -3.0130  -10.9160 C.2    57  LEU57       0.2260
     33  O        -26.3500   -3.3490   -9.7750 O.2    57  LEU57      -0.2867
     34  CB       -23.7250   -2.1790  -11.5470 C.3    57  LEU57       0.0270
     35  CG       -23.8440   -1.1140  -10.4570 C.3    57  LEU57       0.0019
     36  CD1      -23.6320   -1.7090   -9.0760 C.3    57  LEU57       0.0001
     37  CD2      -22.8410   -0.0030  -10.7190 C.3    57  LEU57       0.0001
     38  N        -25.8640    6.5570  -11.7850 N.3    84  LEU84      -0.1231
     39  CA       -25.4710    5.7660  -10.6270 C.3    84  LEU84       0.1693
     40  C        -24.2110    6.3010   -9.9660 C.2    84  LEU84       0.2591
     41  O        -23.9860    6.0280   -8.7840 O.2    84  LEU84      -0.2718
     42  CB       -25.2540    4.3060  -11.0270 C.3    84  LEU84       0.0284
     43  CG       -26.4280    3.5880  -11.6960 C.3    84  LEU84       0.0019
     44  CD1      -26.0870    2.1260  -11.9010 C.3    84  LEU84       0.0001
     45  CD2      -27.7070    3.7240  -10.8900 C.3    84  LEU84       0.0001
     46  N        -23.3870    7.0520  -10.6930 N.am   85  LEU85      -0.1980
     47  CA       -22.1450    7.5530  -10.1170 C.3    85  LEU85       0.1596
     48  C        -22.3810    8.7060   -9.1500 C.2    85  LEU85       0.2287
     49  O        -21.6090    8.8730   -8.2000 O.2    85  LEU85      -0.2864
     50  CB       -21.1860    7.9980  -11.2220 C.3    85  LEU85       0.0297
     51  CG       -20.0580    7.0260  -11.5670 C.3    85  LEU85       0.0022
     52  CD1      -19.2950    7.5210  -12.7830 C.3    85  LEU85       0.0001
     53  CD2      -19.1120    6.8390  -10.3890 C.3    85  LEU85       0.0001
     54  N        -24.5070    7.1340   -5.8960 N.3    88  LEU88      -0.1245
     55  CA       -23.5920    6.3820   -5.0470 C.3    88  LEU88       0.1561
     56  C        -22.2780    7.1230   -4.8320 C.2    88  LEU88       0.2260
     57  O        -21.2480    6.5000   -4.5610 O.2    88  LEU88      -0.2867
     58  CB       -23.3290    5.0000   -5.6430 C.3    88  LEU88       0.0270
     59  CG       -24.5280    4.0540   -5.6940 C.3    88  LEU88       0.0019
     60  CD1      -24.1710    2.8060   -6.4670 C.3    88  LEU88       0.0001
     61  CD2      -24.9890    3.6870   -4.2970 C.3    88  LEU88       0.0001
     62  N        -21.0710    6.6420   -1.1510 N.3    91  GLU91      -0.1231
     63  CA       -20.5780    5.2810   -0.9840 C.3    91  GLU91       0.1699
     64  C        -19.3010    5.0260   -1.7670 C.2    91  GLU91       0.2592
     65  O        -18.6250    4.0250   -1.5090 O.2    91  GLU91      -0.2718
     66  CB       -21.6530    4.2810   -1.4140 C.3    91  GLU91       0.0402
     67  CG       -22.8750    4.2270   -0.5040 C.3    91  GLU91       0.1161
     68  CD       -23.7820    5.4350   -0.6460 C.2    91  GLU91       0.3649
     69  OE1      -23.4550    6.3400   -1.4390 O.co2  91  GLU91      -0.2457
     70  OE2      -24.8260    5.4800    0.0360 O.co2  91  GLU91      -0.2457
     71  N        -18.9530    5.9030   -2.7070 N.am   92  TYR92      -0.1976
     72  CA       -17.7630    5.7350   -3.5290 C.3    92  TYR92       0.1639
     73  C        -16.5000    6.2740   -2.8730 C.2    92  TYR92       0.2290
     74  O        -15.3990    5.8480   -3.2420 O.2    92  TYR92      -0.2864
     75  CB       -17.9680    6.4280   -4.8830 C.3    92  TYR92       0.0560
     76  CG       -16.7270    6.5050   -5.7430 C.ar   92  TYR92      -0.0198
     77  CD1      -16.3400    5.4340   -6.5340 C.ar   92  TYR92      -0.0009
     78  CD2      -15.9490    7.6540   -5.7730 C.ar   92  TYR92      -0.0009
     79  CE1      -15.2080    5.5000   -7.3240 C.ar   92  TYR92       0.0417
     80  CE2      -14.8160    7.7300   -6.5600 C.ar   92  TYR92       0.0417
     81  CZ       -14.4500    6.6500   -7.3330 C.ar   92  TYR92       0.1957
     82  OH       -13.3220    6.7200   -8.1180 O.3    92  TYR92      -0.2866
     83  N        -14.4720    6.0710    3.2130 N.3    95  PHE95      -0.1241
     84  CA       -13.7000    5.0000    3.8310 C.3    95  PHE95       0.1605
     85  C        -12.4100    5.5380    4.4420 C.2    95  PHE95       0.2264
     86  O        -12.0990    6.7230    4.3330 O.2    95  PHE95      -0.2867
     87  CB       -13.3800    3.9080    2.8100 C.3    95  PHE95       0.0534
     88  CG       -12.7800    4.4240    1.5350 C.ar   95  PHE95      -0.0203
     89  CD1      -13.5460    4.5220    0.3880 C.ar   95  PHE95      -0.0042
     90  CD2      -11.4500    4.8050    1.4810 C.ar   95  PHE95      -0.0042
     91  CE1      -12.9990    4.9910   -0.7890 C.ar   95  PHE95      -0.0003
     92  CE2      -10.8980    5.2770    0.3070 C.ar   95  PHE95      -0.0003
     93  CZ       -11.6740    5.3700   -0.8300 C.ar   95  PHE95      -0.0000
@<TRIPOS>BOND
     1     1     2    1
     2     2     5    1
     3     2     3    1
     4     5     6    1
     5     4     3    2
     6     3    15   am
     7     7     6   ar
     8     7     9   ar
     9     6     8   ar
    10    24    25    2
    11    24    23    1
    12    15    16    1
    13    22    23    1
    14     9    10   ar
    15     8    11   ar
    16     8    10   ar
    17    23    26    1
    18    17    18    2
    19    17    16    1
    20    11    13   ar
    21    10    12   ar
    22    16    19    1
    23    26    28    1
    24    26    27    1
    25    13    14   ar
    26    12    14   ar
    27    19    21    1
    28    19    20    1
    29    27    29    1
    30    30    31    1
    31    52    51    1
    32    44    43    1
    33    38    39    1
    34    43    42    1
    35    43    45    1
    36    51    50    1
    37    51    53    1
    38    34    31    1
    39    34    35    1
    40    31    32    1
    41    50    47    1
    42    42    39    1
    43    32    33    2
    44    37    35    1
    45    46    47    1
    46    46    40   am
    47    39    40    1
    48    35    36    1
    49    47    48    1
    50    40    41    2
    51    48    49    2
    52    82    81    1
    53    81    79   ar
    54    81    80   ar
    55    79    77   ar
    56    80    78   ar
    57    77    76   ar
    58    60    59    1
    59    54    55    1
    60    78    76   ar
    61    76    75    1
    62    59    58    1
    63    59    61    1
    64    58    55    1
    65    55    56    1
    66    75    72    1
    67    56    57    2
    68    72    73    1
    69    72    71    1
    70    74    73    2
    71    71    64   am
    72    64    65    2
    73    64    63    1
    74    69    68   ar
    75    66    63    1
    76    66    67    1
    77    62    63    1
    78    93    91   ar
    79    93    92   ar
    80    91    89   ar
    81    68    67    1
    82    68    70   ar
    83    92    90   ar
    84    89    88   ar
    85    90    88   ar
    86    88    87    1
    87    87    84    1
    88    83    84    1
    89    84    85    1
    90    86    85    2
