@<TRIPOS>MOLECULE
tmp/6dy1B03.pdb
 143 139 0 0 0
SMALL
GASTEIGER

@<TRIPOS>ATOM
      1  N        -20.5040   17.5880    5.9730 N.3     1  CYS1       -0.1235
      2  CA       -21.8840   17.9730    6.2300 C.3     1  CYS1        0.1677
      3  C        -22.0520   18.4370    7.6680 C.2     1  CYS1        0.2270
      4  O        -21.0740   18.5820    8.3980 O.2     1  CYS1       -0.2867
      5  CB       -22.8230   16.8040    5.9500 C.3     1  CYS1        0.0956
      6  SG       -22.5040   15.9610    4.4130 S.3     1  CYS1       -0.0801
      7  N        -30.0120   20.6980    8.7900 N.3    17  ARG17      -0.1245
      8  CA       -28.8200   20.0900    8.2140 C.3    17  ARG17       0.1563
      9  C        -28.2090   21.0160    7.1740 C.2    17  ARG17       0.2260
     10  O        -28.8870   21.8620    6.5870 O.2    17  ARG17      -0.2867
     11  CB       -29.1370   18.7330    7.5750 C.3    17  ARG17       0.0307
     12  CG       -30.0010   18.8270    6.3330 C.3    17  ARG17       0.0489
     13  CD       -29.1790   18.7560    5.0600 C.3    17  ARG17       0.2205
     14  NE       -28.8700   17.3790    4.6810 N.pl3  17  ARG17      -0.0865
     15  CZ       -27.7150   16.7640    4.9050 C.cat  17  ARG17       0.5346
     16  NH1      -26.7160   17.3870    5.5130 N.pl3  17  ARG17       0.1354
     17  NH2      -27.5520   15.5120    4.5140 N.pl3  17  ARG17       0.1354
     18  N        -25.7640   20.5800    3.6580 N.3    19  LEU19      -0.1231
     19  CA       -25.2760   19.6200    2.6710 C.3    19  LEU19       0.1693
     20  C        -24.0590   20.2290    1.9870 C.2    19  LEU19       0.2592
     21  O        -24.1930   21.0840    1.1090 O.2    19  LEU19      -0.2718
     22  CB       -26.3650   19.2580    1.6670 C.3    19  LEU19       0.0284
     23  CG       -26.0870   17.9670    0.8940 C.3    19  LEU19       0.0019
     24  CD1      -27.3780   17.2360    0.5820 C.3    19  LEU19       0.0001
     25  CD2      -25.3260   18.2550   -0.3810 C.3    19  LEU19       0.0001
     26  N        -22.8750   19.7840    2.3940 N.am   20  ASP20      -0.1960
     27  CA       -21.6170   20.2760    1.8500 C.3    20  ASP20       0.1840
     28  C        -21.1000   19.2730    0.8270 C.2    20  ASP20       0.2622
     29  O        -20.8600   18.1090    1.1630 O.2    20  ASP20      -0.2715
     30  CB       -20.5880   20.4850    2.9620 C.3    20  ASP20       0.1450
     31  CG       -21.1090   21.3650    4.0850 C.2    20  ASP20       0.3671
     32  OD1      -22.1550   22.0190    3.8970 O.co2  20  ASP20      -0.2456
     33  OD2      -20.4690   21.4100    5.1560 O.co2  20  ASP20      -0.2456
     34  N        -20.9240   19.7240   -0.4130 N.am   21  TYR21      -0.1974
     35  CA       -20.4720   18.8450   -1.4810 C.3    21  TYR21       0.1639
     36  C        -19.8540   19.7000   -2.5740 C.2    21  TYR21       0.2290
     37  O        -20.3270   20.8160   -2.8170 O.2    21  TYR21      -0.2864
     38  CB       -21.6350   18.0180   -2.0440 C.3    21  TYR21       0.0560
     39  CG       -21.2290   16.6650   -2.5780 C.ar   21  TYR21      -0.0198
     40  CD1      -20.7370   15.6850   -1.7300 C.ar   21  TYR21      -0.0009
     41  CD2      -21.3450   16.3630   -3.9270 C.ar   21  TYR21      -0.0009
     42  CE1      -20.3690   14.4460   -2.2060 C.ar   21  TYR21       0.0417
     43  CE2      -20.9770   15.1250   -4.4130 C.ar   21  TYR21       0.0417
     44  CZ       -20.4900   14.1710   -3.5470 C.ar   21  TYR21       0.1957
     45  OH       -20.1210   12.9350   -4.0200 O.3    21  TYR21      -0.2866
     46  N        -18.7840   20.7440   -6.6150 N.3    23  TYR23      -0.1241
     47  CA       -19.6460   20.9750   -7.7740 C.3    23  TYR23       0.1605
     48  C        -20.8390   21.8480   -7.3950 C.2    23  TYR23       0.2264
     49  O        -21.9620   21.6320   -7.8520 O.2    23  TYR23      -0.2867
     50  CB       -20.1140   19.6510   -8.3820 C.3    23  TYR23       0.0534
     51  CG       -19.0220   18.6130   -8.5020 C.ar   23  TYR23      -0.0201
     52  CD1      -17.9540   18.7950   -9.3700 C.ar   23  TYR23      -0.0009
     53  CD2      -19.0620   17.4480   -7.7510 C.ar   23  TYR23      -0.0009
     54  CE1      -16.9530   17.8480   -9.4810 C.ar   23  TYR23       0.0417
     55  CE2      -18.0680   16.4940   -7.8560 C.ar   23  TYR23       0.0417
     56  CZ       -17.0160   16.6990   -8.7230 C.ar   23  TYR23       0.1957
     57  OH       -16.0230   15.7520   -8.8310 O.3    23  TYR23      -0.2866
     58  N        -22.9750   24.1110  -10.0620 N.3    26  ILE26      -0.1231
     59  CA       -23.9270   23.3700  -10.8840 C.3    26  ILE26       0.1692
     60  C        -25.1050   22.8710  -10.0580 C.2    26  ILE26       0.2591
     61  O        -26.2530   22.9370  -10.5050 O.2    26  ILE26      -0.2718
     62  CB       -23.1970   22.2080  -11.5930 C.3    26  ILE26       0.0266
     63  CG1      -22.5210   22.6990  -12.8790 C.3    26  ILE26       0.0019
     64  CG2      -24.1470   21.0420  -11.8900 C.3    26  ILE26       0.0020
     65  CD1      -23.4820   23.0990  -13.9990 C.3    26  ILE26       0.0001
     66  N        -24.8460   22.3670   -8.8510 N.am   27  LEU27      -0.1980
     67  CA       -25.9000   21.7310   -8.0700 C.3    27  LEU27       0.1596
     68  C        -26.8530   22.7410   -7.4460 C.2    27  LEU27       0.2287
     69  O        -28.0140   22.4080   -7.1910 O.2    27  LEU27      -0.2864
     70  CB       -25.2800   20.8540   -6.9830 C.3    27  LEU27       0.0297
     71  CG       -24.4190   19.6910   -7.4830 C.3    27  LEU27       0.0022
     72  CD1      -23.8540   18.9100   -6.3110 C.3    27  LEU27       0.0001
     73  CD2      -25.2050   18.7760   -8.3980 C.3    27  LEU27       0.0001
     74  N        -29.7230   22.9460   -9.6170 N.3    30  LEU30      -0.1245
     75  CA       -30.5340   21.7410   -9.7270 C.3    30  LEU30       0.1561
     76  C        -31.2420   21.3710   -8.4300 C.2    30  LEU30       0.2260
     77  O        -32.0420   20.4310   -8.4300 O.2    30  LEU30      -0.2867
     78  CB       -29.6650   20.5600  -10.1790 C.3    30  LEU30       0.0270
     79  CG       -28.9220   20.7310  -11.5060 C.3    30  LEU30       0.0019
     80  CD1      -28.0260   19.5350  -11.7680 C.3    30  LEU30       0.0001
     81  CD2      -29.9000   20.9230  -12.6470 C.3    30  LEU30       0.0001
     82  N        -31.4070   16.7510   -5.9400 N.3    49  PHE49      -0.1227
     83  CA       -30.9910   17.4150   -7.1650 C.3    49  PHE49       0.1736
     84  C        -31.6510   16.7350   -8.3560 C.2    49  PHE49       0.2595
     85  O        -31.7160   15.5040   -8.4190 O.2    49  PHE49      -0.2718
     86  CB       -29.4720   17.3770   -7.3160 C.3    49  PHE49       0.0547
     87  CG       -28.7310   17.7820   -6.0770 C.ar   49  PHE49      -0.0202
     88  CD1      -28.7650   19.0890   -5.6320 C.ar   49  PHE49      -0.0042
     89  CD2      -27.9940   16.8570   -5.3610 C.ar   49  PHE49      -0.0042
     90  CE1      -28.0820   19.4660   -4.4930 C.ar   49  PHE49      -0.0003
     91  CE2      -27.3090   17.2280   -4.2220 C.ar   49  PHE49      -0.0003
     92  CZ       -27.3520   18.5330   -3.7880 C.ar   49  PHE49      -0.0000
     93  N        -32.1440   17.5400   -9.2970 N.am   50  ILE50      -0.1966
     94  CA       -32.8000   17.0220  -10.4930 C.3    50  ILE50       0.1727
     95  C        -31.9060   15.9820  -11.1460 C.2    50  ILE50       0.2617
     96  O        -30.7760   16.2850  -11.5320 O.2    50  ILE50      -0.2715
     97  CB       -33.1220   18.1540  -11.4820 C.3    50  ILE50       0.0290
     98  CG1      -34.2020   19.0710  -10.9120 C.3    50  ILE50       0.0022
     99  CG2      -33.5430   17.5930  -12.8400 C.3    50  ILE50       0.0023
    100  CD1      -35.5570   18.4110  -10.7490 C.3    50  ILE50       0.0001
    101  N        -32.4110   14.7650  -11.3030 N.am   51  GLY51      -0.1940
    102  CA       -31.6300   13.6710  -11.8320 C.3    51  GLY51       0.2014
    103  C        -31.0950   12.7240  -10.7800 C.2    51  GLY51       0.2638
    104  O        -30.5640   11.6650  -11.1370 O.2    51  GLY51      -0.2714
    105  N        -31.2110   13.0790   -9.5030 N.am   52  TYR52      -0.1973
    106  CA       -30.7930   12.2390   -8.3870 C.3    52  TYR52       0.1639
    107  C        -32.0620   11.7680   -7.6890 C.2    52  TYR52       0.2290
    108  O        -32.8030   12.5820   -7.1290 O.2    52  TYR52      -0.2864
    109  CB       -29.8840   13.0210   -7.4410 C.3    52  TYR52       0.0560
    110  CG       -29.1330   12.1750   -6.4440 C.ar   52  TYR52      -0.0198
    111  CD1      -27.8980   11.6400   -6.7560 C.ar   52  TYR52      -0.0009
    112  CD2      -29.6560   11.9200   -5.1880 C.ar   52  TYR52      -0.0009
    113  CE1      -27.2040   10.8710   -5.8500 C.ar   52  TYR52       0.0417
    114  CE2      -28.9700   11.1520   -4.2750 C.ar   52  TYR52       0.0417
    115  CZ       -27.7460   10.6310   -4.6110 C.ar   52  TYR52       0.1957
    116  OH       -27.0570    9.8620   -3.7060 O.3    52  TYR52      -0.2866
    117  N        -31.1530   12.8230    0.6390 N.3    56  TRP56      -0.1241
    118  CA       -30.3040   13.0190    1.8040 C.3    56  TRP56       0.1605
    119  C        -30.9600   13.9000    2.8540 C.2    56  TRP56       0.2264
    120  O        -30.3510   14.1610    3.8950 O.2    56  TRP56      -0.2867
    121  CB       -28.9660   13.6320    1.3860 C.3    56  TRP56       0.0550
    122  CG       -28.1250   12.7100    0.5770 C.ar   56  TRP56       0.0003
    123  CD1      -28.1340   12.5720   -0.7760 C.ar   56  TRP56       0.0946
    124  CD2      -27.1480   11.7880    1.0680 C.ar   56  TRP56       0.0152
    125  NE1      -27.2230   11.6200   -1.1610 N.ar   56  TRP56      -0.2442
    126  CE2      -26.6030   11.1260   -0.0440 C.ar   56  TRP56       0.0810
    127  CE3      -26.6800   11.4620    2.3420 C.ar   56  TRP56       0.0012
    128  CZ2      -25.6140   10.1570    0.0770 C.ar   56  TRP56       0.0191
    129  CZ3      -25.7010   10.4990    2.4610 C.ar   56  TRP56       0.0001
    130  CH2      -25.1770    9.8590    1.3360 C.ar   56  TRP56       0.0015
    131  N        -28.8470   12.6530    6.1350 N.3    68  GLY68      -0.1225
    132  CA       -27.6620   11.8120    6.0550 C.3    68  GLY68       0.1811
    133  C        -26.3940   12.6200    5.9010 C.2    68  GLY68       0.2280
    134  O        -26.3650   13.6230    5.1910 O.2    68  GLY68      -0.2866
    135  N        -21.9770   12.1410    5.3870 N.3    70  GLU70      -0.1245
    136  CA       -21.0070   11.2030    4.8430 C.3    70  GLU70       0.1567
    137  C        -20.1100   10.6490    5.9410 C.2    70  GLU70       0.2260
    138  O        -19.6950   11.3700    6.8490 O.2    70  GLU70      -0.2867
    139  CB       -20.1640   11.8900    3.7690 C.3    70  GLU70       0.0388
    140  CG       -19.0880   11.0110    3.1530 C.3    70  GLU70       0.1160
    141  CD       -18.5450   11.5780    1.8600 C.2    70  GLU70       0.3649
    142  OE1      -18.8250   12.7570    1.5600 O.co2  70  GLU70      -0.2457
    143  OE2      -17.8400   10.8430    1.1400 O.co2  70  GLU70      -0.2457
@<TRIPOS>BOND
     1    65    63    1
     2    63    62    1
     3    99    97    1
     4    81    79    1
     5    64    62    1
     6   102   101    1
     7   102   103    1
     8    80    79    1
     9    62    59    1
    10    96    95    2
    11    79    78    1
    12    97    98    1
    13    97    94    1
    14   101    95   am
    15    95    94    1
    16   104   103    2
    17    98   100    1
    18    59    58    1
    19    59    60    1
    20   103   105   am
    21    61    60    2
    22    94    93    1
    23    78    75    1
    24    60    66   am
    25    75    74    1
    26    75    76    1
    27   105   106    1
    28    54    52   ar
    29    54    56   ar
    30    52    51   ar
    31    93    84   am
    32    66    67    1
    33    57    56    1
    34    56    55   ar
    35    51    50    1
    36    51    53   ar
    37    77    76    2
    38    85    84    2
    39    73    71    1
    40   106   107    1
    41   106   109    1
    42    50    47    1
    43    84    83    1
    44    67    68    1
    45    67    70    1
    46    55    53   ar
    47    49    48    2
    48    47    48    1
    49    47    46    1
    50   107   108    2
    51    71    70    1
    52    71    72    1
    53    68    69    2
    54   109   110    1
    55    86    83    1
    56    86    87    1
    57    83    82    1
    58   111   110   ar
    59   111   113   ar
    60   110   112   ar
    61    87    88   ar
    62    87    89   ar
    63   113   115   ar
    64    88    90   ar
    65    89    91   ar
    66   112   114   ar
    67   115   114   ar
    68   115   116    1
    69    90    92   ar
    70    43    41   ar
    71    43    44   ar
    72    91    92   ar
    73    45    44    1
    74    41    39   ar
    75    44    42   ar
    76    37    36    2
    77    39    38    1
    78    39    40   ar
    79    36    35    1
    80    42    40   ar
    81    38    35    1
    82    35    34    1
    83   125   123   ar
    84   125   126   ar
    85   123   122   ar
    86    34    28   am
    87    25    23    1
    88   126   128   ar
    89   126   124   ar
    90   128   130   ar
    91   122   124   ar
    92   122   121    1
    93    24    23    1
    94   117   118    1
    95    28    29    2
    96    28    27    1
    97    23    22    1
    98   124   127   ar
    99    21    20    2
   100   143   141   ar
   101   130   129   ar
   102   121   118    1
   103   142   141   ar
   104    22    19    1
   105   118   119    1
   106    27    26    1
   107    27    30    1
   108   141   140    1
   109    20    26   am
   110    20    19    1
   111   127   129   ar
   112    19    18    1
   113   119   120    2
   114    30    31    1
   115   140   139    1
   116   139   136    1
   117    32    31   ar
   118    31    33   ar
   119     6     5    1
   120    17    15    1
   121    14    15    2
   122    14    13    1
   123   136   135    1
   124   136   137    1
   125    15    16    1
   126    13    12    1
   127   134   133    2
   128   133   132    1
   129   137   138    2
   130     5     2    1
   131     1     2    1
   132   132   131    1
   133     2     3    1
   134    12    11    1
   135    10     9    2
   136     9     8    1
   137    11     8    1
   138     3     4    2
   139     8     7    1
