@<TRIPOS>MOLECULE
tmp/6dy2B02.pdb
 130 126 0 0 0
SMALL
GASTEIGER

@<TRIPOS>ATOM
      1  N        116.6830   71.2620  104.9150 N.3     1  CYS1       -0.1235
      2  CA       116.0010   72.5160  105.2050 C.3     1  CYS1        0.1677
      3  C        114.5290   72.4070  104.8830 C.2     1  CYS1        0.2270
      4  O        114.1220   71.6060  104.0480 O.2     1  CYS1       -0.2867
      5  CB       116.6190   73.6670  104.4190 C.3     1  CYS1        0.0956
      6  SG       118.2070   74.1760  105.0510 S.3     1  CYS1       -0.0801
      7  N        116.6740   75.7340  109.3390 N.3    19  LEU19      -0.1231
      8  CA       118.0230   75.6100  108.8010 C.3    19  LEU19       0.1693
      9  C        118.6650   74.3820  109.4310 C.2    19  LEU19       0.2592
     10  O        118.9870   74.3880  110.6220 O.2    19  LEU19      -0.2718
     11  CB       118.8370   76.8710  109.0880 C.3    19  LEU19       0.0284
     12  CG       120.1100   77.1490  108.2770 C.3    19  LEU19       0.0019
     13  CD1      121.2020   76.1260  108.5530 C.3    19  LEU19       0.0001
     14  CD2      119.8080   77.2190  106.7900 C.3    19  LEU19       0.0001
     15  N        118.8380   73.3280  108.6390 N.am   20  ASP20      -0.1960
     16  CA       119.5340   72.1260  109.0760 C.3    20  ASP20       0.1840
     17  C        120.9040   72.0960  108.4160 C.2    20  ASP20       0.2622
     18  O        121.0140   72.2520  107.1970 O.2    20  ASP20      -0.2715
     19  CB       118.7490   70.8600  108.7180 C.3    20  ASP20       0.1450
     20  CG       117.3050   70.9200  109.1640 C.2    20  ASP20       0.3671
     21  OD1      116.9750   71.7860  109.9940 O.co2  20  ASP20      -0.2456
     22  OD2      116.4980   70.1010  108.6790 O.co2  20  ASP20      -0.2456
     23  N        121.9500   71.9060  109.2190 N.am   21  TYR21      -0.1960
     24  CA       123.2830   71.8350  108.6450 C.3    21  TYR21       0.1756
     25  C        124.1910   71.0750  109.5930 C.2    21  TYR21       0.2461
     26  O        124.1170   71.3060  110.8070 O.2    21  TYR21      -0.2730
     27  CB       123.8530   73.2310  108.3730 C.3    21  TYR21       0.0574
     28  CG       124.9430   73.2330  107.3260 C.ar   21  TYR21      -0.0198
     29  CD1      124.6410   73.0290  105.9860 C.ar   21  TYR21      -0.0009
     30  CD2      126.2700   73.4380  107.6740 C.ar   21  TYR21      -0.0009
     31  CE1      125.6290   73.0270  105.0220 C.ar   21  TYR21       0.0417
     32  CE2      127.2670   73.4380  106.7160 C.ar   21  TYR21       0.0417
     33  CZ       126.9400   73.2320  105.3920 C.ar   21  TYR21       0.1957
     34  OH       127.9270   73.2320  104.4340 O.3    21  TYR21      -0.2866
     35  N        125.0440   70.1720  109.0990 N.am   22  PRO22      -0.2727
     36  CA       126.0020   69.5170  109.9990 C.3    22  PRO22       0.1402
     37  C        126.9740   70.5240  110.5900 C.2    22  PRO22       0.2269
     38  O        126.9430   71.7040  110.2290 O.2    22  PRO22      -0.2865
     39  CB       126.7030   68.5000  109.0910 C.3    22  PRO22       0.0296
     40  CG       126.5420   69.0470  107.7190 C.3    22  PRO22       0.0237
     41  CD       125.2060   69.7210  107.7070 C.3    22  PRO22       0.0939
     42  N        127.6880   75.9390  114.9410 N.3    27  LEU27      -0.1245
     43  CA       126.9050   77.0030  114.3210 C.3    27  LEU27       0.1561
     44  C        125.8730   77.5740  115.2860 C.2    27  LEU27       0.2260
     45  O        125.6510   78.7900  115.3150 O.2    27  LEU27      -0.2867
     46  CB       126.2220   76.4770  113.0610 C.3    27  LEU27       0.0270
     47  CG       127.1310   76.1140  111.8840 C.3    27  LEU27       0.0019
     48  CD1      126.3030   75.5780  110.7290 C.3    27  LEU27       0.0001
     49  CD2      127.9610   77.3060  111.4340 C.3    27  LEU27       0.0001
     50  N        125.4560   83.5150  110.4850 N.3    49  PHE49      -0.1241
     51  CA       126.4730   83.0310  111.4020 C.3    49  PHE49       0.1605
     52  C        127.6530   83.9930  111.3930 C.2    49  PHE49       0.2264
     53  O        127.9230   84.6600  110.3910 O.2    49  PHE49      -0.2867
     54  CB       126.9400   81.6270  111.0190 C.3    49  PHE49       0.0534
     55  CG       125.8190   80.6650  110.7670 C.ar   49  PHE49      -0.0203
     56  CD1      125.0340   80.2090  111.8060 C.ar   49  PHE49      -0.0042
     57  CD2      125.5510   80.2160  109.4900 C.ar   49  PHE49      -0.0042
     58  CE1      124.0030   79.3200  111.5750 C.ar   49  PHE49      -0.0003
     59  CE2      124.5210   79.3290  109.2570 C.ar   49  PHE49      -0.0003
     60  CZ       123.7480   78.8810  110.2990 C.ar   49  PHE49      -0.0000
     61  N        130.0340   84.8820  108.3190 N.3    52  TYR52      -0.1241
     62  CA       129.3480   84.6090  107.0630 C.3    52  TYR52       0.1605
     63  C        128.6230   85.8790  106.6370 C.2    52  TYR52       0.2264
     64  O        127.8200   86.4230  107.4030 O.2    52  TYR52      -0.2867
     65  CB       128.3680   83.4490  107.2290 C.3    52  TYR52       0.0534
     66  CG       127.9380   82.8080  105.9350 C.ar   52  TYR52      -0.0201
     67  CD1      128.7890   81.9590  105.2490 C.ar   52  TYR52      -0.0009
     68  CD2      126.6820   83.0480  105.4010 C.ar   52  TYR52      -0.0009
     69  CE1      128.4030   81.3680  104.0660 C.ar   52  TYR52       0.0417
     70  CE2      126.2870   82.4620  104.2210 C.ar   52  TYR52       0.0417
     71  CZ       127.1520   81.6230  103.5570 C.ar   52  TYR52       0.1957
     72  OH       126.7660   81.0340  102.3780 O.3    52  TYR52      -0.2866
     73  N        120.8120   83.4380  104.3940 N.3    56  TRP56      -0.1241
     74  CA       119.8900   82.3940  103.9830 C.3    56  TRP56       0.1605
     75  C        118.4830   82.6450  104.4940 C.2    56  TRP56       0.2264
     76  O        117.5610   81.9200  104.1110 O.2    56  TRP56      -0.2867
     77  CB       120.3790   81.0290  104.4760 C.3    56  TRP56       0.0550
     78  CG       121.5860   80.5540  103.7480 C.ar   56  TRP56       0.0003
     79  CD1      122.8840   80.8230  104.0550 C.ar   56  TRP56       0.0946
     80  CD2      121.6100   79.7410  102.5700 C.ar   56  TRP56       0.0152
     81  NE1      123.7180   80.2220  103.1460 N.ar   56  TRP56      -0.2442
     82  CE2      122.9590   79.5520  102.2230 C.ar   56  TRP56       0.0810
     83  CE3      120.6210   79.1540  101.7760 C.ar   56  TRP56       0.0012
     84  CZ2      123.3460   78.7990  101.1200 C.ar   56  TRP56       0.0191
     85  CZ3      121.0070   78.4070  100.6830 C.ar   56  TRP56       0.0001
     86  CH2      122.3570   78.2340  100.3670 C.ar   56  TRP56       0.0015
     87  N        116.7400   77.3460  100.3870 N.3    69  ASP69      -0.1225
     88  CA       116.9910   75.9370  100.6520 C.3    69  ASP69       0.1805
     89  C        117.9820   75.3930   99.6300 C.2    69  ASP69       0.2597
     90  O        118.1630   75.9570   98.5490 O.2    69  ASP69      -0.2718
     91  CB       115.6960   75.1180  100.6030 C.3    69  ASP69       0.1424
     92  CG       114.7770   75.4040  101.7660 C.2    69  ASP69       0.3668
     93  OD1      114.9490   76.4450  102.4280 O.co2  69  ASP69      -0.2456
     94  OD2      113.8720   74.5850  102.0140 O.co2  69  ASP69      -0.2456
     95  N        118.6070   74.2690   99.9720 N.am   70  GLU70      -0.1979
     96  CA       119.6400   73.6870   99.1260 C.3    70  GLU70       0.1602
     97  C        119.0140   72.8170   98.0520 C.2    70  GLU70       0.2287
     98  O        118.0250   72.1190   98.2910 O.2    70  GLU70      -0.2864
     99  CB       120.6200   72.8570   99.9560 C.3    70  GLU70       0.0415
    100  CG       121.7130   72.1360   99.1770 C.3    70  GLU70       0.1163
    101  CD       121.4950   70.6370   99.0500 C.2    70  GLU70       0.3649
    102  OE1      120.5530   70.1020   99.6710 O.co2  70  GLU70      -0.2457
    103  OE2      122.2910   69.9870   98.3380 O.co2  70  GLU70      -0.2457
    104  N        114.2760   70.0190  100.1420 N.3   163  ASN163     -0.1240
    105  CA       115.4780   70.1160   99.3230 C.3   163  ASN163      0.1653
    106  C        115.3190   69.3570   98.0100 C.2   163  ASN163      0.2266
    107  O        116.3200   69.0850   97.3360 O.2   163  ASN163     -0.2867
    108  CB       116.6910   69.5850  100.0830 C.3   163  ASN163      0.1155
    109  CG       116.8670   70.2520  101.4270 C.2   163  ASN163      0.2627
    110  OD1      116.4930   69.7010  102.4590 O.2   163  ASN163     -0.2716
    111  ND2      117.4260   71.4520  101.4210 N.am  163  ASN163     -0.0877
    112  N        110.7850   64.7810  104.8420 N.3   176  ARG176     -0.1245
    113  CA       110.3320   65.8090  105.7670 C.3   176  ARG176      0.1563
    114  C        109.2470   66.6890  105.1670 C.2   176  ARG176      0.2260
    115  O        108.8200   67.6510  105.8120 O.2   176  ARG176     -0.2867
    116  CB       111.5170   66.6660  106.2130 C.3   176  ARG176      0.0307
    117  CG       112.5490   65.8850  107.0080 C.3   176  ARG176      0.0489
    118  CD       113.8290   66.6660  107.1930 C.3   176  ARG176      0.2205
    119  NE       114.6010   66.7190  105.9540 N.pl3 176  ARG176     -0.0865
    120  CZ       114.8400   67.8170  105.2410 C.cat 176  ARG176      0.5346
    121  NH1      114.3810   68.9990  105.6290 N.pl3 176  ARG176      0.1354
    122  NH2      115.5560   67.7290  104.1310 N.pl3 176  ARG176      0.1354
    123  N        120.0120   67.7210  113.2810 N.3   210  ILE210     -0.1245
    124  CA       120.9030   68.6710  112.6220 C.3   210  ILE210      0.1561
    125  C        120.2830   70.0520  112.4450 C.2   210  ILE210      0.2260
    126  O        120.9410   70.9440  111.8910 O.2   210  ILE210     -0.2867
    127  CB       121.3760   68.1340  111.2550 C.3   210  ILE210      0.0252
    128  CG1      120.1900   67.7460  110.3730 C.3   210  ILE210      0.0019
    129  CG2      122.2770   66.9330  111.4560 C.3   210  ILE210      0.0019
    130  CD1      120.5570   67.5420  108.9160 C.3   210  ILE210      0.0001
@<TRIPOS>BOND
     1   107   106    2
     2   106   105    1
     3    97    98    2
     4    97    96    1
     5   103   101   ar
     6    90    89    2
     7   101   100    1
     8   101   102   ar
     9    96    99    1
    10    96    95    1
    11   100    99    1
    12   105   108    1
    13   105   104    1
    14    89    95   am
    15    89    88    1
    16   108   109    1
    17    86    85   ar
    18    86    84   ar
    19    87    88    1
    20    91    88    1
    21    91    92    1
    22    85    83   ar
    23    84    82   ar
    24   111   109   am
    25   109   110    2
    26    92    94   ar
    27    92    93   ar
    28    83    80   ar
    29    82    80   ar
    30    82    81   ar
    31    72    71    1
    32    80    78   ar
    33    81    79   ar
    34    71    69   ar
    35    71    70   ar
    36    78    79   ar
    37    78    77    1
    38    74    73    1
    39    74    77    1
    40    74    75    1
    41     4     3    2
    42    69    67   ar
    43    76    75    2
    44   122   120    1
    45    70    68   ar
    46     5     6    1
    47     5     2    1
    48    34    33    1
    49   112   113    1
    50     3     2    1
    51     1     2    1
    52    31    33   ar
    53    31    29   ar
    54   114   113    1
    55   114   115    2
    56   120   121    1
    57   120   119    2
    58    67    66   ar
    59    33    32   ar
    60    68    66   ar
    61   113   116    1
    62    66    65    1
    63   119   118    1
    64    29    28   ar
    65   116   117    1
    66    63    62    1
    67    63    64    2
    68    32    30   ar
    69    14    12    1
    70   117   118    1
    71    62    65    1
    72    62    61    1
    73    18    17    2
    74    28    30   ar
    75    28    27    1
    76    41    40    1
    77    41    35    1
    78    40    39    1
    79    12    13    1
    80    12    11    1
    81    27    24    1
    82    17    16    1
    83    17    23   am
    84    15    16    1
    85    15     9   am
    86    24    23    1
    87    24    25    1
    88    22    20   ar
    89    19    16    1
    90    19    20    1
    91     8    11    1
    92     8     7    1
    93     8     9    1
    94   130   128    1
    95    39    36    1
    96    35    25   am
    97    35    36    1
    98    20    21   ar
    99    59    57   ar
   100    59    60   ar
   101     9    10    2
   102    57    55   ar
   103    25    26    2
   104    36    37    1
   105    38    37    2
   106    60    58   ar
   107   128   127    1
   108    53    52    2
   109    50    51    1
   110    48    47    1
   111    55    54    1
   112    55    56   ar
   113    54    51    1
   114   127   129    1
   115   127   124    1
   116    52    51    1
   117    49    47    1
   118    58    56   ar
   119    47    46    1
   120   126   125    2
   121   125   124    1
   122   124   123    1
   123    46    43    1
   124    43    42    1
   125    43    44    1
   126    44    45    2
