@<TRIPOS>MOLECULE
tmp/6dy7A00.pdb
 153 147 0 0 0
SMALL
GASTEIGER

@<TRIPOS>ATOM
      1  N         -0.8740   27.9340    2.4260 N.3    17  ALA17      -0.1231
      2  CA        -1.6320   26.8770    1.7590 C.3    17  ALA17       0.1694
      3  C         -2.1590   27.2930    0.3870 C.2    17  ALA17       0.2592
      4  O         -2.6450   28.4090    0.2070 O.2    17  ALA17      -0.2718
      5  CB        -2.7950   26.4360    2.6400 C.3    17  ALA17       0.0304
      6  N         -2.0450   26.3960   -0.5830 N.am   18  VAL18      -0.1966
      7  CA        -2.6470   26.6230   -1.8820 C.3    18  VAL18       0.1727
      8  C         -4.0960   26.1350   -1.7910 C.2    18  VAL18       0.2616
      9  O         -4.3660   25.0870   -1.2110 O.2    18  VAL18      -0.2715
     10  CB        -1.8880   25.9040   -2.9990 C.3    18  VAL18       0.0290
     11  CG1       -2.4880   26.2540   -4.3550 C.3    18  VAL18       0.0023
     12  CG2       -0.3950   26.2770   -2.9540 C.3    18  VAL18       0.0023
     13  N         -5.0320   26.9070   -2.3250 N.am   19  SER19      -0.1950
     14  CA        -6.4430   26.5550   -2.1850 C.3    19  SER19       0.1924
     15  C         -7.0350   25.9350   -3.4440 C.2    19  SER19       0.2314
     16  O         -7.9340   25.0920   -3.3680 O.2    19  SER19      -0.2863
     17  CB        -7.2560   27.7890   -1.7920 C.3    19  SER19       0.2116
     18  OG        -7.0370   28.8450   -2.7060 O.3    19  SER19      -0.2180
     19  N         -3.9980   30.9450    0.4070 N.3    35  ALA35      -0.1245
     20  CA        -4.2600   31.6730    1.6370 C.3    35  ALA35       0.1562
     21  C         -3.3080   32.8550    1.8000 C.2    35  ALA35       0.2260
     22  O         -3.5320   33.7080    2.6600 O.2    35  ALA35      -0.2867
     23  CB        -4.1510   30.7370    2.8350 C.3    35  ALA35       0.0290
     24  N         -7.4780   33.6040   -0.4180 N.3    60  ILE60      -0.1231
     25  CA        -8.3110   33.2580   -1.5660 C.3    60  ILE60       0.1692
     26  C         -8.6300   31.7630   -1.5710 C.2    60  ILE60       0.2593
     27  O         -7.7290   30.9440   -1.4490 O.2    60  ILE60      -0.2718
     28  CB        -7.6100   33.6290   -2.8880 C.3    60  ILE60       0.0266
     29  CG1       -7.1610   35.0970   -2.8720 C.3    60  ILE60       0.0019
     30  CG2       -8.5050   33.3200   -4.0790 C.3    60  ILE60       0.0020
     31  CD1       -6.4000   35.5220   -4.1220 C.3    60  ILE60       0.0001
     32  N         -9.9060   31.4110   -1.7220 N.am   61  SER61      -0.1938
     33  CA       -10.3480   30.0140   -1.6900 C.3    61  SER61       0.2055
     34  C        -10.4790   29.3730   -3.0660 C.2    61  SER61       0.2643
     35  O        -10.5070   28.1470   -3.1850 O.2    61  SER61      -0.2714
     36  CB       -11.7040   29.9000   -0.9820 C.3    61  SER61       0.2130
     37  OG       -11.5810   30.2190    0.3880 O.3    61  SER61      -0.2179
     38  N        -10.5900   30.1920   -4.1040 N.am   62  ASP62      -0.1971
     39  CA       -10.9120   29.6540   -5.4150 C.3    62  ASP62       0.1709
     40  C        -10.5540   30.6470   -6.4980 C.2    62  ASP62       0.2293
     41  O        -10.5690   31.8550   -6.2720 O.2    62  ASP62      -0.2864
     42  CB       -12.4090   29.2990   -5.4900 C.3    62  ASP62       0.1436
     43  CG       -12.7190   28.2710   -6.5600 C.2    62  ASP62       0.3671
     44  OD1      -11.7690   27.7950   -7.2220 O.co2  62  ASP62      -0.2456
     45  OD2      -13.9170   27.9260   -6.7320 O.co2  62  ASP62      -0.2456
     46  N        -16.3980   31.3600   -1.0750 N.3   103  PHE103     -0.1227
     47  CA       -15.6980   30.0790   -1.0650 C.3   103  PHE103      0.1736
     48  C        -15.4430   29.4730   -2.4470 C.2   103  PHE103      0.2595
     49  O        -14.4780   28.7270   -2.6370 O.2   103  PHE103     -0.2718
     50  CB       -16.4880   29.0820   -0.2130 C.3   103  PHE103      0.0547
     51  CG       -15.7140   27.8590    0.1440 C.ar  103  PHE103     -0.0202
     52  CD1      -14.6630   27.9310    1.0440 C.ar  103  PHE103     -0.0042
     53  CD2      -16.0300   26.6350   -0.4200 C.ar  103  PHE103     -0.0042
     54  CE1      -13.9400   26.8080    1.3780 C.ar  103  PHE103     -0.0003
     55  CE2      -15.3140   25.5070   -0.0910 C.ar  103  PHE103     -0.0003
     56  CZ       -14.2650   25.5950    0.8130 C.ar  103  PHE103     -0.0000
     57  N        -16.3050   29.7810   -3.4100 N.am  104  CYS104     -0.1970
     58  CA       -16.2410   29.1260   -4.7140 C.3   104  CYS104      0.1712
     59  C        -16.7310   30.0390   -5.8320 C.2   104  CYS104      0.2296
     60  O        -17.5710   30.9130   -5.5970 O.2   104  CYS104     -0.2864
     61  CB       -17.0650   27.8360   -4.6900 C.3   104  CYS104      0.0983
     62  SG       -18.7300   28.0470   -3.9430 S.3   104  CYS104     -0.0798
     63  N        -20.2700   25.1130   -0.5880 N.3   145  SER145     -0.1202
     64  CA       -18.9280   24.5720   -0.8110 C.3   145  SER145      0.2020
     65  C        -18.4930   24.6170   -2.2740 C.2   145  SER145      0.2618
     66  O        -17.2960   24.6410   -2.5600 O.2   145  SER145     -0.2717
     67  CB       -18.8430   23.1320   -0.2920 C.3   145  SER145      0.2103
     68  OG       -19.9300   22.3480   -0.7650 O.3   145  SER145     -0.2182
     69  N        -19.4510   24.6210   -3.2000 N.am  146  ALA146     -0.1979
     70  CA       -19.1130   24.6260   -4.6260 C.3   146  ALA146      0.1597
     71  C        -20.2610   25.1240   -5.4890 C.2   146  ALA146      0.2287
     72  O        -21.4380   24.9420   -5.1470 O.2   146  ALA146     -0.2864
     73  CB       -18.6950   23.2300   -5.0830 C.3   146  ALA146      0.0319
     74  N        -19.0470   18.5680    0.1920 N.3   188  SER188     -0.1202
     75  CA       -17.8600   19.4120    0.2020 C.3   188  SER188      0.2020
     76  C        -17.4410   19.8780   -1.1910 C.2   188  SER188      0.2618
     77  O        -16.6300   20.7940   -1.3200 O.2   188  SER188     -0.2717
     78  CB       -16.7040   18.6700    0.8750 C.3   188  SER188      0.2103
     79  OG       -16.5670   17.3590    0.3560 O.3   188  SER188     -0.2182
     80  N        -17.9990   19.2550   -2.2270 N.am  189  PHE189     -0.1975
     81  CA       -17.7190   19.6660   -3.6010 C.3   189  PHE189      0.1639
     82  C        -18.7320   19.0760   -4.5720 C.2   189  PHE189      0.2290
     83  O        -19.2660   17.9940   -4.3300 O.2   189  PHE189     -0.2864
     84  CB       -16.3020   19.2520   -4.0250 C.3   189  PHE189      0.0560
     85  CG       -15.9360   19.7100   -5.4080 C.ar  189  PHE189     -0.0200
     86  CD1      -15.6170   21.0350   -5.6470 C.ar  189  PHE189     -0.0042
     87  CD2      -15.9440   18.8250   -6.4760 C.ar  189  PHE189     -0.0042
     88  CE1      -15.2980   21.4700   -6.9260 C.ar  189  PHE189     -0.0003
     89  CE2      -15.6220   19.2520   -7.7540 C.ar  189  PHE189     -0.0003
     90  CZ       -15.2970   20.5730   -7.9780 C.ar  189  PHE189     -0.0000
     91  N        -12.8040   16.5090    6.2910 N.3   229  LYS229     -0.1231
     92  CA       -12.6840   17.8650    6.8160 C.3   229  LYS229      0.1693
     93  C        -12.6520   18.9480    5.7470 C.2   229  LYS229      0.2592
     94  O        -13.1940   20.0360    5.9450 O.2   229  LYS229     -0.2718
     95  CB       -11.4240   17.9940    7.6810 C.3   229  LYS229      0.0285
     96  CG       -11.3370   19.3350    8.3950 C.3   229  LYS229      0.0035
     97  CD        -9.9640   19.6080    8.9820 C.3   229  LYS229      0.0206
     98  CE        -9.9440   20.9740    9.6610 C.3   229  LYS229      0.1093
     99  NZ        -8.5640   21.4370    9.9750 N.3   229  LYS229     -0.1314
    100  N        -12.0150   18.6610    4.6170 N.am  230  TYR230     -0.1962
    101  CA       -11.7470   19.7060    3.6320 C.3   230  TYR230      0.1771
    102  C        -12.6060   19.6290    2.3760 C.2   230  TYR230      0.2619
    103  O        -13.0270   18.5520    1.9570 O.2   230  TYR230     -0.2715
    104  CB       -10.2690   19.6640    3.2390 C.3   230  TYR230      0.0574
    105  CG        -9.3540   20.0400    4.3760 C.ar  230  TYR230     -0.0198
    106  CD1       -9.2080   21.3660    4.7580 C.ar  230  TYR230     -0.0009
    107  CD2       -8.6500   19.0700    5.0800 C.ar  230  TYR230     -0.0009
    108  CE1       -8.3790   21.7190    5.8040 C.ar  230  TYR230      0.0417
    109  CE2       -7.8260   19.4130    6.1290 C.ar  230  TYR230      0.0417
    110  CZ        -7.6910   20.7380    6.4850 C.ar  230  TYR230      0.1957
    111  OH        -6.8610   21.0840    7.5270 O.3   230  TYR230     -0.2866
    112  N        -12.8510   20.7910    1.7770 N.am  231  CYS231     -0.1968
    113  CA       -13.5440   20.8690    0.5020 C.3   231  CYS231      0.1712
    114  C        -12.5580   20.6170   -0.6320 C.2   231  CYS231      0.2296
    115  O        -12.0030   21.5430   -1.2200 O.2   231  CYS231     -0.2864
    116  CB       -14.2290   22.2250    0.3390 C.3   231  CYS231      0.0983
    117  SG       -15.6050   22.4840    1.5000 S.3   231  CYS231     -0.0798
    118  N        -11.4270   19.4330   -4.2980 N.3   233  PHE233     -0.1241
    119  CA       -11.8910   19.3670   -5.6850 C.3   233  PHE233      0.1605
    120  C        -11.8720   17.9340   -6.2160 C.2   233  PHE233      0.2264
    121  O        -11.1020   17.0950   -5.7460 O.2   233  PHE233     -0.2867
    122  CB       -11.0170   20.2490   -6.5970 C.3   233  PHE233      0.0534
    123  CG       -11.2210   21.7320   -6.4110 C.ar  233  PHE233     -0.0203
    124  CD1      -10.6090   22.4090   -5.3690 C.ar  233  PHE233     -0.0042
    125  CD2      -12.0140   22.4500   -7.2930 C.ar  233  PHE233     -0.0042
    126  CE1      -10.7930   23.7830   -5.2000 C.ar  233  PHE233     -0.0003
    127  CE2      -12.2030   23.8150   -7.1340 C.ar  233  PHE233     -0.0003
    128  CZ       -11.5910   24.4830   -6.0880 C.ar  233  PHE233     -0.0000
    129  N         -5.5450   19.4130   -1.5560 N.3   275  ILE275     -0.1245
    130  CA        -6.8440   20.0790   -1.5140 C.3   275  ILE275      0.1561
    131  C         -7.4550   20.2370   -2.9050 C.2   275  ILE275      0.2260
    132  O         -8.6760   20.3210   -3.0580 O.2   275  ILE275     -0.2867
    133  CB        -6.7150   21.4690   -0.8490 C.3   275  ILE275      0.0252
    134  CG1       -8.0890   22.0970   -0.5950 C.3   275  ILE275      0.0019
    135  CG2       -5.8820   22.3890   -1.7060 C.3   275  ILE275      0.0019
    136  CD1       -8.9350   21.3400    0.3980 C.3   275  ILE275      0.0001
    137  N         -1.8800   21.7500    1.1580 N.3   291  LEU291     -0.1231
    138  CA        -2.1430   22.7100    2.2180 C.3   291  LEU291      0.1693
    139  C         -0.8670   23.2090    2.9090 C.2   291  LEU291      0.2591
    140  O          0.2400   23.0290    2.4000 O.2   291  LEU291     -0.2718
    141  CB        -3.1120   22.1000    3.2380 C.3   291  LEU291      0.0284
    142  CG        -4.5380   21.9180    2.6920 C.3   291  LEU291      0.0019
    143  CD1       -5.5320   21.5480    3.7890 C.3   291  LEU291      0.0001
    144  CD2       -5.0000   23.1770    1.9700 C.3   291  LEU291      0.0001
    145  N         -1.0460   23.8170    4.0780 N.am  292  GLU292     -0.1979
    146  CA        -0.0570   24.6900    4.7000 C.3   292  GLU292      0.1602
    147  C          1.3280   24.0770    4.9660 C.2   292  GLU292      0.2287
    148  O          2.3330   24.7800    4.9080 O.2   292  GLU292     -0.2864
    149  CB        -0.6250   25.2220    6.0190 C.3   292  GLU292      0.0415
    150  CG         0.1530   26.3770    6.6200 C.3   292  GLU292      0.1163
    151  CD        -0.0600   27.6880    5.8720 C.2   292  GLU292      0.3649
    152  OE1        0.8090   28.5770    5.9860 O.co2 292  GLU292     -0.2457
    153  OE2       -1.0950   27.8360    5.1790 O.co2 292  GLU292     -0.2457
@<TRIPOS>BOND
     1    90    89   ar
     2    90    88   ar
     3    89    87   ar
     4   125   127   ar
     5   125   123   ar
     6    44    43   ar
     7   127   128   ar
     8    88    86   ar
     9    45    43   ar
    10   122   123    1
    11   122   119    1
    12    43    42    1
    13    40    41    2
    14    40    39    1
    15    87    85   ar
    16   123   124   ar
    17   120   121    2
    18   120   119    1
    19   128   126   ar
    20    59    60    2
    21    59    58    1
    22   119   118    1
    23    86    85   ar
    24    42    39    1
    25    71    72    2
    26    71    70    1
    27    39    38    1
    28    85    84    1
    29   124   126   ar
    30    73    70    1
    31    58    61    1
    32    58    57    1
    33    61    62    1
    34    70    69    1
    35    82    83    2
    36    82    81    1
    37    11    10    1
    38    31    29    1
    39    38    34   am
    40    30    28    1
    41    84    81    1
    42    81    80    1
    43    15    16    2
    44    15    14    1
    45    57    48   am
    46    69    65   am
    47    35    34    2
    48    34    33    1
    49   132   131    2
    50    10    12    1
    51    10     7    1
    52   131   130    1
    53    28    29    1
    54    28    25    1
    55    18    17    1
    56    49    48    2
    57    66    65    2
    58    48    47    1
    59    13    14    1
    60    13     8   am
    61    65    64    1
    62    80    76   am
    63    14    17    1
    64     7     8    1
    65     7     6    1
    66     8     9    2
    67    32    33    1
    68    32    26   am
    69   135   133    1
    70    33    36    1
    71    26    25    1
    72    26    27    2
    73    25    24    1
    74   129   130    1
    75   130   133    1
    76    77    76    2
    77   115   114    2
    78    76    75    1
    79    46    47    1
    80    47    50    1
    81    36    37    1
    82   133   134    1
    83    64    63    1
    84    64    67    1
    85    68    67    1
    86   114   113    1
    87   134   136    1
    88     6     3   am
    89    53    55   ar
    90    53    51   ar
    91    50    51    1
    92    55    56   ar
    93    51    52   ar
    94    74    75    1
    95    75    78    1
    96     4     3    2
    97   116   113    1
    98   116   117    1
    99    79    78    1
   100     3     2    1
   101    19    20    1
   102   113   112    1
   103    56    54   ar
   104    52    54   ar
   105   137   138    1
   106    20    21    1
   107    20    23    1
   108     2     1    1
   109     2     5    1
   110   112   102   am
   111    21    22    2
   112   103   102    2
   113   144   142    1
   114   138   139    1
   115   138   141    1
   116   102   101    1
   117   140   139    2
   118   142   141    1
   119   142   143    1
   120   139   145   am
   121   104   101    1
   122   104   105    1
   123   101   100    1
   124   145   146    1
   125   105   106   ar
   126   105   107   ar
   127   100    93   am
   128   146   147    1
   129   146   149    1
   130   106   108   ar
   131   148   147    2
   132   107   109   ar
   133   153   151   ar
   134    93    94    2
   135    93    92    1
   136   108   110   ar
   137   151   152   ar
   138   151   150    1
   139   149   150    1
   140   109   110   ar
   141    91    92    1
   142   110   111    1
   143    92    95    1
   144    95    96    1
   145    96    97    1
   146    97    98    1
   147    98    99    1
