@<TRIPOS>MOLECULE
tmp/6dyaA00.pdb
 165 161 0 0 0
SMALL
GASTEIGER

@<TRIPOS>ATOM
      1  N          2.0930   16.6870   20.4440 N.3    19  VAL19      -0.1231
      2  CA         2.7200   16.5170   19.1390 C.3    19  VAL19       0.1692
      3  C          4.1840   16.9400   19.2460 C.2    19  VAL19       0.2592
      4  O          4.5150   17.8320   20.0270 O.2    19  VAL19      -0.2718
      5  CB         2.0040   17.3380   18.0470 C.3    19  VAL19       0.0266
      6  CG1        2.5280   16.9690   16.6640 C.3    19  VAL19       0.0020
      7  CG2        0.4940   17.1190   18.1240 C.3    19  VAL19       0.0020
      8  N          5.0590   16.3010   18.4740 N.am   20  SER20      -0.1952
      9  CA         6.4870   16.5580   18.5960 C.3    20  SER20       0.1924
     10  C          7.0870   17.2120   17.3550 C.2    20  SER20       0.2314
     11  O          7.9750   18.0540   17.4760 O.2    20  SER20      -0.2863
     12  CB         7.2350   15.2580   18.9120 C.3    20  SER20       0.2116
     13  OG         6.9680   14.2600   17.9420 O.3    20  SER20      -0.2180
     14  N          7.6070    9.3420   20.3550 N.3    61  ILE61      -0.1231
     15  CA         8.4300    9.7620   19.2240 C.3    61  ILE61       0.1692
     16  C          8.6710   11.2660   19.2940 C.2    61  ILE61       0.2593
     17  O          7.7670   12.0270   19.6310 O.2    61  ILE61      -0.2718
     18  CB         7.7650    9.4100   17.8790 C.3    61  ILE61       0.0266
     19  CG1        7.2890    7.9530   17.8820 C.3    61  ILE61       0.0019
     20  CG2        8.7120    9.6790   16.7150 C.3    61  ILE61       0.0020
     21  CD1        6.4250    7.5970   16.6950 C.3    61  ILE61       0.0001
     22  N          9.8910   11.6920   18.9790 N.am   62  SER62      -0.1938
     23  CA        10.2460   13.1020   19.0690 C.3    62  SER62       0.2055
     24  C         10.3950   13.7560   17.6990 C.2    62  SER62       0.2643
     25  O         10.3120   14.9780   17.5860 O.2    62  SER62      -0.2714
     26  CB        11.5440   13.2760   19.8620 C.3    62  SER62       0.2130
     27  OG        11.4660   12.6480   21.1290 O.3    62  SER62      -0.2179
     28  N         10.6150   12.9550   16.6590 N.am   63  ASP63      -0.1971
     29  CA        10.9260   13.5180   15.3460 C.3    63  ASP63       0.1709
     30  C         10.6510   12.5500   14.1950 C.2    63  ASP63       0.2293
     31  O         10.6380   11.3320   14.3830 O.2    63  ASP63      -0.2864
     32  CB        12.3940   13.9630   15.3120 C.3    63  ASP63       0.1436
     33  CG        12.6770   14.9730   14.2110 C.2    63  ASP63       0.3671
     34  OD1       11.7130   15.4380   13.5640 O.co2  63  ASP63      -0.2456
     35  OD2       13.8630   15.3140   14.0040 O.co2  63  ASP63      -0.2456
     36  N         16.3850   11.6860   19.5650 N.3   104  PHE104     -0.1227
     37  CA        15.6200   12.9260   19.5980 C.3   104  PHE104      0.1736
     38  C         15.3740   13.5540   18.2210 C.2   104  PHE104      0.2595
     39  O         14.3150   14.1390   17.9890 O.2   104  PHE104     -0.2718
     40  CB        16.3340   13.9240   20.5150 C.3   104  PHE104      0.0547
     41  CG        15.5520   15.1760   20.7880 C.ar  104  PHE104     -0.0202
     42  CD1       14.3470   15.1240   21.4730 C.ar  104  PHE104     -0.0042
     43  CD2       16.0370   16.4100   20.3820 C.ar  104  PHE104     -0.0042
     44  CE1       13.6310   16.2780   21.7320 C.ar  104  PHE104     -0.0003
     45  CE2       15.3300   17.5670   20.6380 C.ar  104  PHE104     -0.0003
     46  CZ        14.1200   17.5000   21.3150 C.ar  104  PHE104     -0.0000
     47  N         16.3360   13.4280   17.3110 N.am  105  CYS105     -0.1970
     48  CA        16.2460   14.0920   16.0090 C.3   105  CYS105      0.1712
     49  C         16.8240   13.2530   14.8610 C.2   105  CYS105      0.2296
     50  O         17.7470   12.4620   15.0640 O.2   105  CYS105     -0.2864
     51  CB        16.9580   15.4470   16.0680 C.3   105  CYS105      0.0983
     52  SG        18.6520   15.3870   16.7270 S.3   105  CYS105     -0.0798
     53  N         20.2140   11.5930   23.3710 N.3   120  PHE120     -0.1241
     54  CA        20.5010   12.0170   24.7370 C.3   120  PHE120      0.1605
     55  C         21.8030   11.4140   25.2540 C.2   120  PHE120      0.2264
     56  O         22.3120   11.8370   26.2920 O.2   120  PHE120     -0.2867
     57  CB        19.3470   11.6360   25.6730 C.3   120  PHE120      0.0534
     58  CG        18.3130   12.7150   25.8390 C.ar  120  PHE120     -0.0203
     59  CD1       17.5310   13.1140   24.7670 C.ar  120  PHE120     -0.0042
     60  CD2       18.1130   13.3180   27.0720 C.ar  120  PHE120     -0.0042
     61  CE1       16.5770   14.1030   24.9170 C.ar  120  PHE120     -0.0003
     62  CE2       17.1550   14.3080   27.2300 C.ar  120  PHE120     -0.0003
     63  CZ        16.3880   14.7000   26.1500 C.ar  120  PHE120     -0.0000
     64  N         23.0740   16.4260   25.7490 N.3   144  PRO144     -0.2102
     65  CA        22.1430   15.9140   24.7320 C.3   144  PRO144      0.1504
     66  C         22.1370   16.7090   23.4210 C.2   144  PRO144      0.2576
     67  O         22.2320   17.9360   23.4370 O.2   144  PRO144     -0.2718
     68  CB        20.7850   16.0190   25.4290 C.3   144  PRO144      0.0282
     69  CG        21.1030   15.8210   26.8650 C.3   144  PRO144      0.0208
     70  CD        22.4480   16.4670   27.0850 C.3   144  PRO144      0.0893
     71  N         22.0340   15.9970   22.3010 N.am  145  VAL145     -0.1966
     72  CA        21.9970   16.6120   20.9760 C.3   145  VAL145      0.1727
     73  C         20.5810   17.0730   20.6370 C.2   145  VAL145      0.2617
     74  O         19.6110   16.3430   20.8550 O.2   145  VAL145     -0.2715
     75  CB        22.4940   15.6370   19.8890 C.3   145  VAL145      0.0290
     76  CG1       22.5630   16.3290   18.5360 C.3   145  VAL145      0.0023
     77  CG2       23.8570   15.0700   20.2690 C.3   145  VAL145      0.0023
     78  N         20.4620   18.2800   20.0960 N.am  146  SER146     -0.1936
     79  CA        19.1560   18.8860   19.8850 C.3   146  SER146      0.2055
     80  C         18.7220   18.9350   18.4210 C.2   146  SER146      0.2642
     81  O         17.5350   19.1070   18.1390 O.2   146  SER146     -0.2714
     82  CB        19.1390   20.2970   20.4770 C.3   146  SER146      0.2130
     83  OG        20.3460   20.9870   20.1970 O.3   146  SER146     -0.2179
     84  N         19.6680   18.7800   17.4980 N.am  147  ALA147     -0.1977
     85  CA        19.3580   18.8580   16.0710 C.3   147  ALA147      0.1597
     86  C         20.4960   18.3470   15.1900 C.2   147  ALA147      0.2287
     87  O         21.6710   18.4950   15.5270 O.2   147  ALA147     -0.2864
     88  CB        19.0120   20.2940   15.6890 C.3   147  ALA147      0.0319
     89  N         22.9170   21.0940   24.0910 N.3   162  TYR162     -0.1241
     90  CA        22.7260   21.8910   25.2960 C.3   162  TYR162      0.1605
     91  C         24.0560   22.2940   25.9190 C.2   162  TYR162      0.2264
     92  O         24.0800   22.9980   26.9280 O.2   162  TYR162     -0.2867
     93  CB        21.8870   21.1250   26.3230 C.3   162  TYR162      0.0534
     94  CG        20.3920   21.2920   26.1590 C.ar  162  TYR162     -0.0201
     95  CD1       19.7560   20.9230   24.9810 C.ar  162  TYR162     -0.0009
     96  CD2       19.6120   21.8040   27.1890 C.ar  162  TYR162     -0.0009
     97  CE1       18.3850   21.0670   24.8300 C.ar  162  TYR162      0.0417
     98  CE2       18.2390   21.9500   27.0460 C.ar  162  TYR162      0.0417
     99  CZ        17.6340   21.5810   25.8640 C.ar  162  TYR162      0.1957
    100  OH        16.2730   21.7250   25.7170 O.3   162  TYR162     -0.2866
    101  N         18.2220   24.4710   18.6430 N.3   190  PHE190     -0.1241
    102  CA        17.9740   24.0890   17.2530 C.3   190  PHE190      0.1605
    103  C         19.0390   24.6060   16.2850 C.2   190  PHE190      0.2264
    104  O         19.6790   25.6280   16.5390 O.2   190  PHE190     -0.2867
    105  CB        16.5990   24.5860   16.8040 C.3   190  PHE190      0.0534
    106  CG        16.2200   24.1460   15.4170 C.ar  190  PHE190     -0.0203
    107  CD1       15.7800   22.8530   15.1820 C.ar  190  PHE190     -0.0042
    108  CD2       16.3130   25.0200   14.3490 C.ar  190  PHE190     -0.0042
    109  CE1       15.4340   22.4430   13.9080 C.ar  190  PHE190     -0.0003
    110  CE2       15.9670   24.6170   13.0710 C.ar  190  PHE190     -0.0003
    111  CZ        15.5280   23.3270   12.8490 C.ar  190  PHE190     -0.0000
    112  N         12.9210   26.8400   27.3990 N.3   230  LYS230     -0.1231
    113  CA        12.8030   25.4860   27.9300 C.3   230  LYS230      0.1693
    114  C         12.7530   24.4060   26.8540 C.2   230  LYS230      0.2592
    115  O         13.2360   23.2950   27.0660 O.2   230  LYS230     -0.2718
    116  CB        11.5640   25.3750   28.8230 C.3   230  LYS230      0.0285
    117  CG        11.4320   24.0260   29.5150 C.3   230  LYS230      0.0035
    118  CD        10.3420   24.0350   30.5720 C.3   230  LYS230      0.0206
    119  CE        10.2420   22.6850   31.2740 C.3   230  LYS230      0.1093
    120  NZ         9.8330   21.5920   30.3430 N.3   230  LYS230     -0.1314
    121  N         12.1800   24.7260   25.7010 N.am  231  TYR231     -0.1962
    122  CA        11.9470   23.7030   24.6890 C.3   231  TYR231      0.1771
    123  C         12.7640   23.8970   23.4170 C.2   231  TYR231      0.2619
    124  O         13.0830   25.0180   23.0310 O.2   231  TYR231     -0.2715
    125  CB        10.4580   23.6450   24.3430 C.3   231  TYR231      0.0574
    126  CG         9.5890   23.2870   25.5270 C.ar  231  TYR231     -0.0198
    127  CD1        9.4270   21.9650   25.9180 C.ar  231  TYR231     -0.0009
    128  CD2        8.9440   24.2710   26.2620 C.ar  231  TYR231     -0.0009
    129  CE1        8.6460   21.6330   27.0010 C.ar  231  TYR231      0.0417
    130  CE2        8.1600   23.9460   27.3480 C.ar  231  TYR231      0.0417
    131  CZ         8.0150   22.6250   27.7120 C.ar  231  TYR231      0.1957
    132  OH         7.2310   22.2930   28.7920 O.3   231  TYR231     -0.2866
    133  N         13.1020   22.7810   22.7780 N.am  232  CYS232     -0.1968
    134  CA        13.7700   22.7990   21.4860 C.3   232  CYS232      0.1712
    135  C         12.7480   23.0130   20.3710 C.2   232  CYS232      0.2296
    136  O         12.0900   22.0710   19.9280 O.2   232  CYS232     -0.2864
    137  CB        14.5420   21.4970   21.2600 C.3   232  CYS232      0.0983
    138  SG        15.8640   21.1810   22.4600 S.3   232  CYS232     -0.0798
    139  N         11.5570   24.0270   16.5670 N.3   234  PHE234     -0.1241
    140  CA        11.9560   24.0520   15.1620 C.3   234  PHE234      0.1605
    141  C         11.9380   25.4660   14.5810 C.2   234  PHE234      0.2264
    142  O         11.2220   26.3390   15.0730 O.2   234  PHE234     -0.2867
    143  CB        11.0330   23.1600   14.3230 C.3   234  PHE234      0.0534
    144  CG        11.2440   21.6830   14.5270 C.ar  234  PHE234     -0.0203
    145  CD1       12.1560   20.9880   13.7480 C.ar  234  PHE234     -0.0042
    146  CD2       10.5130   20.9840   15.4760 C.ar  234  PHE234     -0.0042
    147  CE1       12.3480   19.6270   13.9220 C.ar  234  PHE234     -0.0003
    148  CE2       10.7000   19.6210   15.6570 C.ar  234  PHE234     -0.0003
    149  CZ        11.6180   18.9430   14.8790 C.ar  234  PHE234     -0.0000
    150  N          5.5670   23.9120   19.2610 N.3   276  ILE276     -0.1245
    151  CA         6.8370   23.2020   19.3070 C.3   276  ILE276      0.1561
    152  C          7.4510   22.9740   17.9230 C.2   276  ILE276      0.2260
    153  O          8.6480   22.7080   17.8050 O.2   276  ILE276     -0.2867
    154  CB         6.6590   21.8330   20.0100 C.3   276  ILE276      0.0252
    155  CG1        8.0030   21.2560   20.4590 C.3   276  ILE276      0.0019
    156  CG2        5.9000   20.8570   19.1110 C.3   276  ILE276      0.0019
    157  CD1        8.7120   22.0930   21.4970 C.3   276  ILE276      0.0001
    158  N          1.8130   21.3900   22.1520 N.3   292  LEU292     -0.1245
    159  CA         2.1170   20.4070   23.1880 C.3   292  LEU292      0.1561
    160  C          0.8770   19.8660   23.9130 C.2   292  LEU292      0.2260
    161  O         -0.2500   20.0290   23.4520 O.2   292  LEU292     -0.2867
    162  CB         3.0990   21.0030   24.2070 C.3   292  LEU292      0.0270
    163  CG         4.4900   21.3760   23.6710 C.3   292  LEU292      0.0019
    164  CD1        5.4390   21.7940   24.7930 C.3   292  LEU292      0.0001
    165  CD2        5.0920   20.2290   22.8680 C.3   292  LEU292      0.0001
@<TRIPOS>BOND
     1   111   110   ar
     2   111   109   ar
     3   110   108   ar
     4    34    33   ar
     5   145   147   ar
     6   145   144   ar
     7   109   107   ar
     8   147   149   ar
     9    35    33   ar
    10    30    31    2
    11    30    29    1
    12    33    32    1
    13   143   144    1
    14   143   140    1
    15   108   106   ar
    16   144   146   ar
    17   141   142    2
    18   141   140    1
    19    49    50    2
    20    49    48    1
    21   149   148   ar
    22   140   139    1
    23   107   106   ar
    24    86    87    2
    25    86    85    1
    26    32    29    1
    27    29    28    1
    28   106   105    1
    29   146   148   ar
    30    88    85    1
    31    48    51    1
    32    48    47    1
    33    51    52    1
    34    85    84    1
    35   103   104    2
    36   103   102    1
    37    28    24   am
    38     6     5    1
    39    21    19    1
    40    20    18    1
    41   105   102    1
    42   102   101    1
    43    47    38   am
    44    10    11    2
    45    10     9    1
    46    84    80   am
    47    25    24    2
    48    24    23    1
    49   153   152    2
    50    18    19    1
    51    18    15    1
    52   152   151    1
    53    13    12    1
    54    39    38    2
    55     5     7    1
    56     5     2    1
    57    81    80    2
    58    38    37    1
    59    80    79    1
    60     8     9    1
    61     8     3   am
    62    76    75    1
    63     9    12    1
    64    22    23    1
    65    22    16   am
    66    23    26    1
    67   156   154    1
    68     2     3    1
    69     2     1    1
    70    15    16    1
    71    15    14    1
    72     3     4    2
    73   150   151    1
    74    16    17    2
    75   151   154    1
    76    36    37    1
    77    37    40    1
    78    26    27    1
    79    79    78    1
    80    79    82    1
    81    75    77    1
    82    75    72    1
    83   136   135    2
    84   154   155    1
    85    78    73   am
    86    83    82    1
    87   135   134    1
    88    43    45   ar
    89    43    41   ar
    90   155   157    1
    91    40    41    1
    92    73    74    2
    93    73    72    1
    94    45    46   ar
    95    41    42   ar
    96    72    71    1
    97   137   134    1
    98   137   138    1
    99    46    44   ar
   100    42    44   ar
   101   134   133    1
   102   158   159    1
   103    71    66   am
   104   133   123   am
   105   165   163    1
   106   124   123    2
   107   159   160    1
   108   159   162    1
   109    53    54    1
   110   123   122    1
   111    66    67    2
   112    66    65    1
   113   161   160    2
   114   163   162    1
   115   163   164    1
   116    89    90    1
   117   125   122    1
   118   125   126    1
   119   122   121    1
   120    65    68    1
   121    65    64    1
   122    54    55    1
   123    54    57    1
   124    59    61   ar
   125    59    58   ar
   126    97    95   ar
   127    97    99   ar
   128    61    63   ar
   129    95    94   ar
   130    55    56    2
   131    90    91    1
   132    90    93    1
   133    68    69    1
   134   126   127   ar
   135   126   128   ar
   136    57    58    1
   137   121   114   am
   138   100    99    1
   139    64    70    1
   140    58    60   ar
   141    99    98   ar
   142   127   129   ar
   143    91    92    2
   144    63    62   ar
   145    94    93    1
   146    94    96   ar
   147   128   130   ar
   148   114   115    2
   149   114   113    1
   150    69    70    1
   151   129   131   ar
   152    98    96   ar
   153    60    62   ar
   154   130   131   ar
   155   112   113    1
   156   131   132    1
   157   113   116    1
   158   116   117    1
   159   117   118    1
   160   120   119    1
   161   118   119    1
