@<TRIPOS>MOLECULE
tmp/6dynA00.pdb
 152 149 0 0 0
SMALL
GASTEIGER

@<TRIPOS>ATOM
      1  N          1.6990   -9.3330    9.1750 N.3    25  PHE25      -0.1241
      2  CA         1.3230   -8.1450    9.9320 C.3    25  PHE25       0.1605
      3  C         -0.1560   -7.8160    9.8620 C.2    25  PHE25       0.2264
      4  O         -0.7440   -7.4660   10.8870 O.2    25  PHE25      -0.2867
      5  CB         2.1340   -6.9380    9.4550 C.3    25  PHE25       0.0534
      6  CG         3.5200   -6.8770   10.0310 C.ar   25  PHE25      -0.0203
      7  CD1        4.5090   -7.7440    9.5870 C.ar   25  PHE25      -0.0042
      8  CD2        3.8380   -5.9480   11.0190 C.ar   25  PHE25      -0.0042
      9  CE1        5.7950   -7.7010   10.1150 C.ar   25  PHE25      -0.0003
     10  CE2        5.1230   -5.8910   11.5520 C.ar   25  PHE25      -0.0003
     11  CZ         6.1070   -6.7720   11.0980 C.ar   25  PHE25      -0.0000
     12  N         -0.6810   -7.6530   13.6990 N.3    29  ALA29      -0.1231
     13  CA         0.2250   -6.7450   14.3890 C.3    29  ALA29       0.1694
     14  C         -0.4200   -6.1350   15.6330 C.2    29  ALA29       0.2592
     15  O         -1.5820   -5.7070   15.6230 O.2    29  ALA29      -0.2718
     16  CB         0.6850   -5.6520   13.4250 C.3    29  ALA29       0.0304
     17  N          0.3610   -6.0860   16.7150 N.am   30  ASP30      -0.1960
     18  CA        -0.2020   -5.7600   18.0160 C.3    30  ASP30       0.1840
     19  C         -0.5530   -4.2780   18.1540 C.2    30  ASP30       0.2622
     20  O         -1.4080   -3.9290   18.9690 O.2    30  ASP30      -0.2715
     21  CB         0.7750   -6.1960   19.1090 C.3    30  ASP30       0.1450
     22  CG         1.1170   -7.6890   19.0320 C.2    30  ASP30       0.3671
     23  OD1        1.8030   -8.0910   18.0580 O.co2  30  ASP30      -0.2456
     24  OD2        0.7160   -8.4460   19.9460 O.co2  30  ASP30      -0.2456
     25  N          0.0910   -3.3960   17.3980 N.am   31  LEU31      -0.1963
     26  CA        -0.2300   -1.9740   17.4940 C.3    31  LEU31       0.1728
     27  C         -1.3610   -1.6060   16.5420 C.2    31  LEU31       0.2616
     28  O         -2.3170   -0.9390   16.9400 O.2    31  LEU31      -0.2715
     29  CB         1.0020   -1.1190   17.1900 C.3    31  LEU31       0.0311
     30  CG         2.1850   -1.2230   18.1570 C.3    31  LEU31       0.0022
     31  CD1        3.3580   -0.4510   17.6150 C.3    31  LEU31       0.0001
     32  CD2        1.7860   -0.6810   19.5210 C.3    31  LEU31       0.0001
     33  N         -1.2770   -2.0740   15.2980 N.am   32  GLU32      -0.1977
     34  CA        -2.2450   -1.7070   14.2700 C.3    32  GLU32       0.1602
     35  C         -3.6600   -2.1690   14.5920 C.2    32  GLU32       0.2287
     36  O         -4.6170   -1.5930   14.0640 O.2    32  GLU32      -0.2864
     37  CB        -1.8070   -2.2790   12.9220 C.3    32  GLU32       0.0415
     38  CG        -0.5570   -1.6300   12.3760 C.3    32  GLU32       0.1163
     39  CD         0.7400   -2.3020   12.8390 C.2    32  GLU32       0.3649
     40  OE1        0.8700   -2.6370   14.0430 O.co2  32  GLU32      -0.2457
     41  OE2        1.6380   -2.4900   11.9850 O.co2  32  GLU32      -0.2457
     42  N          0.6660   -1.7350    4.0280 N.3    44  TYR44      -0.1241
     43  CA         1.9750   -2.3490    4.2330 C.3    44  TYR44       0.1605
     44  C          2.7250   -2.5110    2.9140 C.2    44  TYR44       0.2264
     45  O          3.9120   -2.1770    2.8210 O.2    44  TYR44      -0.2867
     46  CB         1.8250   -3.6970    4.9260 C.3    44  TYR44       0.0534
     47  CG         1.2240   -3.6680    6.3160 C.ar   44  TYR44      -0.0201
     48  CD1        1.9700   -3.2660    7.4230 C.ar   44  TYR44      -0.0009
     49  CD2       -0.0890   -4.0700    6.5230 C.ar   44  TYR44      -0.0009
     50  CE1        1.4170   -3.2680    8.6940 C.ar   44  TYR44       0.0417
     51  CE2       -0.6520   -4.0750    7.7880 C.ar   44  TYR44       0.0417
     52  CZ         0.1000   -3.6740    8.8690 C.ar   44  TYR44       0.1957
     53  OH        -0.4830   -3.6950   10.1160 O.3    44  TYR44      -0.2866
     54  N          1.8730    4.5610   13.7420 N.3    96  VAL96      -0.1231
     55  CA         2.7240    3.4930   14.2720 C.3    96  VAL96       0.1692
     56  C          4.1910    3.8920   14.1770 C.2    96  VAL96       0.2592
     57  O          4.9520    3.7540   15.1440 O.2    96  VAL96      -0.2718
     58  CB         2.4510    2.1620   13.5470 C.3    96  VAL96       0.0266
     59  CG1        3.5370    1.1640   13.8560 C.3    96  VAL96       0.0020
     60  CG2        1.1120    1.6010   13.9760 C.3    96  VAL96       0.0020
     61  N          4.6030    4.4170   13.0190 N.am   97  PHE97      -0.1976
     62  CA         6.0010    4.8060   12.8520 C.3    97  PHE97       0.1639
     63  C          6.3620    5.9980   13.7260 C.2    97  PHE97       0.2290
     64  O          7.4720    6.0590   14.2610 O.2    97  PHE97      -0.2864
     65  CB         6.2990    5.1030   11.3870 C.3    97  PHE97       0.0560
     66  CG         6.3670    3.8660   10.5410 C.ar   97  PHE97      -0.0200
     67  CD1        7.5620    3.1910   10.3770 C.ar   97  PHE97      -0.0042
     68  CD2        5.2230    3.3480    9.9460 C.ar   97  PHE97      -0.0042
     69  CE1        7.6240    2.0340    9.6080 C.ar   97  PHE97      -0.0003
     70  CE2        5.2760    2.1860    9.1770 C.ar   97  PHE97      -0.0003
     71  CZ         6.4800    1.5340    9.0040 C.ar   97  PHE97      -0.0000
     72  N          6.8640    4.5690   17.0720 N.3   100  LEU100     -0.1245
     73  CA         8.1310    3.8550   17.1770 C.3   100  LEU100      0.1561
     74  C          9.2960    4.8340   17.2890 C.2   100  LEU100      0.2260
     75  O         10.2340    4.6100   18.0700 O.2   100  LEU100     -0.2867
     76  CB         8.3150    2.9100   15.9820 C.3   100  LEU100      0.0270
     77  CG         7.3490    1.7110   15.9240 C.3   100  LEU100      0.0019
     78  CD1        7.5560    0.8670   14.6630 C.3   100  LEU100      0.0001
     79  CD2        7.4880    0.8440   17.1470 C.3   100  LEU100      0.0001
     80  N         12.1200    5.0660   19.9530 N.3   104  GLU104     -0.1245
     81  CA        13.5060    4.9260   19.5330 C.3   104  GLU104      0.1567
     82  C         14.3880    6.1650   19.4550 C.2   104  GLU104      0.2260
     83  O         15.5300    6.1400   19.8850 O.2   104  GLU104     -0.2867
     84  CB        13.5610    4.1990   18.1780 C.3   104  GLU104      0.0388
     85  CG        12.9290    2.8150   18.1680 C.3   104  GLU104      0.1160
     86  CD        12.8140    2.2150   16.7770 C.2   104  GLU104      0.3649
     87  OE1       12.9350    2.9540   15.7880 O.co2 104  GLU104     -0.2457
     88  OE2       12.5970    0.9950   16.6690 O.co2 104  GLU104     -0.2457
     89  N         19.4900   -1.5480   12.4270 N.3   121  HIS121     -0.1226
     90  CA        18.0790   -1.4540   12.7950 C.3   121  HIS121      0.1752
     91  C         17.3310   -2.6350   12.2010 C.2   121  HIS121      0.2597
     92  O         17.1780   -2.7270   10.9770 O.2   121  HIS121     -0.2718
     93  CB        17.4670   -0.1400   12.3040 C.3   121  HIS121      0.0759
     94  CG        16.1010    0.1460   12.8560 C.ar  121  HIS121      0.0818
     95  ND1       15.1670    0.9110   12.1870 N.ar  121  HIS121     -0.2268
     96  CD2       15.5180   -0.2160   14.0270 C.ar  121  HIS121      0.1154
     97  CE1       14.0670    0.9970   12.9140 C.ar  121  HIS121      0.1986
     98  NE2       14.2550    0.3260   14.0380 N.ar  121  HIS121     -0.2212
     99  N         16.8550   -3.5330   13.0670 N.am  122  SER122     -0.1938
    100  CA        15.9680   -4.6200   12.6520 C.3   122  SER122      0.2055
    101  C         14.5730   -4.0200   12.5130 C.2   122  SER122      0.2643
    102  O         13.8850   -3.7770   13.5020 O.2   122  SER122     -0.2714
    103  CB        15.9970   -5.7730   13.6450 C.3   122  SER122      0.2130
    104  OG        15.1790   -6.8370   13.1900 O.3   122  SER122     -0.2179
    105  N         14.1800   -3.7680   11.2690 N.am  123  PHE123     -0.1959
    106  CA        13.0470   -2.9760   10.8120 C.3   123  PHE123      0.1771
    107  C         11.7680   -3.8200   10.7390 C.2   123  PHE123      0.2619
    108  O         10.7320   -3.4550   11.3040 O.2   123  PHE123     -0.2715
    109  CB        13.4640   -2.3610    9.4570 C.3   123  PHE123      0.0574
    110  CG        12.3930   -1.6180    8.7230 C.ar  123  PHE123     -0.0200
    111  CD1       12.1590   -0.2690    8.9900 C.ar  123  PHE123     -0.0042
    112  CD2       11.7070   -2.2210    7.6780 C.ar  123  PHE123     -0.0042
    113  CE1       11.1890    0.4480    8.2800 C.ar  123  PHE123     -0.0003
    114  CE2       10.7430   -1.5210    6.9610 C.ar  123  PHE123     -0.0003
    115  CZ        10.4760   -0.1840    7.2640 C.ar  123  PHE123     -0.0000
    116  N         11.8340   -4.9750   10.0900 N.am  124  MET124     -0.1977
    117  CA        10.7060   -5.8870   10.0510 C.3   124  MET124      0.1605
    118  C         11.2420   -7.3010    9.9490 C.2   124  MET124      0.2287
    119  O         12.3230   -7.5310    9.4030 O.2   124  MET124     -0.2864
    120  CB         9.7540   -5.5870    8.8790 C.3   124  MET124      0.0413
    121  CG         8.5220   -4.7550    9.2940 C.3   124  MET124      0.0598
    122  SD         7.2370   -4.5070    8.0380 S.3   124  MET124     -0.1393
    123  CE         8.0450   -3.4170    6.8780 C.3   124  MET124      0.0692
    124  N         16.1650   -2.7560   17.9090 N.3   161  THR161     -0.1203
    125  CA        14.8220   -3.0700   17.4400 C.3   161  THR161      0.1994
    126  C         13.8200   -2.7320   18.5310 C.2   161  THR161      0.2619
    127  O         14.1490   -2.7550   19.7230 O.2   161  THR161     -0.2717
    128  CB        14.6900   -4.5560   17.0250 C.3   161  THR161      0.1784
    129  OG1       13.4140   -4.7790   16.4120 O.3   161  THR161     -0.2211
    130  CG2       14.8110   -5.4760   18.2240 C.3   161  THR161      0.0376
    131  N         12.6000   -2.3880   18.1130 N.am  162  THR162     -0.1938
    132  CA        11.4800   -2.2530   19.0340 C.3   162  THR162      0.2028
    133  C         10.5800   -3.4690   18.8590 C.2   162  THR162      0.2642
    134  O         10.0240   -3.6800   17.7820 O.2   162  THR162     -0.2714
    135  CB        10.7050   -0.9540   18.8000 C.3   162  THR162      0.1808
    136  OG1       11.6110    0.1350   18.9240 O.3   162  THR162     -0.2208
    137  CG2        9.6500   -0.7530   19.8710 C.3   162  THR162      0.0379
    138  N         10.4470   -4.2650   19.9080 N.am  163  ASN163     -0.1957
    139  CA         9.6700   -5.4930   19.8560 C.3   163  ASN163      0.1819
    140  C          8.2950   -5.2380   20.4550 C.2   163  ASN163      0.2621
    141  O          8.1870   -4.7720   21.5950 O.2   163  ASN163     -0.2715
    142  CB        10.4130   -6.6150   20.5710 C.3   163  ASN163      0.1195
    143  CG        11.5340   -7.1740   19.7040 C.2   163  ASN163      0.2630
    144  OD1       11.3110   -7.4900   18.5480 O.2   163  ASN163     -0.2716
    145  ND2       12.7440   -7.2200   20.2310 N.am  163  ASN163     -0.0877
    146  N          7.2470   -5.5200   19.6680 N.am  164  THR164     -0.1951
    147  CA         5.8870   -5.1340   20.0230 C.3   164  THR164      0.1897
    148  C          4.9610   -6.3170   20.2690 C.2   164  THR164      0.2313
    149  O          3.7800   -6.1140   20.5700 O.2   164  THR164     -0.2863
    150  CB         5.2900   -4.2430   18.9240 C.3   164  THR164      0.1794
    151  OG1        5.4450   -4.8940   17.6710 O.3   164  THR164     -0.2208
    152  CG2        6.0080   -2.8770   18.8740 C.3   164  THR164      0.0378
@<TRIPOS>BOND
     1    45    44    2
     2    44    43    1
     3    42    43    1
     4    43    46    1
     5    46    47    1
     6    47    49   ar
     7    47    48   ar
     8    49    51   ar
     9   123   122    1
    10   114   115   ar
    11   114   112   ar
    12   115   113   ar
    13    48    50   ar
    14   112   110   ar
    15    51    52   ar
    16   122   121    1
    17   113   111   ar
    18    50    52   ar
    19   110   111   ar
    20   110   109    1
    21    52    53    1
    22   120   121    1
    23   120   117    1
    24    71    70   ar
    25    71    69   ar
    26     1     2    1
    27    70    68   ar
    28   119   118    2
    29     5     2    1
    30     5     6    1
    31   109   106    1
    32     7     6   ar
    33     7     9   ar
    34    69    67   ar
    35     3     2    1
    36     3     4    2
    37    68    66   ar
    38   118   117    1
    39     6     8   ar
    40   117   116    1
    41   116   107   am
    42     9    11   ar
    43    67    66   ar
    44    66    65    1
    45   107   106    1
    46   107   108    2
    47   106   105    1
    48    92    91    2
    49     8    10   ar
    50    11    10   ar
    51   105   101   am
    52    65    62    1
    53    41    39   ar
    54    95    94   ar
    55    95    97   ar
    56    91    90    1
    57    91    99   am
    58    93    90    1
    59    93    94    1
    60    38    39    1
    61    38    37    1
    62    89    90    1
    63   101   100    1
    64   101   102    2
    65   100    99    1
    66   100   103    1
    67    39    40   ar
    68    62    61    1
    69    62    63    1
    70    94    96   ar
    71    97    98   ar
    72    37    34    1
    73    61    56   am
    74   104   103    1
    75    16    13    1
    76    58    59    1
    77    58    60    1
    78    58    55    1
    79    12    13    1
    80    63    64    2
    81    54    55    1
    82    96    98   ar
    83    36    35    2
    84    56    55    1
    85    56    57    2
    86    34    35    1
    87    34    33    1
    88    13    14    1
    89    78    77    1
    90    33    27   am
    91    15    14    2
    92    14    17   am
    93    87    86   ar
    94    77    76    1
    95    77    79    1
    96    76    73    1
    97   129   128    1
    98    27    28    2
    99    27    26    1
   100    88    86   ar
   101    17    18    1
   102    86    85    1
   103   128   125    1
   104   128   130    1
   105    72    73    1
   106    73    74    1
   107    29    26    1
   108    29    30    1
   109    74    75    2
   110    25    26    1
   111    25    19   am
   112   125   124    1
   113   125   126    1
   114    31    30    1
   115   151   150    1
   116   134   133    2
   117    18    19    1
   118    18    21    1
   119    23    22   ar
   120   131   126   am
   121   131   132    1
   122    19    20    2
   123    30    32    1
   124    85    84    1
   125    84    81    1
   126   126   127    2
   127   144   143    2
   128   135   136    1
   129   135   132    1
   130   135   137    1
   131   133   132    1
   132   133   138   am
   133   152   150    1
   134   150   147    1
   135    22    21    1
   136    22    24   ar
   137    82    81    1
   138    82    83    2
   139    81    80    1
   140   146   147    1
   141   146   140   am
   142   143   145   am
   143   143   142    1
   144   139   138    1
   145   139   140    1
   146   139   142    1
   147   147   148    1
   148   148   149    2
   149   140   141    2
