@<TRIPOS>MOLECULE
tmp/6dyoA00.pdb
 138 131 0 0 0
SMALL
GASTEIGER

@<TRIPOS>ATOM
      1  N          1.7500   -9.1810    9.2980 N.3    25  PHE25      -0.1241
      2  CA         1.4460   -7.9400    9.9990 C.3    25  PHE25       0.1605
      3  C         -0.0270   -7.5720    9.9560 C.2    25  PHE25       0.2264
      4  O         -0.5710   -7.1240   10.9680 O.2    25  PHE25      -0.2867
      5  CB         2.2710   -6.7850    9.4150 C.3    25  PHE25       0.0534
      6  CG         3.6780   -6.7200    9.9410 C.ar   25  PHE25      -0.0203
      7  CD1        4.0350   -5.7740   10.8870 C.ar   25  PHE25      -0.0042
      8  CD2        4.6430   -7.6080    9.4930 C.ar   25  PHE25      -0.0042
      9  CE1        5.3280   -5.7120   11.3740 C.ar   25  PHE25      -0.0003
     10  CE2        5.9370   -7.5520    9.9770 C.ar   25  PHE25      -0.0003
     11  CZ         6.2800   -6.6020   10.9170 C.ar   25  PHE25      -0.0000
     12  N         -0.7860   -7.7000   13.8430 N.3    29  ALA29      -0.1245
     13  CA         0.1110   -6.7990   14.5510 C.3    29  ALA29       0.1562
     14  C         -0.5670   -6.2540   15.8020 C.2    29  ALA29       0.2260
     15  O         -1.6950   -5.7540   15.7460 O.2    29  ALA29      -0.2867
     16  CB         0.5450   -5.6560   13.6360 C.3    29  ALA29       0.0290
     17  N         -0.1790   -3.6580   17.5020 N.3    31  LEU31      -0.1231
     18  CA        -0.4620   -2.2300   17.5610 C.3    31  LEU31       0.1693
     19  C         -1.6470   -1.8430   16.6820 C.2    31  LEU31       0.2591
     20  O         -2.5760   -1.1770   17.1490 O.2    31  LEU31      -0.2718
     21  CB         0.7790   -1.4290   17.1560 C.3    31  LEU31       0.0284
     22  CG         1.8680   -1.2780   18.2180 C.3    31  LEU31       0.0019
     23  CD1        3.0900   -0.5840   17.6360 C.3    31  LEU31       0.0001
     24  CD2        1.3370   -0.5170   19.4270 C.3    31  LEU31       0.0001
     25  N         -1.6350   -2.2600   15.4140 N.am   32  GLU32      -0.1979
     26  CA        -2.6350   -1.8140   14.4500 C.3    32  GLU32       0.1602
     27  C         -4.0380   -2.3260   14.7500 C.2    32  GLU32       0.2287
     28  O         -4.9970   -1.8300   14.1490 O.2    32  GLU32      -0.2864
     29  CB        -2.2320   -2.2430   13.0380 C.3    32  GLU32       0.0415
     30  CG        -0.9740   -1.5730   12.5150 C.3    32  GLU32       0.1163
     31  CD         0.2880   -2.3450   12.8570 C.2    32  GLU32       0.3649
     32  OE1        0.5900   -2.4940   14.0610 O.co2  32  GLU32      -0.2457
     33  OE2        0.9750   -2.8110   11.9210 O.co2  32  GLU32      -0.2457
     34  N          0.6800   -1.8100    4.0690 N.3    44  TYR44      -0.1241
     35  CA         2.0290   -2.3360    4.2420 C.3    44  TYR44       0.1605
     36  C          2.7460   -2.4630    2.9040 C.2    44  TYR44       0.2264
     37  O          3.9180   -2.0880    2.7800 O.2    44  TYR44      -0.2867
     38  CB         1.9830   -3.6900    4.9510 C.3    44  TYR44       0.0534
     39  CG         1.2910   -3.6650    6.2930 C.ar   44  TYR44      -0.0201
     40  CD1        1.9010   -3.0870    7.4010 C.ar   44  TYR44      -0.0009
     41  CD2        0.0310   -4.2290    6.4550 C.ar   44  TYR44      -0.0009
     42  CE1        1.2710   -3.0640    8.6310 C.ar   44  TYR44       0.0417
     43  CE2       -0.6060   -4.2130    7.6830 C.ar   44  TYR44       0.0417
     44  CZ         0.0180   -3.6300    8.7660 C.ar   44  TYR44       0.1957
     45  OH        -0.6150   -3.6130    9.9860 O.3    44  TYR44      -0.2866
     46  N         -1.0120    3.9480    9.4850 N.3    93  LEU93      -0.1245
     47  CA         0.2860    3.4080    9.8700 C.3    93  LEU93       0.1561
     48  C          1.2660    4.5010   10.2700 C.2    93  LEU93       0.2260
     49  O          2.2630    4.2070   10.9390 O.2    93  LEU93      -0.2867
     50  CB         0.8720    2.5760    8.7280 C.3    93  LEU93       0.0270
     51  CG         0.3180    1.1580    8.5810 C.3    93  LEU93       0.0019
     52  CD1        1.0130    0.4220    7.4450 C.3    93  LEU93       0.0001
     53  CD2        0.4680    0.3990    9.8860 C.3    93  LEU93       0.0001
     54  N          1.5400    4.5290   13.9370 N.3    96  VAL96      -0.1231
     55  CA         2.4240    3.4810   14.4400 C.3    96  VAL96       0.1692
     56  C          3.8820    3.9080   14.3150 C.2    96  VAL96       0.2592
     57  O          4.6720    3.7540   15.2550 O.2    96  VAL96      -0.2718
     58  CB         2.1600    2.1560   13.7000 C.3    96  VAL96       0.0266
     59  CG1        3.1690    1.1030   14.1240 C.3    96  VAL96       0.0020
     60  CG2        0.7410    1.6780   13.9580 C.3    96  VAL96       0.0020
     61  N          4.2590    4.4630   13.1610 N.am   97  PHE97      -0.1976
     62  CA         5.6530    4.8370   12.9500 C.3    97  PHE97       0.1639
     63  C          6.0430    6.0560   13.7770 C.2    97  PHE97       0.2290
     64  O          7.2020    6.1720   14.1940 O.2    97  PHE97      -0.2864
     65  CB         5.9120    5.0770   11.4630 C.3    97  PHE97       0.0560
     66  CG         6.1410    3.8110   10.6850 C.ar   97  PHE97      -0.0200
     67  CD1        7.4250    3.3520   10.4440 C.ar   97  PHE97      -0.0042
     68  CD2        5.0720    3.0680   10.2140 C.ar   97  PHE97      -0.0042
     69  CE1        7.6380    2.1810    9.7360 C.ar   97  PHE97      -0.0003
     70  CE2        5.2770    1.8960    9.5060 C.ar   97  PHE97      -0.0003
     71  CZ         6.5620    1.4530    9.2670 C.ar   97  PHE97      -0.0000
     72  N          6.7050    4.5390   17.1540 N.3   100  LEU100     -0.1245
     73  CA         8.0010    3.8730   17.1940 C.3   100  LEU100      0.1561
     74  C          9.1430    4.8800   17.2650 C.2   100  LEU100      0.2260
     75  O         10.1830    4.5950   17.8700 O.2   100  LEU100     -0.2867
     76  CB         8.1610    2.9550   15.9830 C.3   100  LEU100      0.0270
     77  CG         7.1280    1.8290   15.8980 C.3   100  LEU100      0.0019
     78  CD1        7.1240    1.1820   14.5170 C.3   100  LEU100      0.0001
     79  CD2        7.3570    0.7940   16.9890 C.3   100  LEU100      0.0001
     80  N         11.9940    4.9960   19.9040 N.3   104  GLU104     -0.1245
     81  CA        13.3620    4.8510   19.4210 C.3   104  GLU104      0.1567
     82  C         14.1290    6.1650   19.3570 C.2   104  GLU104      0.2260
     83  O         15.3590    6.1540   19.4740 O.2   104  GLU104     -0.2867
     84  CB        13.3660    4.2050   18.0310 C.3   104  GLU104      0.0388
     85  CG        13.0180    2.7270   18.0300 C.3   104  GLU104      0.1160
     86  CD        12.5490    2.2270   16.6750 C.2   104  GLU104      0.3649
     87  OE1       12.1550    3.0610   15.8320 O.co2 104  GLU104     -0.2457
     88  OE2       12.5680    0.9970   16.4540 O.co2 104  GLU104     -0.2457
     89  N         19.3610   -1.4570   12.5180 N.3   121  HIS121     -0.1241
     90  CA        17.9800   -1.4130   12.9790 C.3   121  HIS121      0.1621
     91  C         17.2070   -2.5690   12.3640 C.2   121  HIS121      0.2264
     92  O         17.0440   -2.6320   11.1400 O.2   121  HIS121     -0.2867
     93  CB        17.3240   -0.0800   12.6160 C.3   121  HIS121      0.0745
     94  CG        15.8850    0.0200   13.0260 C.ar  121  HIS121      0.0817
     95  ND1       14.9750    0.8140   12.3610 N.ar  121  HIS121     -0.2268
     96  CD2       15.2010   -0.5700   14.0360 C.ar  121  HIS121      0.1154
     97  CE1       13.7920    0.7060   12.9400 C.ar  121  HIS121      0.1986
     98  NE2       13.9020   -0.1270   13.9590 N.ar  121  HIS121     -0.2212
     99  N         14.2720   -3.7430   11.1120 N.3   123  PHE123     -0.1227
    100  CA        13.0950   -3.0160   10.6500 C.3   123  PHE123      0.1736
    101  C         11.8460   -3.8890   10.7140 C.2   123  PHE123      0.2595
    102  O         10.8990   -3.5840   11.4480 O.2   123  PHE123     -0.2718
    103  CB        13.3490   -2.5010    9.2280 C.3   123  PHE123      0.0547
    104  CG        12.1830   -1.7910    8.6060 C.ar  123  PHE123     -0.0202
    105  CD1       11.6870   -0.6200    9.1550 C.ar  123  PHE123     -0.0042
    106  CD2       11.6060   -2.2790    7.4450 C.ar  123  PHE123     -0.0042
    107  CE1       10.6190    0.0400    8.5690 C.ar  123  PHE123     -0.0003
    108  CE2       10.5400   -1.6260    6.8520 C.ar  123  PHE123     -0.0003
    109  CZ        10.0450   -0.4650    7.4150 C.ar  123  PHE123     -0.0000
    110  N         11.8320   -4.9890    9.9620 N.am  124  MET124     -0.1979
    111  CA        10.6820   -5.8800    9.9210 C.3   124  MET124      0.1605
    112  C         11.1530   -7.3250    9.8580 C.2   124  MET124      0.2287
    113  O         12.2430   -7.6190    9.3620 O.2   124  MET124     -0.2864
    114  CB         9.7710   -5.5760    8.7230 C.3   124  MET124      0.0413
    115  CG         9.0370   -4.2430    8.8270 C.3   124  MET124      0.0598
    116  SD         7.4120   -4.2500    8.0480 S.3   124  MET124     -0.1393
    117  CE         7.8530   -3.9050    6.3490 C.3   124  MET124      0.0692
    118  N         16.0080   -2.5530   17.8840 N.3   161  THR161     -0.1203
    119  CA        14.6460   -2.6220   17.3660 C.3   161  THR161      0.1994
    120  C         13.6550   -2.4270   18.5050 C.2   161  THR161      0.2618
    121  O         14.0120   -2.4600   19.6850 O.2   161  THR161     -0.2717
    122  CB        14.3710   -3.9520   16.6530 C.3   161  THR161      0.1784
    123  OG1       13.2000   -3.8210   15.8370 O.3   161  THR161     -0.2211
    124  CG2       14.1510   -5.0710   17.6630 C.3   161  THR161      0.0376
    125  N         12.3950   -2.2250   18.1260 N.am  162  THR162     -0.1952
    126  CA        11.2770   -2.1310   19.0580 C.3   162  THR162      0.1897
    127  C         10.3760   -3.3390   18.8420 C.2   162  THR162      0.2313
    128  O          9.8640   -3.5430   17.7370 O.2   162  THR162     -0.2863
    129  CB        10.4940   -0.8320   18.8580 C.3   162  THR162      0.1794
    130  OG1       11.3510    0.2880   19.1080 O.3   162  THR162     -0.2208
    131  CG2        9.3060   -0.7680   19.8060 C.3   162  THR162      0.0378
    132  N          6.9930   -5.3870   19.5860 N.3   164  THR164     -0.1218
    133  CA         5.6190   -5.0670   19.9410 C.3   164  THR164      0.1862
    134  C          4.7440   -6.2980   20.1270 C.2   164  THR164      0.2287
    135  O          3.5770   -6.1590   20.5050 O.2   164  THR164     -0.2866
    136  CB         5.0000   -4.1520   18.8750 C.3   164  THR164      0.1770
    137  OG1        5.0410   -4.8060   17.6020 O.3   164  THR164     -0.2211
    138  CG2        5.7720   -2.8450   18.7810 C.3   164  THR164      0.0375
@<TRIPOS>BOND
     1    37    36    2
     2    36    35    1
     3    34    35    1
     4    35    38    1
     5    38    39    1
     6    39    41   ar
     7    39    40   ar
     8   117   116    1
     9    41    43   ar
    10   108   109   ar
    11   108   106   ar
    12    40    42   ar
    13   109   107   ar
    14   106   104   ar
    15    52    51    1
    16    43    44   ar
    17   116   115    1
    18   107   105   ar
    19    51    50    1
    20    51    53    1
    21   104   105   ar
    22   104   103    1
    23    42    44   ar
    24   114   115    1
    25   114   111    1
    26    50    47    1
    27    44    45    1
    28   103   100    1
    29    71    70   ar
    30    71    69   ar
    31     1     2    1
    32   113   112    2
    33     5     6    1
    34     5     2    1
    35    46    47    1
    36     8     6   ar
    37     8    10   ar
    38    70    68   ar
    39    69    67   ar
    40   112   111    1
    41    47    48    1
    42   111   110    1
    43     6     7   ar
    44     3     2    1
    45     3     4    2
    46   110   101   am
    47    10    11   ar
    48    68    66   ar
    49    48    49    2
    50    67    66   ar
    51   100   101    1
    52   100    99    1
    53    66    65    1
    54   101   102    2
    55     7     9   ar
    56    11     9   ar
    57    92    91    2
    58    65    62    1
    59    33    31   ar
    60    95    97   ar
    61    95    94   ar
    62    91    90    1
    63    30    31    1
    64    30    29    1
    65    89    90    1
    66    93    90    1
    67    93    94    1
    68    31    32   ar
    69    97    98   ar
    70    62    61    1
    71    62    63    1
    72    94    96   ar
    73    29    26    1
    74    61    56   am
    75    16    13    1
    76    58    60    1
    77    58    59    1
    78    58    55    1
    79    63    64    2
    80    12    13    1
    81    54    55    1
    82    98    96   ar
    83    28    27    2
    84    56    55    1
    85    56    57    2
    86    26    27    1
    87    26    25    1
    88    78    77    1
    89    13    14    1
    90    25    19   am
    91    15    14    2
    92    87    86   ar
    93   123   122    1
    94    77    76    1
    95    77    79    1
    96    76    73    1
    97    88    86   ar
    98   122   119    1
    99   122   124    1
   100    86    85    1
   101    19    20    2
   102    19    18    1
   103    72    73    1
   104    21    18    1
   105    21    22    1
   106    73    74    1
   107    74    75    2
   108   119   118    1
   109   119   120    1
   110    17    18    1
   111   137   136    1
   112    23    22    1
   113   128   127    2
   114    85    84    1
   115    84    81    1
   116   125   120   am
   117   125   126    1
   118    22    24    1
   119   120   121    2
   120   138   136    1
   121   127   126    1
   122   129   126    1
   123   129   130    1
   124   129   131    1
   125   136   133    1
   126    82    81    1
   127    82    83    2
   128    81    80    1
   129   132   133    1
   130   133   134    1
   131   134   135    2
