@<TRIPOS>MOLECULE
tmp/6dyrA00.pdb
 149 143 0 0 0
SMALL
GASTEIGER

@<TRIPOS>ATOM
      1  N          1.9660   -7.1420    9.6690 N.3    25  PHE25      -0.1241
      2  CA         1.6210   -5.8620   10.2760 C.3    25  PHE25       0.1605
      3  C          0.2400   -5.3450    9.8840 C.2    25  PHE25       0.2264
      4  O         -0.0550   -4.1690   10.1310 O.2    25  PHE25      -0.2867
      5  CB         2.6750   -4.8030    9.9310 C.3    25  PHE25       0.0534
      6  CG         4.0260   -5.0830   10.5170 C.ar   25  PHE25      -0.0203
      7  CD1        4.3280   -4.6950   11.8130 C.ar   25  PHE25      -0.0042
      8  CD2        4.9970   -5.7320    9.7710 C.ar   25  PHE25      -0.0042
      9  CE1        5.5760   -4.9520   12.3570 C.ar   25  PHE25      -0.0003
     10  CE2        6.2470   -5.9910   10.3070 C.ar   25  PHE25      -0.0003
     11  CZ         6.5380   -5.5990   11.6020 C.ar   25  PHE25      -0.0000
     12  N         -0.8770   -6.7220   13.6830 N.3    29  ALA29      -0.1245
     13  CA         0.1050   -5.8670   14.3290 C.3    29  ALA29       0.1562
     14  C         -0.4110   -5.3350   15.6580 C.2    29  ALA29       0.2260
     15  O         -1.5900   -4.9940   15.7970 O.2    29  ALA29      -0.2867
     16  CB         0.4740   -4.7060   13.4100 C.3    29  ALA29       0.0290
     17  N          0.4340   -2.5420   17.1820 N.3    31  LEU31      -0.1231
     18  CA         0.1640   -1.1110   17.1460 C.3    31  LEU31       0.1693
     19  C         -0.9320   -0.7570   16.1480 C.2    31  LEU31       0.2591
     20  O         -1.7790    0.0960   16.4350 O.2    31  LEU31      -0.2718
     21  CB         1.4410   -0.3410   16.8040 C.3    31  LEU31       0.0284
     22  CG         2.5250   -0.2510   17.8780 C.3    31  LEU31       0.0019
     23  CD1        3.6730    0.6160   17.3840 C.3    31  LEU31       0.0001
     24  CD2        1.9550    0.3040   19.1710 C.3    31  LEU31       0.0001
     25  N         -0.9330   -1.4080   14.9820 N.am   32  GLU32      -0.1979
     26  CA        -1.8800   -1.0860   13.9200 C.3    32  GLU32       0.1602
     27  C         -3.3030   -1.5110   14.2540 C.2    32  GLU32       0.2287
     28  O         -4.2490   -0.9470   13.6920 O.2    32  GLU32      -0.2864
     29  CB        -1.4380   -1.7430   12.6070 C.3    32  GLU32       0.0415
     30  CG        -0.2640   -1.0620   11.9140 C.3    32  GLU32       0.1163
     31  CD         1.0840   -1.3090   12.5810 C.2    32  GLU32       0.3649
     32  OE1        2.1160   -1.0480   11.9290 O.co2  32  GLU32      -0.2457
     33  OE2        1.1220   -1.7520   13.7480 O.co2  32  GLU32      -0.2457
     34  N          1.2190   -0.4790    3.8250 N.3    44  TYR44      -0.1241
     35  CA         2.5810   -0.9660    3.9900 C.3    44  TYR44       0.1605
     36  C          3.2530   -1.2490    2.6550 C.2    44  TYR44       0.2264
     37  O          4.4670   -1.0510    2.5270 O.2    44  TYR44      -0.2867
     38  CB         2.5980   -2.2030    4.8870 C.3    44  TYR44       0.0534
     39  CG         2.8250   -1.8270    6.3290 C.ar   44  TYR44      -0.0201
     40  CD1        4.0300   -1.2620    6.7270 C.ar   44  TYR44      -0.0009
     41  CD2        1.8340   -2.0040    7.2850 C.ar   44  TYR44      -0.0009
     42  CE1        4.2500   -0.8960    8.0370 C.ar   44  TYR44       0.0417
     43  CE2        2.0460   -1.6410    8.6040 C.ar   44  TYR44       0.0417
     44  CZ         3.2580   -1.0870    8.9710 C.ar   44  TYR44       0.1957
     45  OH         3.4860   -0.7200   10.2750 O.3    44  TYR44      -0.2866
     46  N          2.1520    5.5070   13.5930 N.3    96  VAL96      -0.1231
     47  CA         2.9910    4.4020   14.0520 C.3    96  VAL96       0.1692
     48  C          4.4610    4.7940   13.9950 C.2    96  VAL96       0.2592
     49  O          5.2010    4.6460   14.9740 O.2    96  VAL96      -0.2718
     50  CB         2.7150    3.1330   13.2250 C.3    96  VAL96       0.0266
     51  CG1        3.8510    2.1370   13.3900 C.3    96  VAL96       0.0020
     52  CG2        1.4030    2.4980   13.6470 C.3    96  VAL96       0.0020
     53  N          4.9050    5.3100   12.8470 N.am   97  PHE97      -0.1976
     54  CA         6.3190    5.6340   12.7080 C.3    97  PHE97       0.1639
     55  C          6.6880    6.8870   13.4850 C.2    97  PHE97       0.2290
     56  O          7.8340    7.0220   13.9270 O.2    97  PHE97      -0.2864
     57  CB         6.6830    5.7590   11.2310 C.3    97  PHE97       0.0560
     58  CG         6.7330    4.4340   10.5230 C.ar   97  PHE97      -0.0200
     59  CD1        7.8820    3.6620   10.5610 C.ar   97  PHE97      -0.0042
     60  CD2        5.6240    3.9450    9.8530 C.ar   97  PHE97      -0.0042
     61  CE1        7.9310    2.4340    9.9280 C.ar   97  PHE97      -0.0003
     62  CE2        5.6680    2.7170    9.2150 C.ar   97  PHE97      -0.0003
     63  CZ         6.8230    1.9620    9.2530 C.ar   97  PHE97      -0.0000
     64  N          7.1530    5.3370   16.9040 N.3   100  LEU100     -0.1245
     65  CA         8.4320    4.6410   16.9870 C.3   100  LEU100      0.1561
     66  C          9.5850    5.6310   17.0840 C.2   100  LEU100      0.2260
     67  O         10.5220    5.4280   17.8650 O.2   100  LEU100     -0.2867
     68  CB         8.6110    3.7170   15.7840 C.3   100  LEU100      0.0270
     69  CG         7.5870    2.5890   15.6510 C.3   100  LEU100      0.0019
     70  CD1        7.8410    1.7970   14.3860 C.3   100  LEU100      0.0001
     71  CD2        7.6130    1.6780   16.8700 C.3   100  LEU100      0.0001
     72  N         17.4040   -2.4740   12.9090 N.3   122  SER122     -0.1202
     73  CA        16.5220   -3.5610   12.4900 C.3   122  SER122      0.2020
     74  C         15.0910   -3.0710   12.6810 C.2   122  SER122      0.2619
     75  O         14.4310   -3.3460   13.6840 O.2   122  SER122     -0.2717
     76  CB        16.8060   -4.8290   13.2850 C.3   122  SER122      0.2103
     77  OG        15.8270   -5.8190   13.0330 O.3   122  SER122     -0.2182
     78  N         14.6090   -2.3120   11.6970 N.am  123  PHE123     -0.1961
     79  CA        13.3400   -1.6180   11.8580 C.3   123  PHE123      0.1771
     80  C         12.1320   -2.4750   11.5060 C.2   123  PHE123      0.2619
     81  O         11.0240   -2.1700   11.9620 O.2   123  PHE123     -0.2715
     82  CB        13.3210   -0.3310   11.0200 C.3   123  PHE123      0.0574
     83  CG        13.1580   -0.5620    9.5460 C.ar  123  PHE123     -0.0200
     84  CD1       14.2560   -0.8370    8.7520 C.ar  123  PHE123     -0.0042
     85  CD2       11.9080   -0.4880    8.9510 C.ar  123  PHE123     -0.0042
     86  CE1       14.1100   -1.0500    7.3920 C.ar  123  PHE123     -0.0003
     87  CE2       11.7540   -0.6980    7.5910 C.ar  123  PHE123     -0.0003
     88  CZ        12.8580   -0.9750    6.8110 C.ar  123  PHE123     -0.0000
     89  N         12.3060   -3.5390   10.7270 N.am  124  MET124     -0.1963
     90  CA        11.1660   -4.3700   10.3640 C.3   124  MET124      0.1736
     91  C         11.6100   -5.8160   10.2160 C.2   124  MET124      0.2616
     92  O         12.6670   -6.0970    9.6450 O.2   124  MET124     -0.2715
     93  CB        10.5030   -3.8740    9.0730 C.3   124  MET124      0.0427
     94  CG         8.9900   -4.0490    9.0510 C.3   124  MET124      0.0599
     95  SD         8.1470   -2.9180    7.9240 S.3   124  MET124     -0.1393
     96  CE         8.3980   -1.3460    8.7440 C.3   124  MET124      0.0692
     97  N         10.7940   -6.7260   10.7410 N.am  125  MET125     -0.1977
     98  CA        11.0520   -8.1560   10.6780 C.3   125  MET125      0.1605
     99  C          9.7180   -8.8720   10.5460 C.2   125  MET125      0.2287
    100  O          8.8040   -8.6290   11.3380 O.2   125  MET125     -0.2864
    101  CB        11.8090   -8.6320   11.9250 C.3   125  MET125      0.0413
    102  CG        12.3040  -10.0620   11.8620 C.3   125  MET125      0.0598
    103  SD        13.4610  -10.4560   13.1910 S.3   125  MET125     -0.1393
    104  CE        14.8730   -9.4470   12.7460 C.3   125  MET125      0.0692
    105  N         17.4180  -13.4680   13.8360 N.3   144  GLU144     -0.1245
    106  CA        18.2090  -12.8150   14.8730 C.3   144  GLU144      0.1567
    107  C         19.6760  -13.2050   14.7640 C.2   144  GLU144      0.2260
    108  O         20.5660  -12.3620   14.9240 O.2   144  GLU144     -0.2867
    109  CB        17.6680  -13.1760   16.2530 C.3   144  GLU144      0.0388
    110  CG        18.3830  -12.4620   17.3820 C.3   144  GLU144      0.1160
    111  CD        18.3120  -10.9520   17.2450 C.2   144  GLU144      0.3649
    112  OE1       19.3810  -10.3090   17.2290 O.co2 144  GLU144     -0.2457
    113  OE2       17.1880  -10.4110   17.1450 O.co2 144  GLU144     -0.2457
    114  N         16.5960   -1.5640   17.7140 N.3   161  THR161     -0.1203
    115  CA        15.2600   -1.8930   17.2420 C.3   161  THR161      0.1994
    116  C         14.2410   -1.5780   18.3240 C.2   161  THR161      0.2619
    117  O         14.5610   -1.5680   19.5160 O.2   161  THR161     -0.2717
    118  CB        15.1500   -3.3690   16.8370 C.3   161  THR161      0.1784
    119  OG1       13.8260   -3.6300   16.3660 O.3   161  THR161     -0.2211
    120  CG2       15.4420   -4.2790   18.0230 C.3   161  THR161      0.0376
    121  N         13.0130   -1.3180   17.8890 N.am  162  THR162     -0.1938
    122  CA        11.8660   -1.1830   18.7760 C.3   162  THR162      0.2028
    123  C         10.9650   -2.3890   18.5630 C.2   162  THR162      0.2642
    124  O         10.4660   -2.6070   17.4530 O.2   162  THR162     -0.2714
    125  CB        11.1080    0.1150   18.5080 C.3   162  THR162      0.1808
    126  OG1       11.9690    1.2200   18.7860 O.3   162  THR162     -0.2208
    127  CG2        9.8820    0.2140   19.3970 C.3   162  THR162      0.0379
    128  N         10.7700   -3.1740   19.6150 N.am  163  ASN163     -0.1957
    129  CA         9.9920   -4.4020   19.5380 C.3   163  ASN163      0.1819
    130  C          8.5940   -4.1420   20.0790 C.2   163  ASN163      0.2621
    131  O          8.4340   -3.7060   21.2250 O.2   163  ASN163     -0.2715
    132  CB        10.6900   -5.5260   20.2980 C.3   163  ASN163      0.1195
    133  CG        11.9010   -6.0450   19.5560 C.2   163  ASN163      0.2630
    134  OD1       11.8250   -6.3400   18.3670 O.2   163  ASN163     -0.2716
    135  ND2       13.0300   -6.1330   20.2430 N.am  163  ASN163     -0.0877
    136  N          7.5880   -4.4060   19.2480 N.am  164  THR164     -0.1951
    137  CA         6.2150   -4.0290   19.5380 C.3   164  THR164      0.1897
    138  C          5.2970   -5.2120   19.8000 C.2   164  THR164      0.2313
    139  O          4.1340   -5.0000   20.1600 O.2   164  THR164     -0.2863
    140  CB         5.6490   -3.1940   18.3820 C.3   164  THR164      0.1794
    141  OG1        5.9030   -3.8690   17.1440 O.3   164  THR164     -0.2208
    142  CG2        6.3090   -1.8220   18.3500 C.3   164  THR164      0.0378
    143  N          8.6010  -10.7770   19.9340 N.3   168  THR168     -0.1218
    144  CA         9.8740  -10.1640   19.5710 C.3   168  THR168      0.1862
    145  C         10.5370   -9.5050   20.7730 C.2   168  THR168      0.2287
    146  O         11.7690   -9.4680   20.8560 O.2   168  THR168     -0.2866
    147  CB         9.6780   -9.1510   18.4410 C.3   168  THR168      0.1770
    148  OG1        8.7510   -8.1350   18.8490 O.3   168  THR168     -0.2211
    149  CG2        9.1490   -9.8430   17.1930 C.3   168  THR168      0.0375
@<TRIPOS>BOND
     1    37    36    2
     2    36    35    1
     3    34    35    1
     4    35    38    1
     5    38    39    1
     6    39    40   ar
     7    39    41   ar
     8    40    42   ar
     9    88    86   ar
    10    88    87   ar
    11    41    43   ar
    12    86    84   ar
    13    87    85   ar
    14    95    96    1
    15    95    94    1
    16    42    44   ar
    17    43    44   ar
    18    84    83   ar
    19    85    83   ar
    20    44    45    1
    21    94    93    1
    22    93    90    1
    23    62    63   ar
    24    62    60   ar
    25    63    61   ar
    26    83    82    1
    27    92    91    2
    28     1     2    1
    29     8    10   ar
    30     8     6   ar
    31    60    58   ar
    32     3     4    2
    33     3     2    1
    34    61    59   ar
    35     5     2    1
    36     5     6    1
    37    91    90    1
    38    91    97   am
    39    10    11   ar
    40    90    89    1
    41     6     7   ar
    42    58    59   ar
    43    58    57    1
    44    99    98    1
    45    99   100    2
    46    98    97    1
    47    98   101    1
    48    89    80   am
    49    82    79    1
    50    57    54    1
    51    80    79    1
    52    80    81    2
    53    11     9   ar
    54    78    79    1
    55    78    74   am
    56     7     9   ar
    57   102   101    1
    58   102   103    1
    59    30    31    1
    60    30    29    1
    61    32    31   ar
    62    73    74    1
    63    73    72    1
    64    73    76    1
    65    31    33   ar
    66    29    26    1
    67    74    75    2
    68    54    53    1
    69    54    55    1
    70   104   103    1
    71    53    48   am
    72    77    76    1
    73    50    51    1
    74    50    52    1
    75    50    47    1
    76    16    13    1
    77    55    56    2
    78    46    47    1
    79    12    13    1
    80    28    27    2
    81   105   106    1
    82    26    27    1
    83    26    25    1
    84    48    47    1
    85    48    49    2
    86    13    14    1
    87    70    69    1
    88   107   106    1
    89   107   108    2
    90   106   109    1
    91    25    19   am
    92    69    68    1
    93    69    71    1
    94    14    15    2
    95    68    65    1
    96    19    20    2
    97    19    18    1
    98   109   110    1
    99   119   118    1
   100    21    18    1
   101    21    22    1
   102   118   115    1
   103   118   120    1
   104    64    65    1
   105    65    66    1
   106    66    67    2
   107   141   140    1
   108   113   111   ar
   109    18    17    1
   110   149   147    1
   111   112   111   ar
   112   115   114    1
   113   115   116    1
   114   111   110    1
   115    23    22    1
   116   124   123    2
   117    22    24    1
   118   121   116   am
   119   121   122    1
   120   116   117    2
   121   142   140    1
   122   134   133    2
   123   140   137    1
   124   147   148    1
   125   147   144    1
   126   125   122    1
   127   125   126    1
   128   125   127    1
   129   123   122    1
   130   123   128   am
   131   136   137    1
   132   136   130   am
   133   129   128    1
   134   129   130    1
   135   129   132    1
   136   137   138    1
   137   133   135   am
   138   133   132    1
   139   144   143    1
   140   144   145    1
   141   138   139    2
   142   130   131    2
   143   145   146    2
