@<TRIPOS>MOLECULE
tmp/6dysA00.pdb
 156 151 0 0 0
SMALL
GASTEIGER

@<TRIPOS>ATOM
      1  N        -10.5740   -7.9830  -13.5760 N.3    25  PHE25      -0.1241
      2  CA       -10.9900   -6.7710  -12.8780 C.3    25  PHE25       0.1605
      3  C        -12.4760   -6.4790  -12.9790 C.2    25  PHE25       0.2264
      4  O        -13.0850   -6.0930  -11.9790 O.2    25  PHE25      -0.2867
      5  CB       -10.2070   -5.5630  -13.3990 C.3    25  PHE25       0.0534
      6  CG        -8.8330   -5.4440  -12.8120 C.ar   25  PHE25      -0.0203
      7  CD1       -7.8250   -6.3080  -13.2060 C.ar   25  PHE25      -0.0042
      8  CD2       -8.5530   -4.4840  -11.8510 C.ar   25  PHE25      -0.0042
      9  CE1       -6.5590   -6.2110  -12.6650 C.ar   25  PHE25      -0.0003
     10  CE2       -7.2870   -4.3850  -11.3050 C.ar   25  PHE25      -0.0003
     11  CZ        -6.2890   -5.2500  -11.7140 C.ar   25  PHE25      -0.0000
     12  N        -13.0880   -6.5230   -9.1510 N.3    29  ALA29      -0.1231
     13  CA       -12.2010   -5.6230   -8.4280 C.3    29  ALA29       0.1694
     14  C        -12.8960   -5.0550   -7.1970 C.2    29  ALA29       0.2592
     15  O        -14.0460   -4.6120   -7.2650 O.2    29  ALA29      -0.2718
     16  CB       -11.7340   -4.5000   -9.3470 C.3    29  ALA29       0.0304
     17  N        -12.1790   -5.0650   -6.0680 N.am   30  ASP30      -0.1960
     18  CA       -12.7840   -4.7060   -4.7880 C.3    30  ASP30       0.1840
     19  C        -13.1060   -3.2180   -4.6980 C.2    30  ASP30       0.2622
     20  O        -14.0000   -2.8280   -3.9400 O.2    30  ASP30      -0.2715
     21  CB       -11.8610   -5.1130   -3.6330 C.3    30  ASP30       0.1450
     22  CG       -11.5560   -6.6060   -3.6160 C.2    30  ASP30       0.3671
     23  OD1      -10.7960   -7.0770   -4.4920 O.co2  30  ASP30      -0.2456
     24  OD2      -12.0610   -7.3050   -2.7170 O.co2  30  ASP30      -0.2456
     25  N        -12.3870   -2.3720   -5.4330 N.am   31  LEU31      -0.1963
     26  CA       -12.6380   -0.9350   -5.3460 C.3    31  LEU31       0.1728
     27  C        -13.7780   -0.5130   -6.2660 C.2    31  LEU31       0.2616
     28  O        -14.7170    0.1580   -5.8290 O.2    31  LEU31      -0.2715
     29  CB       -11.3680   -0.1520   -5.6830 C.3    31  LEU31       0.0311
     30  CG       -10.2380   -0.1280   -4.6510 C.3    31  LEU31       0.0022
     31  CD1       -9.0110    0.5440   -5.2470 C.3    31  LEU31       0.0001
     32  CD2      -10.6670    0.5860   -3.3680 C.3    31  LEU31       0.0001
     33  N        -13.7120   -0.9070   -7.5440 N.am   32  GLU32      -0.1977
     34  CA       -14.7290   -0.5290   -8.5240 C.3    32  GLU32       0.1602
     35  C        -16.1210   -1.0160   -8.1640 C.2    32  GLU32       0.2287
     36  O        -17.1010   -0.4240   -8.6280 O.2    32  GLU32      -0.2864
     37  CB       -14.3960   -1.0860   -9.9090 C.3    32  GLU32       0.0415
     38  CG       -13.1860   -0.5010  -10.5560 C.3    32  GLU32       0.1163
     39  CD       -11.9410   -1.2850  -10.2490 C.2    32  GLU32       0.3649
     40  OE1      -11.4900   -1.2510   -9.0840 O.co2  32  GLU32      -0.2457
     41  OE2      -11.4200   -1.9490  -11.1720 O.co2  32  GLU32      -0.2457
     42  N        -11.4350   -0.7170  -18.9480 N.3    44  TYR44      -0.1241
     43  CA       -10.1260   -1.3380  -18.7740 C.3    44  TYR44       0.1605
     44  C         -9.3750   -1.4410  -20.0990 C.2    44  TYR44       0.2264
     45  O         -8.1890   -1.0940  -20.1770 O.2    44  TYR44      -0.2867
     46  CB       -10.2810   -2.7170  -18.1310 C.3    44  TYR44       0.0534
     47  CG       -10.9840   -2.6970  -16.7900 C.ar   44  TYR44      -0.0201
     48  CD1      -10.3110   -2.3070  -15.6370 C.ar   44  TYR44      -0.0009
     49  CD2      -12.3190   -3.0690  -16.6750 C.ar   44  TYR44      -0.0009
     50  CE1      -10.9490   -2.2830  -14.4090 C.ar   44  TYR44       0.0417
     51  CE2      -12.9650   -3.0510  -15.4460 C.ar   44  TYR44       0.0417
     52  CZ       -12.2710   -2.6550  -14.3190 C.ar   44  TYR44       0.1957
     53  OH       -12.8960   -2.6360  -13.0970 O.3    44  TYR44      -0.2866
     54  N        -13.1570    4.9090  -13.4430 N.3    93  LEU93      -0.1245
     55  CA       -11.8550    4.3830  -13.0430 C.3    93  LEU93       0.1561
     56  C        -10.8750    5.4870  -12.6670 C.2    93  LEU93       0.2260
     57  O         -9.9020    5.2140  -11.9550 O.2    93  LEU93      -0.2867
     58  CB       -11.2450    3.5350  -14.1610 C.3    93  LEU93       0.0270
     59  CG       -11.8890    2.1820  -14.4750 C.3    93  LEU93       0.0019
     60  CD1      -11.0100    1.3690  -15.4170 C.3    93  LEU93       0.0001
     61  CD2      -12.1510    1.4190  -13.2080 C.3    93  LEU93       0.0001
     62  N        -10.5680    5.4500   -9.0850 N.3    96  VAL96      -0.1231
     63  CA        -9.6810    4.3870   -8.6150 C.3    96  VAL96       0.1692
     64  C         -8.2250    4.8220   -8.7290 C.2    96  VAL96       0.2592
     65  O         -7.4360    4.6710   -7.7870 O.2    96  VAL96      -0.2718
     66  CB        -9.9420    3.0800   -9.3890 C.3    96  VAL96       0.0266
     67  CG1       -8.8700    2.0570   -9.0790 C.3    96  VAL96       0.0020
     68  CG2      -11.3140    2.5020   -9.0300 C.3    96  VAL96       0.0020
     69  N         -7.8470    5.3900   -9.8780 N.am   97  PHE97      -0.1976
     70  CA        -6.4480    5.7570  -10.0600 C.3    97  PHE97       0.1639
     71  C         -6.0650    6.9700   -9.2190 C.2    97  PHE97       0.2290
     72  O         -4.9320    7.0470   -8.7310 O.2    97  PHE97      -0.2864
     73  CB        -6.1570    5.9850  -11.5400 C.3    97  PHE97       0.0560
     74  CG        -6.0220    4.7060  -12.3190 C.ar   97  PHE97      -0.0200
     75  CD1       -4.8090    4.0420  -12.3770 C.ar   97  PHE97      -0.0042
     76  CD2       -7.1170    4.1460  -12.9620 C.ar   97  PHE97      -0.0042
     77  CE1       -4.6830    2.8530  -13.0820 C.ar   97  PHE97      -0.0003
     78  CE2       -6.9990    2.9570  -13.6710 C.ar   97  PHE97      -0.0003
     79  CZ        -5.7780    2.3120  -13.7340 C.ar   97  PHE97      -0.0000
     80  N         -5.4810    5.4820   -5.8690 N.3   100  LEU100     -0.1245
     81  CA        -4.2000    4.7850   -5.8230 C.3   100  LEU100      0.1561
     82  C         -3.0440    5.7740   -5.7310 C.2   100  LEU100      0.2260
     83  O         -2.0650    5.5260   -5.0170 O.2   100  LEU100     -0.2867
     84  CB        -4.0470    3.8770   -7.0440 C.3   100  LEU100      0.0270
     85  CG        -5.0400    2.7090   -7.1200 C.3   100  LEU100      0.0019
     86  CD1       -4.9230    1.9600   -8.4460 C.3   100  LEU100      0.0001
     87  CD2       -4.8450    1.7520   -5.9570 C.3   100  LEU100      0.0001
     88  N          4.6750   -2.4310  -10.0260 N.3   122  SER122     -0.1202
     89  CA         3.7920   -3.5220  -10.4310 C.3   122  SER122      0.2020
     90  C          2.3680   -2.9940  -10.3110 C.2   122  SER122      0.2619
     91  O          1.7740   -3.0200   -9.2300 O.2   122  SER122     -0.2717
     92  CB         4.0250   -4.7580   -9.5710 C.3   122  SER122      0.2103
     93  OG         3.0520   -5.7600   -9.8320 O.3   122  SER122     -0.2182
     94  N          1.8170   -2.4900  -11.4160 N.am  123  PHE123     -0.1961
     95  CA         0.5600   -1.7590  -11.3320 C.3   123  PHE123      0.1771
     96  C         -0.6590   -2.5780  -11.7340 C.2   123  PHE123      0.2619
     97  O         -1.7740   -2.2360  -11.3270 O.2   123  PHE123     -0.2715
     98  CB         0.6310   -0.4720  -12.1710 C.3   123  PHE123      0.0574
     99  CG         0.5850   -0.6900  -13.6600 C.ar  123  PHE123     -0.0200
    100  CD1       -0.6050   -0.5560  -14.3550 C.ar  123  PHE123     -0.0042
    101  CD2        1.7400   -0.9820  -14.3710 C.ar  123  PHE123     -0.0042
    102  CE1       -0.6550   -0.7370  -15.7240 C.ar  123  PHE123     -0.0003
    103  CE2        1.7010   -1.1600  -15.7450 C.ar  123  PHE123     -0.0003
    104  CZ         0.4980   -1.0350  -16.4220 C.ar  123  PHE123     -0.0000
    105  N         -0.4850   -3.6490  -12.4980 N.am  124  MET124     -0.1963
    106  CA        -1.6070   -4.5040  -12.8490 C.3   124  MET124      0.1736
    107  C         -1.1170   -5.9330  -12.9730 C.2   124  MET124      0.2616
    108  O         -0.0240   -6.1870  -13.4880 O.2   124  MET124     -0.2715
    109  CB        -2.2870   -4.0660  -14.1520 C.3   124  MET124      0.0427
    110  CG        -3.2820   -2.9280  -13.9580 C.3   124  MET124      0.0599
    111  SD        -4.6840   -2.9770  -15.0790 S.3   124  MET124     -0.1393
    112  CE        -4.2730   -1.6300  -16.1790 C.3   124  MET124      0.0692
    113  N         -1.9350   -6.8540  -12.4820 N.am  125  MET125     -0.1977
    114  CA        -1.6740   -8.2760  -12.5640 C.3   125  MET125      0.1605
    115  C         -3.0110   -8.9620  -12.7880 C.2   125  MET125      0.2287
    116  O         -4.0320   -8.5270  -12.2510 O.2   125  MET125     -0.2864
    117  CB        -0.9890   -8.7850  -11.2900 C.3   125  MET125      0.0413
    118  CG        -0.0850   -9.9810  -11.4880 C.3   125  MET125      0.0598
    119  SD         0.8360  -10.3910   -9.9870 S.3   125  MET125     -0.1393
    120  CE         2.4400   -9.6790  -10.3440 C.3   125  MET125      0.0692
    121  N          3.9400   -1.5770   -5.2320 N.3   161  THR161     -0.1203
    122  CA         2.6060   -1.9410   -5.6870 C.3   161  THR161      0.1994
    123  C          1.5960   -1.5990   -4.6000 C.2   161  THR161      0.2619
    124  O          1.9370   -1.5300   -3.4150 O.2   161  THR161     -0.2717
    125  CB         2.5310   -3.4350   -6.0580 C.3   161  THR161      0.1784
    126  OG1        1.3150   -3.7030   -6.7690 O.3   161  THR161     -0.2211
    127  CG2        2.5880   -4.3150   -4.8200 C.3   161  THR161      0.0376
    128  N          0.3560   -1.3620   -5.0210 N.am  162  THR162     -0.1938
    129  CA        -0.7780   -1.2320   -4.1120 C.3   162  THR162      0.2028
    130  C         -1.6890   -2.4310   -4.3160 C.2   162  THR162      0.2642
    131  O         -2.2240   -2.6300   -5.4110 O.2   162  THR162     -0.2714
    132  CB        -1.5480    0.0660   -4.3480 C.3   162  THR162      0.1808
    133  OG1       -0.6430    1.1610   -4.2620 O.3   162  THR162     -0.2208
    134  CG2       -2.6240    0.2490   -3.2920 C.3   162  THR162      0.0379
    135  N         -1.8530   -3.2320   -3.2740 N.am  163  ASN163     -0.1957
    136  CA        -2.6850   -4.4190   -3.3480 C.3   163  ASN163      0.1819
    137  C         -4.0450   -4.0950   -2.7520 C.2   163  ASN163      0.2621
    138  O         -4.1330   -3.5850   -1.6290 O.2   163  ASN163     -0.2715
    139  CB        -2.0260   -5.5980   -2.6300 C.3   163  ASN163      0.1195
    140  CG        -0.8110   -6.1210   -3.3820 C.2   163  ASN163      0.2630
    141  OD1       -0.8760   -6.3720   -4.5810 O.2   163  ASN163     -0.2716
    142  ND2        0.3010   -6.2790   -2.6820 N.am  163  ASN163     -0.0877
    143  N         -5.0980   -4.3750   -3.5200 N.am  164  THR164     -0.1951
    144  CA        -6.4460   -3.9660   -3.1730 C.3   164  THR164      0.1897
    145  C         -7.3920   -5.1340   -2.9420 C.2   164  THR164      0.2313
    146  O         -8.5710   -4.9000   -2.6540 O.2   164  THR164     -0.2863
    147  CB        -7.0180   -3.0530   -4.2670 C.3   164  THR164      0.1794
    148  OG1       -6.9690   -3.7320   -5.5260 O.3   164  THR164     -0.2208
    149  CG2       -6.2100   -1.7690   -4.3610 C.3   164  THR164      0.0378
    150  N         -4.0820  -10.7260   -2.9360 N.3   168  THR168     -0.1218
    151  CA        -2.8260  -10.0870   -3.3130 C.3   168  THR168      0.1862
    152  C         -2.1620   -9.4290   -2.1110 C.2   168  THR168      0.2287
    153  O         -0.9310   -9.4270   -1.9980 O.2   168  THR168     -0.2866
    154  CB        -3.0590   -9.0700   -4.4330 C.3   168  THR168      0.1770
    155  OG1       -4.0930   -8.1500   -4.0510 O.3   168  THR168     -0.2211
    156  CG2       -3.4620   -9.7870   -5.7240 C.3   168  THR168      0.0375
@<TRIPOS>BOND
     1    45    44    2
     2    44    43    1
     3    42    43    1
     4    43    46    1
     5    46    47    1
     6    47    49   ar
     7    47    48   ar
     8    49    51   ar
     9   104   103   ar
    10   104   102   ar
    11   112   111    1
    12   103   101   ar
    13   102   100   ar
    14    48    50   ar
    15    51    52   ar
    16    60    59    1
    17   111   110    1
    18    59    58    1
    19    59    61    1
    20    50    52   ar
    21   101    99   ar
    22   100    99   ar
    23    52    53    1
    24    58    55    1
    25   109   110    1
    26   109   106    1
    27    79    78   ar
    28    79    77   ar
    29    78    76   ar
    30    99    98    1
    31     1     2    1
    32   108   107    2
    33    54    55    1
    34     5     2    1
    35     5     6    1
    36     7     6   ar
    37     7     9   ar
    38    77    75   ar
    39    55    56    1
    40     3     2    1
    41     3     4    2
    42   107   106    1
    43   107   113   am
    44    76    74   ar
    45   106   105    1
    46     6     8   ar
    47   115   114    1
    48   115   116    2
    49    56    57    2
    50     9    11   ar
    51   114   113    1
    52   114   117    1
    53   105    96   am
    54    75    74   ar
    55    74    73    1
    56    98    95    1
    57     8    10   ar
    58    96    95    1
    59    96    97    2
    60    11    10   ar
    61    73    70    1
    62   118   117    1
    63   118   119    1
    64    94    95    1
    65    94    90   am
    66    41    39   ar
    67    38    39    1
    68    38    37    1
    69    89    90    1
    70    89    88    1
    71    89    92    1
    72   120   119    1
    73    90    91    2
    74    39    40   ar
    75    70    69    1
    76    70    71    1
    77    37    34    1
    78    69    64   am
    79    93    92    1
    80    66    67    1
    81    66    68    1
    82    66    63    1
    83    16    13    1
    84    71    72    2
    85    12    13    1
    86    62    63    1
    87    64    63    1
    88    64    65    2
    89    36    35    2
    90    34    35    1
    91    34    33    1
    92    86    85    1
    93    13    14    1
    94    33    27   am
    95    15    14    2
    96    14    17   am
    97    85    84    1
    98    85    87    1
    99    84    81    1
   100   126   125    1
   101    27    28    2
   102    27    26    1
   103    17    18    1
   104   125   122    1
   105   125   127    1
   106    80    81    1
   107    81    82    1
   108    82    83    2
   109   156   154    1
   110   122   121    1
   111   122   123    1
   112    29    26    1
   113    29    30    1
   114   148   147    1
   115    25    26    1
   116    25    19   am
   117   131   130    2
   118    31    30    1
   119   128   123   am
   120   128   129    1
   121    18    19    1
   122    18    21    1
   123    19    20    2
   124    30    32    1
   125   123   124    2
   126   141   140    2
   127    23    22   ar
   128   154   155    1
   129   154   151    1
   130   149   147    1
   131   132   133    1
   132   132   129    1
   133   132   134    1
   134   130   129    1
   135   130   135   am
   136   147   144    1
   137    21    22    1
   138    22    24   ar
   139   143   144    1
   140   143   137   am
   141   140   142   am
   142   140   139    1
   143   136   135    1
   144   136   137    1
   145   136   139    1
   146   151   150    1
   147   151   152    1
   148   144   145    1
   149   145   146    2
   150   137   138    2
   151   152   153    2
