@<TRIPOS>MOLECULE
tmp/6dznA01.pdb
 78 73 0 0 0
SMALL
GASTEIGER

@<TRIPOS>ATOM
      1  N        -10.3150  -31.9850    3.7000 N.3   149  VAL149     -0.1245
      2  CA        -9.9100  -31.9890    5.0720 C.3   149  VAL149      0.1561
      3  C        -10.4660  -33.2660    5.6880 C.2   149  VAL149      0.2260
      4  O        -11.6420  -33.4060    5.8130 O.2   149  VAL149     -0.2867
      5  CB       -10.5150  -30.7760    5.7370 C.3   149  VAL149      0.0252
      6  CG1      -10.3490  -30.8230    7.1990 C.3   149  VAL149      0.0019
      7  CG2       -9.9840  -29.4920    5.1660 C.3   149  VAL149      0.0019
      8  N        -12.7690  -34.8770    3.3630 N.3   152  ALA152     -0.1231
      9  CA       -14.0670  -34.2310    3.1870 C.3   152  ALA152      0.1694
     10  C        -13.8930  -33.0760    2.1940 C.2   152  ALA152      0.2592
     11  O        -13.1890  -32.1090    2.4860 O.2   152  ALA152     -0.2718
     12  CB       -14.5800  -33.6990    4.5180 C.3   152  ALA152      0.0304
     13  N        -14.5250  -33.1760    1.0270 N.am  153  LEU153     -0.1966
     14  CA       -14.4510  -32.1210    0.0230 C.3   153  LEU153      0.1728
     15  C        -14.9440  -30.8020    0.6150 C.2   153  LEU153      0.2616
     16  O        -15.9860  -30.7670    1.2860 O.2   153  LEU153     -0.2715
     17  CB       -15.2760  -32.4720   -1.2300 C.3   153  LEU153      0.0311
     18  CG       -15.1210  -31.5010   -2.4190 C.3   153  LEU153      0.0022
     19  CD1      -13.6890  -31.5560   -3.0080 C.3   153  LEU153      0.0001
     20  CD2      -16.1500  -31.8060   -3.5130 C.3   153  LEU153      0.0001
     21  N        -14.1660  -29.7310    0.3940 N.am  154  GLN154     -0.1963
     22  CA       -14.4850  -28.4060    0.8940 C.3   154  GLN154      0.1733
     23  C        -15.1020  -27.5900   -0.2260 C.2   154  GLN154      0.2617
     24  O        -14.7840  -27.7960   -1.3970 O.2   154  GLN154     -0.2715
     25  CB       -13.2180  -27.7220    1.4050 C.3   154  GLN154      0.0408
     26  CG       -12.5520  -28.4380    2.5630 C.3   154  GLN154      0.0908
     27  CD       -13.4190  -28.4650    3.8020 C.2   154  GLN154      0.2608
     28  OE1      -13.7400  -27.4180    4.3820 O.2   154  GLN154     -0.2717
     29  NE2      -13.8140  -29.6550    4.2530 N.am  154  GLN154     -0.0878
     30  N        -15.9990  -26.6750    0.1320 N.am  155  SER155     -0.1950
     31  CA       -16.6650  -25.8200   -0.8540 C.3   155  SER155      0.1924
     32  C        -16.9760  -24.4300   -0.2830 C.2   155  SER155      0.2314
     33  O        -17.6240  -24.3160    0.7490 O.2   155  SER155     -0.2863
     34  CB       -17.9320  -26.5010   -1.3690 C.3   155  SER155      0.2116
     35  OG       -18.4910  -25.7860   -2.4610 O.3   155  SER155     -0.2180
     36  N        -14.9330  -22.0550    1.0640 N.3   157  ASN157     -0.1240
     37  CA       -14.0530  -21.5190    2.1500 C.3   157  ASN157      0.1653
     38  C        -12.6300  -21.2420    1.6400 C.2   157  ASN157      0.2266
     39  O        -11.7040  -21.0710    2.4270 O.2   157  ASN157     -0.2867
     40  CB       -14.0310  -22.4650    3.3720 C.3   157  ASN157      0.1155
     41  CG       -13.9290  -23.9240    3.0230 C.2   157  ASN157      0.2627
     42  OD1      -13.8510  -24.3020    1.8540 O.2   157  ASN157     -0.2716
     43  ND2      -13.9780  -24.7760    4.0240 N.am  157  ASN157     -0.0877
     44  N         -9.8320  -20.7840    7.6160 N.3   180  LEU180     -0.1245
     45  CA       -10.6610  -21.3090    8.6910 C.3   180  LEU180      0.1561
     46  C        -10.3220  -20.4880    9.9120 C.2   180  LEU180      0.2260
     47  O         -9.3100  -19.7820    9.9380 O.2   180  LEU180     -0.2867
     48  CB       -10.3000  -22.8070    8.9990 C.3   180  LEU180      0.0270
     49  CG       -10.0680  -23.7450    7.8180 C.3   180  LEU180      0.0019
     50  CD1       -9.5590  -25.0720    8.2920 C.3   180  LEU180      0.0001
     51  CD2      -11.3600  -23.9740    6.9900 C.3   180  LEU180      0.0001
     52  N        -11.4560  -23.9800   14.5090 N.3   184  ASP184     -0.1239
     53  CA       -11.8990  -25.0130   13.5620 C.3   184  ASP184      0.1674
     54  C        -10.7250  -25.7480   12.9660 C.2   184  ASP184      0.2266
     55  O        -10.8300  -26.9350   12.7310 O.2   184  ASP184     -0.2867
     56  CB       -12.7700  -24.4320   12.4280 C.3   184  ASP184      0.1410
     57  CG       -14.1850  -24.0900   12.8370 C.2   184  ASP184      0.3668
     58  OD1      -14.6210  -24.5440   13.9320 O.co2 184  ASP184     -0.2456
     59  OD2      -14.8820  -23.4090   12.0450 O.co2 184  ASP184     -0.2456
     60  N         -9.6120  -28.7490   14.9300 N.3   187  LYS187     -0.1231
     61  CA       -10.5180  -29.8980   14.9890 C.3   187  LYS187      0.1693
     62  C        -10.2080  -30.9700   13.9210 C.2   187  LYS187      0.2592
     63  O        -10.7960  -32.0420   14.0010 O.2   187  LYS187     -0.2718
     64  CB       -11.9870  -29.4490   14.8450 C.3   187  LYS187      0.0285
     65  CG       -12.4270  -28.4490   15.8920 C.3   187  LYS187      0.0035
     66  CD       -13.9390  -28.3230   15.9970 C.3   187  LYS187      0.0206
     67  CE       -14.6370  -28.0570   14.6860 C.3   187  LYS187      0.1093
     68  NZ       -15.8880  -27.2690   14.8760 N.3   187  LYS187     -0.1314
     69  N         -9.3180  -30.6920   12.9250 N.am  188  HIS188     -0.1976
     70  CA        -8.9920  -31.6420   11.8530 C.3   188  HIS188      0.1656
     71  C         -7.5280  -31.9200   11.7740 C.2   188  HIS188      0.2291
     72  O         -6.7270  -31.1000   12.2180 O.2   188  HIS188     -0.2864
     73  CB        -9.4680  -31.1050   10.5050 C.3   188  HIS188      0.0771
     74  CG       -10.8630  -30.5780   10.5600 C.ar  188  HIS188      0.0820
     75  ND1      -11.9580  -31.4130   10.4390 N.ar  188  HIS188     -0.2267
     76  CD2      -11.2930  -29.3130   10.7610 C.ar  188  HIS188      0.1154
     77  CE1      -13.0150  -30.6290   10.5610 C.ar  188  HIS188      0.1986
     78  NE2      -12.6590  -29.3590   10.7820 N.ar  188  HIS188     -0.2212
@<TRIPOS>BOND
     1    20    18    1
     2    19    18    1
     3    35    34    1
     4    18    17    1
     5    24    23    2
     6    34    31    1
     7    17    14    1
     8    31    32    1
     9    31    30    1
    10    32    33    2
    11    23    30   am
    12    23    22    1
    13    14    15    1
    14    14    13    1
    15    21    15   am
    16    21    22    1
    17    15    16    2
    18    22    25    1
    19    13    10   am
    20    36    37    1
    21    25    26    1
    22    38    37    1
    23    38    39    2
    24    42    41    2
    25    37    40    1
    26    10    11    2
    27    10     9    1
    28    26    27    1
    29    41    40    1
    30    41    43   am
    31     9     8    1
    32     9    12    1
    33     1     2    1
    34    27    29   am
    35    27    28    2
    36     2     3    1
    37     2     5    1
    38     7     5    1
    39     3     4    2
    40     5     6    1
    41    51    49    1
    42    44    45    1
    43    49    50    1
    44    49    48    1
    45    45    48    1
    46    45    46    1
    47    46    47    2
    48    75    74   ar
    49    75    77   ar
    50    73    74    1
    51    73    70    1
    52    74    76   ar
    53    77    78   ar
    54    76    78   ar
    55    71    70    1
    56    71    72    2
    57    70    69    1
    58    59    57   ar
    59    56    57    1
    60    56    53    1
    61    55    54    2
    62    57    58   ar
    63    69    62   am
    64    54    53    1
    65    53    52    1
    66    62    63    2
    67    62    61    1
    68    67    68    1
    69    67    66    1
    70    64    61    1
    71    64    65    1
    72    60    61    1
    73    65    66    1
