@<TRIPOS>MOLECULE
tmp/6dzqA00.pdb
 113 108 0 0 0
SMALL
GASTEIGER

@<TRIPOS>ATOM
      1  N        -26.5350   12.6320   11.4200 N.3    42  HIS42      -0.1241
      2  CA       -25.2440   13.0620   10.9320 C.3    42  HIS42       0.1621
      3  C        -24.3110   11.8530   10.7200 C.2    42  HIS42       0.2264
      4  O        -23.4820   11.8510    9.7810 O.2    42  HIS42      -0.2867
      5  CB       -24.6290   14.0800   11.8930 C.3    42  HIS42       0.0745
      6  CG       -23.2410   14.5030   11.5390 C.ar   42  HIS42       0.0817
      7  ND1      -22.1170   13.9330   12.1150 N.ar   42  HIS42      -0.2268
      8  CD2      -22.7810   15.4640   10.7130 C.ar   42  HIS42       0.1154
      9  CE1      -21.0280   14.5070   11.6290 C.ar   42  HIS42       0.1986
     10  NE2      -21.4090   15.4590   10.7830 N.ar   42  HIS42      -0.2212
     11  N        -15.2020   10.4040   11.3480 N.3    60  GLU60      -0.1245
     12  CA       -16.3240   10.4590   12.2490 C.3    60  GLU60       0.1567
     13  C        -16.7350    9.0230   12.5870 C.2    60  GLU60       0.2260
     14  O        -16.6510    8.1260   11.7300 O.2    60  GLU60      -0.2867
     15  CB       -17.4900   11.2200   11.6060 C.3    60  GLU60       0.0388
     16  CG       -18.6940   11.4100   12.5200 C.3    60  GLU60       0.1160
     17  CD       -18.4400   12.3220   13.7030 C.2    60  GLU60       0.3649
     18  OE1      -18.1680   11.7900   14.7900 O.co2  60  GLU60      -0.2457
     19  OE2      -18.5170   13.5600   13.5420 O.co2  60  GLU60      -0.2457
     20  N        -11.2320   17.4310   14.6480 N.3    86  LEU86      -0.1231
     21  CA       -11.4530   16.2480   13.8760 C.3    86  LEU86       0.1678
     22  C        -12.4880   16.5320   12.7960 C.2    86  LEU86       0.2434
     23  O        -13.6160   16.8710   13.1030 O.2    86  LEU86      -0.2733
     24  CB       -11.9370   15.1360   14.8030 C.3    86  LEU86       0.0284
     25  CG       -10.8410   14.4630   15.6260 C.3    86  LEU86       0.0019
     26  CD1      -11.4390   13.4140   16.5260 C.3    86  LEU86       0.0001
     27  CD2       -9.7650   13.8400   14.7520 C.3    86  LEU86       0.0001
     28  N        -12.1480   16.3920   11.4960 N.am   87  PRO87      -0.2718
     29  CA       -13.1380   16.4540   10.4320 C.3    87  PRO87       0.1535
     30  C        -13.8860   15.1160   10.3720 C.2    87  PRO87       0.2598
     31  O        -13.7130   14.2900   11.2450 O.2    87  PRO87      -0.2715
     32  CB       -12.3140   16.6890    9.1490 C.3    87  PRO87       0.0310
     33  CG       -10.8740   16.7930    9.5910 C.3    87  PRO87       0.0237
     34  CD       -10.7930   16.1680   10.9670 C.3    87  PRO87       0.0939
     35  N        -14.6930   14.9370    9.3210 N.am   88  ASP88      -0.1972
     36  CA       -15.6290   13.8430    9.2090 C.3    88  ASP88       0.1709
     37  C        -15.0500   12.7700    8.2680 C.2    88  ASP88       0.2293
     38  O        -15.1930   11.6110    8.5270 O.2    88  ASP88      -0.2864
     39  CB       -16.9880   14.3720    8.7530 C.3    88  ASP88       0.1436
     40  CG       -17.7780   15.0980    9.8330 C.2    88  ASP88       0.3671
     41  OD1      -17.7310   14.6470   10.9990 O.co2  88  ASP88      -0.2456
     42  OD2      -18.4910   16.0720    9.4910 O.co2  88  ASP88      -0.2456
     43  N        -15.4790   18.4320    6.0880 N.3    99  GLU99      -0.1231
     44  CA       -16.4250   18.5760    7.1770 C.3    99  GLU99       0.1699
     45  C        -17.8380   18.5010    6.5950 C.2    99  GLU99       0.2592
     46  O        -18.1700   19.2420    5.6880 O.2    99  GLU99      -0.2718
     47  CB       -16.2050   19.8970    7.9190 C.3    99  GLU99       0.0402
     48  CG       -17.2570   20.1700    8.9850 C.3    99  GLU99       0.1161
     49  CD       -17.3730   19.0680   10.0190 C.2    99  GLU99       0.3649
     50  OE1      -16.3150   18.5030   10.3850 O.co2  99  GLU99      -0.2457
     51  OE2      -18.5060   18.7830   10.4530 O.co2  99  GLU99      -0.2457
     52  N        -18.6560   17.6070    7.1570 N.am  100  ILE100     -0.1966
     53  CA       -20.0000   17.3960    6.7560 C.3   100  ILE100      0.1727
     54  C        -20.9380   18.0570    7.7730 C.2   100  ILE100      0.2617
     55  O        -20.9230   17.6810    8.9520 O.2   100  ILE100     -0.2715
     56  CB       -20.3270   15.8910    6.7150 C.3   100  ILE100      0.0290
     57  CG1      -19.5190   15.1120    5.6750 C.3   100  ILE100      0.0022
     58  CG2      -21.8270   15.7060    6.5550 C.3   100  ILE100      0.0023
     59  CD1      -19.8330   15.4730    4.2510 C.3   100  ILE100      0.0001
     60  N        -21.8460   18.9110    7.2830 N.am  101  GLY101     -0.1940
     61  CA       -22.8460   19.5370    8.1170 C.3   101  GLY101      0.2014
     62  C        -24.2170   19.0780    7.6980 C.2   101  GLY101      0.2638
     63  O        -24.4610   18.9630    6.5240 O.2   101  GLY101     -0.2714
     64  N        -25.0730   18.7700    8.6800 N.am  102  VAL102     -0.1977
     65  CA       -26.4700   18.4630    8.4720 C.3   102  VAL102      0.1596
     66  C        -27.2700   19.4060    9.3810 C.2   102  VAL102      0.2287
     67  O        -27.0550   19.3720   10.5970 O.2   102  VAL102     -0.2864
     68  CB       -26.7870   16.9900    8.8000 C.3   102  VAL102      0.0276
     69  CG1      -28.2760   16.6860    8.7070 C.3   102  VAL102      0.0022
     70  CG2      -26.0000   16.0130    7.9300 C.3   102  VAL102      0.0022
     71  N        -25.8770   27.7760    8.1350 N.3   110  TYR110     -0.1241
     72  CA       -25.0720   26.7550    8.7910 C.3   110  TYR110      0.1605
     73  C        -23.6670   26.7630    8.1800 C.2   110  TYR110      0.2264
     74  O        -22.6660   26.6680    8.8960 O.2   110  TYR110     -0.2867
     75  CB       -25.7410   25.3780    8.7260 C.3   110  TYR110      0.0534
     76  CG       -25.1190   24.3560    9.6420 C.ar  110  TYR110     -0.0201
     77  CD1      -24.8210   24.6610   10.9660 C.ar  110  TYR110     -0.0009
     78  CD2      -24.8470   23.0720    9.2010 C.ar  110  TYR110     -0.0009
     79  CE1      -24.2610   23.7240   11.8150 C.ar  110  TYR110      0.0417
     80  CE2      -24.2930   22.1160   10.0440 C.ar  110  TYR110      0.0417
     81  CZ       -24.0100   22.4380   11.3590 C.ar  110  TYR110      0.1957
     82  OH       -23.4590   21.4980   12.1790 O.3   110  TYR110     -0.2866
     83  N        -20.2480   27.0190   10.3820 N.3   114  LYS114     -0.1245
     84  CA       -19.1970   25.9820   10.2960 C.3   114  LYS114      0.1561
     85  C        -17.8980   26.5690    9.7610 C.2   114  LYS114      0.2260
     86  O        -16.8330   26.2400   10.2410 O.2   114  LYS114     -0.2867
     87  CB       -19.6010   24.8230    9.3760 C.3   114  LYS114      0.0271
     88  CG       -20.4980   23.7750   10.0320 C.3   114  LYS114      0.0035
     89  CD       -19.8730   22.3940   10.1920 C.3   114  LYS114      0.0206
     90  CE       -20.3740   21.6620   11.4120 C.3   114  LYS114      0.1093
     91  NZ       -19.2690   20.9280   12.0780 N.3   114  LYS114     -0.1314
     92  N        -16.2130   28.5000   12.4720 N.3   117  LYS117     -0.1245
     93  CA       -15.6690   27.6330   13.5040 C.3   117  LYS117      0.1561
     94  C        -14.2740   27.1230   13.1090 C.2   117  LYS117      0.2260
     95  O        -13.4140   27.0940   13.9240 O.2   117  LYS117     -0.2867
     96  CB       -16.6410   26.4770   13.7340 C.3   117  LYS117      0.0271
     97  CG       -16.2640   25.4990   14.8330 C.3   117  LYS117      0.0035
     98  CD       -17.4180   24.5370   15.1490 C.3   117  LYS117      0.0206
     99  CE       -17.0530   23.4070   16.0920 C.3   117  LYS117      0.1093
    100  NZ       -16.3020   23.9030   17.2720 N.3   117  LYS117     -0.1314
    101  N        -27.0830   19.2230   18.4160 N.3   177  GLY177     -0.1210
    102  CA       -26.4870   18.2710   17.4740 C.3   177  GLY177      0.1956
    103  C        -25.7970   18.9640   16.3060 C.2   177  GLY177      0.2611
    104  O        -24.9450   18.3490   15.6550 O.2   177  GLY177     -0.2717
    105  N        -26.1620   20.2310   16.0310 N.am  178  GLU178     -0.1979
    106  CA       -25.4520   21.0830   15.0410 C.3   178  GLU178      0.1602
    107  C        -24.3360   21.8490   15.7680 C.2   178  GLU178      0.2287
    108  O        -23.3570   22.1890   15.1020 O.2   178  GLU178     -0.2864
    109  CB       -26.4030   22.0390   14.3080 C.3   178  GLU178      0.0415
    110  CG       -27.5510   21.3450   13.5990 C.3   178  GLU178      0.1163
    111  CD       -28.5330   22.2600   12.8720 C.2   178  GLU178      0.3649
    112  OE1      -28.1680   23.3910   12.5010 O.co2 178  GLU178     -0.2457
    113  OE2      -29.6620   21.8080   12.6280 O.co2 178  GLU178     -0.2457
@<TRIPOS>BOND
     1    59    57    1
     2    57    56    1
     3    46    45    2
     4    43    44    1
     5    63    62    2
     6    58    56    1
     7    45    52   am
     8    45    44    1
     9    56    53    1
    10    53    52    1
    11    53    54    1
    12    44    47    1
    13    60    54   am
    14    60    61    1
    15    62    61    1
    16    62    64   am
    17    54    55    2
    18    47    48    1
    19    70    68    1
    20    71    72    1
    21    73    72    1
    22    73    74    2
    23    37    38    2
    24    37    36    1
    25    65    64    1
    26    65    68    1
    27    65    66    1
    28    69    68    1
    29    75    72    1
    30    75    76    1
    31    39    36    1
    32    39    40    1
    33    48    49    1
    34    32    33    1
    35    32    29    1
    36    78    76   ar
    37    78    80   ar
    38    36    35    1
    39    35    30   am
    40    87    88    1
    41    87    84    1
    42    66    67    2
    43    42    40   ar
    44    33    34    1
    45    76    77   ar
    46    85    86    2
    47    85    84    1
    48     4     3    2
    49    40    41   ar
    50    49    50   ar
    51    49    51   ar
    52    88    89    1
    53    80    81   ar
    54    89    90    1
    55    84    83    1
    56    30    29    1
    57    30    31    2
    58    29    28    1
    59     8    10   ar
    60     8     6   ar
    61     3     2    1
    62    10     9   ar
    63     2     1    1
    64     2     5    1
    65    77    79   ar
    66    34    28    1
    67    11    12    1
    68    81    79   ar
    69    81    82    1
    70    90    91    1
    71    28    22   am
    72     6     5    1
    73     6     7   ar
    74    15    12    1
    75    15    16    1
    76     9     7   ar
    77    14    13    2
    78    12    13    1
    79    92    93    1
    80   112   111   ar
    81    16    17    1
    82   113   111   ar
    83    22    23    2
    84    22    21    1
    85   111   110    1
    86    94    93    1
    87    94    95    2
    88    93    96    1
    89    19    17   ar
    90   110   109    1
    91    17    18   ar
    92    96    97    1
    93    21    20    1
    94    21    24    1
    95   109   106    1
    96    27    25    1
    97    24    25    1
    98    97    98    1
    99   106   107    1
   100   106   105    1
   101   108   107    2
   102    98    99    1
   103    25    26    1
   104   104   103    2
   105   105   103   am
   106    99   100    1
   107   103   102    1
   108   102   101    1
