@<TRIPOS>MOLECULE
tmp/6e06B00.pdb
 134 126 0 0 0
SMALL
GASTEIGER

@<TRIPOS>ATOM
      1  N         -2.6730  -23.8660   37.9780 N.3    12  THR12      -0.1203
      2  CA        -2.8720  -24.1590   39.3910 C.3    12  THR12       0.1994
      3  C         -2.2880  -25.5220   39.7510 C.2    12  THR12       0.2618
      4  O         -2.2380  -26.4210   38.9070 O.2    12  THR12      -0.2717
      5  CB        -4.3620  -24.1410   39.7180 C.3    12  THR12       0.1784
      6  OG1       -4.9610  -25.3360   39.2220 O.3    12  THR12      -0.2211
      7  CG2       -5.0220  -23.0350   38.9890 C.3    12  THR12       0.0376
      8  N         -1.7450  -25.6360   40.9660 N.am   13  GLY13      -0.1942
      9  CA        -1.1820  -26.8970   41.4070 C.3    13  GLY13       0.2014
     10  C          0.1930  -27.2070   40.8770 C.2    13  GLY13       0.2639
     11  O          0.6380  -28.3630   40.9520 O.2    13  GLY13      -0.2714
     12  N          0.9240  -26.1830   40.4390 N.am   14  VAL14      -0.1963
     13  CA         2.2600  -26.3610   39.8990 C.3    14  VAL14       0.1727
     14  C          3.2970  -26.2500   40.9950 C.2    14  VAL14       0.2617
     15  O          4.5050  -26.2960   40.7220 O.2    14  VAL14      -0.2715
     16  CB         2.4710  -25.3650   38.7380 C.3    14  VAL14       0.0290
     17  CG1        1.3950  -25.5640   37.6890 C.3    14  VAL14       0.0023
     18  CG2        2.4110  -23.9230   39.2520 C.3    14  VAL14       0.0023
     19  N          2.8490  -26.0190   42.2180 N.am   15  GLY15      -0.1940
     20  CA         3.6920  -25.8830   43.3770 C.3    15  GLY15       0.2014
     21  C          4.2360  -24.4970   43.5180 C.2    15  GLY15       0.2639
     22  O          5.3890  -24.3240   43.9380 O.2    15  GLY15      -0.2714
     23  N          3.3950  -23.4960   43.2710 N.am   16  LYS16      -0.1963
     24  CA         3.8170  -22.1160   43.4560 C.3    16  LYS16       0.1728
     25  C          4.1570  -21.8930   44.9060 C.2    16  LYS16       0.2617
     26  O          5.1630  -21.2580   45.2430 O.2    16  LYS16      -0.2715
     27  CB         2.6950  -21.1840   43.0200 C.3    16  LYS16       0.0311
     28  CG         2.4930  -21.0980   41.5210 C.3    16  LYS16       0.0038
     29  CD         1.5400  -19.9770   41.2210 C.3    16  LYS16       0.0206
     30  CE         0.2000  -20.1790   41.9730 C.3    16  LYS16       0.1093
     31  NZ        -0.5010  -21.4890   41.7430 N.3    16  LYS16      -0.1314
     32  N          3.3170  -22.4400   45.7770 N.am   17  THR17      -0.1937
     33  CA         3.4630  -22.1810   47.1930 C.3    17  THR17       0.2028
     34  C          4.7390  -22.8040   47.7510 C.2    17  THR17       0.2642
     35  O          5.4790  -22.1540   48.4920 O.2    17  THR17      -0.2714
     36  CB         2.2320  -22.7000   47.9080 C.3    17  THR17       0.1808
     37  OG1        1.0590  -22.1050   47.3340 O.3    17  THR17      -0.2208
     38  CG2        2.3030  -22.3630   49.3790 C.3    17  THR17       0.0379
     39  N          5.0330  -24.0500   47.3750 N.am   18  VAL18      -0.1977
     40  CA         6.2510  -24.7020   47.8450 C.3    18  VAL18       0.1596
     41  C          7.4730  -23.9950   47.2610 C.2    18  VAL18       0.2287
     42  O          8.5340  -23.9850   47.8810 O.2    18  VAL18      -0.2864
     43  CB         6.1930  -26.2560   47.6770 C.3    18  VAL18       0.0276
     44  CG1        5.0510  -26.6940   46.7850 C.3    18  VAL18       0.0022
     45  CG2        7.5610  -26.8860   47.3330 C.3    18  VAL18       0.0022
     46  N          0.1640  -13.3790   50.2500 N.3    38  LYS38      -0.1245
     47  CA        -0.8910  -14.0240   49.4720 C.3    38  LYS38       0.1561
     48  C         -2.1700  -13.2150   49.6540 C.2    38  LYS38       0.2260
     49  O         -2.9530  -13.4910   50.5770 O.2    38  LYS38      -0.2867
     50  CB        -1.0710  -15.4810   49.8940 C.3    38  LYS38       0.0271
     51  CG        -2.2080  -16.1830   49.1950 C.3    38  LYS38       0.0035
     52  CD        -1.7020  -17.2700   48.2850 C.3    38  LYS38       0.0206
     53  CE        -2.8580  -18.0310   47.6510 C.3    38  LYS38       0.1093
     54  NZ        -2.3580  -19.0760   46.7070 N.3    38  LYS38      -0.1314
     55  N         -2.1440  -21.1290   51.9490 N.3    50  ASP50      -0.1239
     56  CA        -0.7800  -21.2220   51.4430 C.3    50  ASP50       0.1674
     57  C          0.2120  -20.4140   52.2690 C.2    50  ASP50       0.2266
     58  O          1.3780  -20.8360   52.4030 O.2    50  ASP50      -0.2867
     59  CB        -0.7290  -20.7050   49.9830 C.3    50  ASP50       0.1410
     60  CG        -1.6290  -21.4940   49.0180 C.2    50  ASP50       0.3668
     61  OD1       -1.9500  -22.6650   49.3040 O.co2  50  ASP50      -0.2456
     62  OD2       -2.0080  -20.9470   47.9620 O.co2  50  ASP50      -0.2456
     63  N          1.4420  -22.7390   54.9570 N.3    53  GLU53      -0.1245
     64  CA         2.4560  -23.6710   54.4620 C.3    53  GLU53       0.1567
     65  C          3.8180  -23.0100   54.4310 C.2    53  GLU53       0.2260
     66  O          4.8290  -23.6430   54.7570 O.2    53  GLU53      -0.2867
     67  CB         2.1230  -24.1620   53.0460 C.3    53  GLU53       0.0388
     68  CG         0.9320  -25.0950   52.8590 C.3    53  GLU53       0.1160
     69  CD         1.0570  -26.3700   53.6380 C.2    53  GLU53       0.3649
     70  OE1        2.0710  -27.0690   53.4290 O.co2  53  GLU53      -0.2457
     71  OE2        0.1380  -26.6940   54.4220 O.co2  53  GLU53      -0.2457
     72  N          2.5300  -14.3900   46.1790 N.3   109  GLU109     -0.1245
     73  CA         1.8750  -15.5340   45.5520 C.3   109  GLU109      0.1567
     74  C          0.4540  -15.1590   45.1450 C.2   109  GLU109      0.2260
     75  O         -0.3270  -14.6670   45.9660 O.2   109  GLU109     -0.2867
     76  CB         1.7940  -16.7920   46.4210 C.3   109  GLU109      0.0388
     77  CG         1.1660  -17.9530   45.5940 C.3   109  GLU109      0.1160
     78  CD         0.8380  -19.2290   46.3590 C.2   109  GLU109      0.3649
     79  OE1       -0.0410  -19.9940   45.8900 O.co2 109  GLU109     -0.2457
     80  OE2        1.3960  -19.4410   47.4510 O.co2 109  GLU109     -0.2457
     81  N         -3.0870  -16.5090   42.9320 N.3   111  ALA111     -0.1231
     82  CA        -3.8550  -17.7470   42.8980 C.3   111  ALA111      0.1694
     83  C         -3.8390  -18.2530   41.4550 C.2   111  ALA111      0.2592
     84  O         -3.9530  -17.4480   40.5270 O.2   111  ALA111     -0.2718
     85  CB        -5.2940  -17.5340   43.3640 C.3   111  ALA111      0.0304
     86  N         -3.5730  -19.5520   41.2610 N.am  112  GLY112     -0.1957
     87  CA        -3.4700  -20.1260   39.9180 C.3   112  GLY112      0.1869
     88  C         -2.4760  -19.4430   38.9890 C.2   112  GLY112      0.2309
     89  O         -1.3860  -19.0330   39.4100 O.2   112  GLY112     -0.2863
     90  N          8.2780  -26.7760   39.6830 N.3   170  GLY170     -0.1210
     91  CA         7.6750  -26.9450   40.9930 C.3   170  GLY170      0.1956
     92  C          7.8380  -28.3320   41.5770 C.2   170  GLY170      0.2612
     93  O          8.0730  -28.4880   42.7780 O.2   170  GLY170     -0.2717
     94  N          7.7740  -29.3530   40.7360 N.am  171  SER171     -0.1952
     95  CA         7.8070  -30.7140   41.2480 C.3   171  SER171      0.1924
     96  C          8.5400  -31.5330   40.2080 C.2   171  SER171      0.2314
     97  O          8.0320  -31.7330   39.1010 O.2   171  SER171     -0.2863
     98  CB         6.4100  -31.2520   41.5100 C.3   171  SER171      0.2116
     99  OG         6.5220  -32.5480   42.0560 O.3   171  SER171     -0.2180
    100  N         12.2920  -28.5530   42.1960 N.3   197  LEU197     -0.1231
    101  CA        12.1000  -29.0070   43.5730 C.3   197  LEU197      0.1678
    102  C         11.6630  -30.4580   43.5790 C.2   197  LEU197      0.2434
    103  O         10.6860  -30.7970   42.9000 O.2   197  LEU197     -0.2733
    104  CB        11.0410  -28.1730   44.2630 C.3   197  LEU197      0.0284
    105  CG        11.2820  -26.6830   44.2880 C.3   197  LEU197      0.0019
    106  CD1       10.1890  -26.0400   45.1190 C.3   197  LEU197      0.0001
    107  CD2       12.6460  -26.4460   44.9180 C.3   197  LEU197      0.0001
    108  N         12.3300  -31.3330   44.3380 N.am  198  PRO198     -0.2729
    109  CA        11.9310  -32.7400   44.3180 C.3   198  PRO198      0.1401
    110  C         10.4490  -32.8780   44.6240 C.2   198  PRO198      0.2269
    111  O          9.9150  -32.2110   45.5080 O.2   198  PRO198     -0.2865
    112  CB        12.8170  -33.3710   45.3880 C.3   198  PRO198      0.0296
    113  CG        14.0500  -32.5340   45.3890 C.3   198  PRO198      0.0237
    114  CD        13.5850  -31.1250   45.0850 C.3   198  PRO198      0.0939
    115  N          7.2010  -33.9950   46.2280 N.3   200  GLY200     -0.1210
    116  CA         6.9320  -34.4650   47.5670 C.3   200  GLY200      0.1956
    117  C          7.5520  -33.6460   48.6820 C.2   200  GLY200      0.2612
    118  O          7.3350  -33.9760   49.8530 O.2   200  GLY200     -0.2717
    119  N          8.3770  -32.6420   48.3490 N.am  201  ALA201     -0.1965
    120  CA         9.0350  -31.8210   49.3640 C.3   201  ALA201      0.1728
    121  C          8.0520  -31.2060   50.3630 C.2   201  ALA201      0.2616
    122  O          8.4020  -31.0070   51.5300 O.2   201  ALA201     -0.2715
    123  CB         9.8540  -30.7300   48.6730 C.3   201  ALA201      0.0334
    124  N          6.8540  -30.8160   49.9170 N.am  202  ALA202     -0.1963
    125  CA         5.8510  -30.2540   50.8300 C.3   202  ALA202      0.1728
    126  C          5.6440  -31.0980   52.1040 C.2   202  ALA202      0.2616
    127  O          4.9950  -30.6470   53.0540 O.2   202  ALA202     -0.2715
    128  CB         4.5240  -30.0460   50.1030 C.3   202  ALA202      0.0334
    129  N          6.1280  -32.3450   52.1160 N.am  203  SER203     -0.1950
    130  CA         5.9690  -33.2470   53.2490 C.3   203  SER203      0.1924
    131  C          7.1640  -33.2430   54.1810 C.2   203  SER203      0.2314
    132  O          7.1170  -33.8920   55.2290 O.2   203  SER203     -0.2863
    133  CB         5.7350  -34.6890   52.7770 C.3   203  SER203      0.2116
    134  OG         4.4760  -34.8410   52.1590 O.3   203  SER203     -0.2180
@<TRIPOS>BOND
     1    17    16    1
     2     1     2    1
     3    16    18    1
     4    16    13    1
     5     4     3    2
     6     7     5    1
     7    88    89    2
     8    88    87    1
     9    97    96    2
    10     6     5    1
    11     2     5    1
    12     2     3    1
    13    90    91    1
    14     3     8   am
    15    13    12    1
    16    13    14    1
    17    87    86    1
    18    96    95    1
    19    12    10   am
    20    84    83    2
    21    15    14    2
    22    94    95    1
    23    94    92   am
    24    10    11    2
    25    10     9    1
    26     8     9    1
    27    91    92    1
    28    14    19   am
    29    29    28    1
    30    29    30    1
    31    95    98    1
    32    86    83   am
    33    83    82    1
    34    98    99    1
    35    28    27    1
    36    92    93    2
    37    31    30    1
    38   100   101    1
    39    19    20    1
    40    82    81    1
    41    82    85    1
    42   103   102    2
    43    27    24    1
    44    23    24    1
    45    23    21   am
    46    20    21    1
    47    24    25    1
    48    21    22    2
    49   101   102    1
    50   101   104    1
    51   102   108   am
    52   104   105    1
    53   105   107    1
    54   105   106    1
    55   109   108    1
    56   109   110    1
    57   109   112    1
    58   108   114    1
    59   110   111    2
    60    25    26    2
    61    25    32   am
    62   114   113    1
    63    74    73    1
    64    74    75    2
    65   112   113    1
    66    73    72    1
    67    73    76    1
    68    77    78    1
    69    77    76    1
    70    32    33    1
    71    79    78   ar
    72   115   116    1
    73    78    80   ar
    74    54    53    1
    75    44    43    1
    76    33    34    1
    77    33    36    1
    78    41    40    1
    79    41    42    2
    80    45    43    1
    81    37    36    1
    82    39    34   am
    83    39    40    1
    84   116   117    1
    85    53    52    1
    86    43    40    1
    87    34    35    2
    88    36    38    1
    89    62    60   ar
    90    52    51    1
    91   119   117   am
    92   119   120    1
    93   123   120    1
    94   117   118    2
    95    60    61   ar
    96    60    59    1
    97    51    50    1
    98   120   121    1
    99    47    48    1
   100    47    50    1
   101    47    46    1
   102    48    49    2
   103   124   121   am
   104   124   125    1
   105    59    56    1
   106   128   125    1
   107   121   122    2
   108   125   126    1
   109    56    55    1
   110    56    57    1
   111   126   129   am
   112   126   127    2
   113   129   130    1
   114   134   133    1
   115    57    58    2
   116   133   130    1
   117    68    67    1
   118    68    69    1
   119    67    64    1
   120   130   131    1
   121    70    69   ar
   122    69    71   ar
   123   131   132    2
   124    65    64    1
   125    65    66    2
   126    64    63    1
