@<TRIPOS>MOLECULE
tmp/6e0bA00.pdb
 168 156 0 0 0
SMALL
GASTEIGER

@<TRIPOS>ATOM
      1  N         92.2210  -35.2530   21.0460 N.3    11  LEU11      -0.1245
      2  CA        91.1020  -34.5610   20.4160 C.3    11  LEU11       0.1561
      3  C         89.7840  -34.9030   21.0990 C.2    11  LEU11       0.2260
      4  O         88.9310  -34.0270   21.2850 O.2    11  LEU11      -0.2867
      5  CB        91.0440  -34.9120   18.9310 C.3    11  LEU11       0.0270
      6  CG        89.9450  -34.2100   18.1330 C.3    11  LEU11       0.0019
      7  CD1       90.5530  -33.3990   17.0030 C.3    11  LEU11       0.0001
      8  CD2       88.9400  -35.2190   17.6000 C.3    11  LEU11       0.0001
      9  N         89.6900  -32.9630   24.2030 N.3    14  CYS14      -0.1221
     10  CA        89.4240  -31.5580   23.9170 C.3    14  CYS14       0.1808
     11  C         87.9510  -31.3220   23.6040 C.2    14  CYS14       0.2601
     12  O         87.3850  -30.2910   23.9880 O.2    14  CYS14      -0.2717
     13  CB        90.3070  -31.0930   22.7590 C.3    14  CYS14       0.0970
     14  SG        92.0420  -30.8620   23.2170 S.3    14  CYS14      -0.0800
     15  N         87.3080  -32.2690   22.9150 N.am   15  LEU15      -0.1979
     16  CA        85.8960  -32.1070   22.5800 C.3    15  LEU15       0.1596
     17  C         85.0390  -31.9890   23.8320 C.2    15  LEU15       0.2287
     18  O         84.1040  -31.1810   23.8820 O.2    15  LEU15      -0.2864
     19  CB        85.4150  -33.2840   21.7310 C.3    15  LEU15       0.0297
     20  CG        85.6000  -33.1830   20.2190 C.3    15  LEU15       0.0022
     21  CD1       85.1880  -34.4850   19.5550 C.3    15  LEU15       0.0001
     22  CD2       84.7980  -32.0170   19.6580 C.3    15  LEU15       0.0001
     23  N         85.2260  -24.6550   21.8480 N.3    20  GLY20      -0.1225
     24  CA        85.4990  -25.0320   20.4700 C.3    20  GLY20       0.1811
     25  C         86.4750  -24.1010   19.7740 C.2    20  GLY20       0.2280
     26  O         87.4000  -24.5530   19.0930 O.2    20  GLY20      -0.2866
     27  N         89.8700  -24.8580   21.0150 N.3    23  CYS23      -0.1221
     28  CA        90.3740  -26.0880   20.4100 C.3    23  CYS23       0.1808
     29  C         90.8980  -25.8330   19.0050 C.2    23  CYS23       0.2601
     30  O         92.0240  -26.2170   18.6680 O.2    23  CYS23      -0.2717
     31  CB        89.2770  -27.1510   20.3600 C.3    23  CYS23       0.0970
     32  SG        88.8370  -27.8620   21.9330 S.3    23  CYS23      -0.0800
     33  N         90.0790  -25.2010   18.1620 N.am   24  HIS24      -0.1975
     34  CA        90.4710  -24.9760   16.7760 C.3    24  HIS24       0.1656
     35  C         91.7860  -24.2150   16.7030 C.2    24  HIS24       0.2291
     36  O         92.6990  -24.5950   15.9610 O.2    24  HIS24      -0.2864
     37  CB        89.3660  -24.2200   16.0360 C.3    24  HIS24       0.0771
     38  CG        89.5520  -24.1840   14.5500 C.ar   24  HIS24       0.0820
     39  ND1       89.2480  -25.2530   13.7350 N.ar   24  HIS24      -0.2267
     40  CD2       90.0180  -23.2100   13.7330 C.ar   24  HIS24       0.1154
     41  CE1       89.5160  -24.9400   12.4800 C.ar   24  HIS24       0.1986
     42  NE2       89.9840  -23.7050   12.4510 N.ar   24  HIS24      -0.2212
     43  N         94.8810  -26.4370   17.7050 N.3    27  PHE27      -0.1227
     44  CA        95.3790  -27.3730   16.7040 C.3    27  PHE27       0.1736
     45  C         95.9430  -26.6540   15.4850 C.2    27  PHE27       0.2595
     46  O         96.8740  -27.1640   14.8500 O.2    27  PHE27      -0.2718
     47  CB        94.2700  -28.3470   16.3100 C.3    27  PHE27       0.0547
     48  CG        93.9270  -29.3260   17.3960 C.ar   27  PHE27      -0.0202
     49  CD1       94.7790  -30.3760   17.6890 C.ar   27  PHE27      -0.0042
     50  CD2       92.7660  -29.1880   18.1370 C.ar   27  PHE27      -0.0042
     51  CE1       94.4770  -31.2750   18.6920 C.ar   27  PHE27      -0.0003
     52  CE2       92.4580  -30.0850   19.1440 C.ar   27  PHE27      -0.0003
     53  CZ        93.3150  -31.1290   19.4210 C.ar   27  PHE27      -0.0000
     54  N         95.4110  -25.4770   15.1440 N.am   28  LEU28      -0.1980
     55  CA        96.0590  -24.6540   14.1270 C.3    28  LEU28       0.1596
     56  C         97.4780  -24.2990   14.5490 C.2    28  LEU28       0.2287
     57  O         98.3960  -24.2800   13.7200 O.2    28  LEU28      -0.2864
     58  CB        95.2490  -23.3800   13.8700 C.3    28  LEU28       0.0297
     59  CG        93.9550  -23.5080   13.0660 C.3    28  LEU28       0.0022
     60  CD1       93.2020  -22.1850   13.0700 C.3    28  LEU28       0.0001
     61  CD2       94.2450  -23.9490   11.6390 C.3    28  LEU28       0.0001
     62  N        101.8900  -32.0800   13.7390 N.3    36  LEU36      -0.1245
     63  CA       100.7900  -32.9730   13.4100 C.3    36  LEU36       0.1561
     64  C        101.3040  -34.1470   12.5840 C.2    36  LEU36       0.2260
     65  O        102.4030  -34.0930   12.0260 O.2    36  LEU36      -0.2867
     66  CB        99.7130  -32.2180   12.6370 C.3    36  LEU36       0.0270
     67  CG        99.1380  -30.9790   13.3250 C.3    36  LEU36       0.0019
     68  CD1       98.0910  -30.3240   12.4410 C.3    36  LEU36       0.0001
     69  CD2       98.5490  -31.3360   14.6780 C.3    36  LEU36       0.0001
     70  N         88.2720  -23.0310    7.7570 N.3    66  PHE66      -0.1241
     71  CA        89.0670  -23.8740    8.6410 C.3    66  PHE66       0.1605
     72  C         90.4070  -23.2190    8.9610 C.2    66  PHE66       0.2264
     73  O         90.7440  -23.0040   10.1300 O.2    66  PHE66      -0.2867
     74  CB        89.2740  -25.2480    8.0010 C.3    66  PHE66       0.0534
     75  CG        89.6080  -26.3230    8.9860 C.ar   66  PHE66      -0.0203
     76  CD1       88.6050  -27.0560    9.5940 C.ar   66  PHE66      -0.0042
     77  CD2       90.9230  -26.5950    9.3130 C.ar   66  PHE66      -0.0042
     78  CE1       88.9100  -28.0480   10.5070 C.ar   66  PHE66      -0.0003
     79  CE2       91.2340  -27.5850   10.2230 C.ar   66  PHE66      -0.0003
     80  CZ        90.2250  -28.3110   10.8220 C.ar   66  PHE66      -0.0000
     81  N         98.3570  -22.3210    8.4640 N.3    72  CYS72      -0.1235
     82  CA        98.5250  -23.7340    8.7690 C.3    72  CYS72       0.1677
     83  C         98.3910  -24.6040    7.5210 C.2    72  CYS72       0.2270
     84  O         98.0240  -25.7800    7.6190 O.2    72  CYS72      -0.2867
     85  CB        97.4950  -24.1550    9.8210 C.3    72  CYS72       0.0956
     86  SG        97.7980  -25.7180   10.5960 S.3    72  CYS72      -0.0801
     87  N         97.9960  -29.0160    7.3660 N.3    76  ILE76      -0.1245
     88  CA        96.6630  -29.5300    7.0700 C.3    76  ILE76       0.1561
     89  C         96.6880  -30.3590    5.7920 C.2    76  ILE76       0.2260
     90  O         96.0970  -31.4430    5.7270 O.2    76  ILE76      -0.2867
     91  CB        95.6490  -28.3750    6.9790 C.3    76  ILE76       0.0252
     92  CG1       95.4560  -27.7350    8.3580 C.3    76  ILE76       0.0019
     93  CG2       94.3140  -28.8750    6.4310 C.3    76  ILE76       0.0019
     94  CD1       94.6900  -26.4250    8.3260 C.3    76  ILE76       0.0001
     95  N         98.0960  -33.8470    6.1330 N.3    79  LEU79      -0.1245
     96  CA        97.2350  -34.8610    6.7310 C.3    79  LEU79       0.1561
     97  C         96.6560  -35.8150    5.6910 C.2    79  LEU79       0.2260
     98  O         96.0930  -36.8480    6.0700 O.2    79  LEU79      -0.2867
     99  CB        96.0910  -34.2050    7.5090 C.3    79  LEU79       0.0270
    100  CG        96.4300  -33.4100    8.7730 C.3    79  LEU79       0.0019
    101  CD1       95.1750  -32.7430    9.3230 C.3    79  LEU79       0.0001
    102  CD2       97.0580  -34.2920    9.8350 C.3    79  LEU79       0.0001
    103  N         80.8520  -20.3940   18.4450 N.3   102  ILE102     -0.1245
    104  CA        80.8520  -21.7150   17.8230 C.3   102  ILE102      0.1561
    105  C         80.5540  -22.7470   18.9010 C.2   102  ILE102      0.2260
    106  O         81.1680  -22.7340   19.9720 O.2   102  ILE102     -0.2867
    107  CB        82.1860  -22.0270   17.1110 C.3   102  ILE102      0.0252
    108  CG1       82.1980  -23.4750   16.6120 C.3   102  ILE102      0.0019
    109  CG2       83.3680  -21.7630   18.0340 C.3   102  ILE102      0.0019
    110  CD1       83.3550  -23.7880   15.6870 C.3   102  ILE102      0.0001
    111  N         79.4410  -27.0880   19.5090 N.3   104  ARG104     -0.1245
    112  CA        79.4440  -28.4290   18.9440 C.3   104  ARG104      0.1563
    113  C         78.4720  -29.3170   19.7060 C.2   104  ARG104      0.2260
    114  O         78.3690  -29.2280   20.9330 O.2   104  ARG104     -0.2867
    115  CB        80.8360  -29.0610   19.0070 C.3   104  ARG104      0.0307
    116  CG        81.9710  -28.1700   18.5630 C.3   104  ARG104      0.0489
    117  CD        83.2400  -28.5490   19.2960 C.3   104  ARG104      0.2205
    118  NE        83.2130  -28.1190   20.6880 N.pl3 104  ARG104     -0.0865
    119  CZ        84.2520  -28.1980   21.5100 C.cat 104  ARG104      0.5346
    120  NH1       85.4080  -28.6920   21.0820 N.pl3 104  ARG104      0.1354
    121  NH2       84.1360  -27.7800   22.7610 N.pl3 104  ARG104      0.1354
    122  N         77.5690  -28.7810   14.1570 N.3   111  ILE111     -0.1245
    123  CA        78.1810  -27.5560   14.6500 C.3   111  ILE111      0.1561
    124  C         77.2800  -26.3930   14.2660 C.2   111  ILE111      0.2260
    125  O         76.5440  -26.4520   13.2780 O.2   111  ILE111     -0.2867
    126  CB        79.6030  -27.3420   14.0800 C.3   111  ILE111      0.0252
    127  CG1       80.5050  -28.5310   14.4210 C.3   111  ILE111      0.0019
    128  CG2       80.2040  -26.0380   14.6090 C.3   111  ILE111      0.0019
    129  CD1       81.8480  -28.5030   13.7170 C.3   111  ILE111      0.0001
    130  N         84.9350  -30.3880    6.7700 N.3   337  TYR337     -0.1241
    131  CA        85.1560  -29.4510    7.8660 C.3   337  TYR337      0.1605
    132  C         84.7800  -30.1290    9.1790 C.2   337  TYR337      0.2264
    133  O         85.6510  -30.4280   10.0020 O.2   337  TYR337     -0.2867
    134  CB        84.3490  -28.1590    7.6750 C.3   337  TYR337      0.0534
    135  CG        84.7640  -27.0300    8.6070 C.ar  337  TYR337     -0.0201
    136  CD1       84.8020  -27.2100    9.9880 C.ar  337  TYR337     -0.0009
    137  CD2       85.1300  -25.7880    8.1050 C.ar  337  TYR337     -0.0009
    138  CE1       85.1870  -26.1930   10.8340 C.ar  337  TYR337      0.0417
    139  CE2       85.5170  -24.7610    8.9490 C.ar  337  TYR337      0.0417
    140  CZ        85.5440  -24.9730   10.3110 C.ar  337  TYR337      0.1957
    141  OH        85.9290  -23.9640   11.1580 O.3   337  TYR337     -0.2866
    142  N         86.7140  -33.2020   10.4170 N.3   340  LEU340     -0.1231
    143  CA        87.9720  -32.9680   11.1160 C.3   340  LEU340      0.1693
    144  C         87.7410  -32.6420   12.5850 C.2   340  LEU340      0.2591
    145  O         88.5870  -32.9550   13.4310 O.2   340  LEU340     -0.2718
    146  CB        88.7410  -31.8340   10.4400 C.3   340  LEU340      0.0284
    147  CG        89.4560  -32.1750    9.1310 C.3   340  LEU340      0.0019
    148  CD1       89.7780  -30.9110    8.3570 C.3   340  LEU340      0.0001
    149  CD2       90.7270  -32.9570    9.4140 C.3   340  LEU340      0.0001
    150  N         86.6070  -32.0180   12.9080 N.am  341  VAL341     -0.1980
    151  CA        86.3320  -31.6380   14.2900 C.3   341  VAL341      0.1595
    152  C         86.0570  -32.8700   15.1410 C.2   341  VAL341      0.2287
    153  O         86.5300  -32.9730   16.2790 O.2   341  VAL341     -0.2864
    154  CB        85.1550  -30.6460   14.3450 C.3   341  VAL341      0.0276
    155  CG1       84.7390  -30.3980   15.7900 C.3   341  VAL341      0.0022
    156  CG2       85.5210  -29.3410   13.6580 C.3   341  VAL341      0.0022
    157  N         89.0190  -36.0220   13.7700 N.3   344  GLY344     -0.1210
    158  CA        90.3940  -35.6820   14.0740 C.3   344  GLY344      0.1956
    159  C         91.3640  -35.9040   12.9240 C.2   344  GLY344      0.2611
    160  O         91.0070  -35.8970   11.7410 O.2   344  GLY344     -0.2717
    161  N         92.6260  -36.1210   13.3040 N.am  345  MET345     -0.1979
    162  CA        93.7300  -36.0910   12.3530 C.3   345  MET345      0.1605
    163  C         93.6570  -37.2040   11.3170 C.2   345  MET345      0.2287
    164  O         94.3240  -37.1080   10.2810 O.2   345  MET345     -0.2864
    165  CB        95.0610  -36.1810   13.1030 C.3   345  MET345      0.0413
    166  CG        95.2630  -35.0850   14.1310 C.3   345  MET345      0.0598
    167  SD        95.2530  -33.4350   13.4080 S.3   345  MET345     -0.1393
    168  CE        95.0490  -32.4380   14.8870 C.3   345  MET345      0.0692
@<TRIPOS>BOND
     1    97    98    2
     2    97    96    1
     3    90    89    2
     4    89    88    1
     5    95    96    1
     6    93    91    1
     7    96    99    1
     8   130   131    1
     9    91    88    1
    10    91    92    1
    11    88    87    1
    12    99   100    1
    13    83    84    2
    14    83    82    1
    15   134   131    1
    16   134   135    1
    17    70    71    1
    18   131   132    1
    19    74    71    1
    20    74    75    1
    21   137   135   ar
    22   137   139   ar
    23    94    92    1
    24   148   147    1
    25    81    82    1
    26   135   136   ar
    27    71    72    1
    28    82    85    1
    29   100   101    1
    30   100   102    1
    31   139   140   ar
    32    72    73    2
    33    75    77   ar
    34    75    76   ar
    35   147   149    1
    36   147   146    1
    37   132   133    2
    38    77    79   ar
    39    76    78   ar
    40    85    86    1
    41   136   138   ar
    42    79    80   ar
    43   164   163    2
    44   140   138   ar
    45   140   141    1
    46   142   143    1
    47   146   143    1
    48    78    80   ar
    49   143   144    1
    50   163   162    1
    51    61    59    1
    52   160   159    2
    53    65    64    2
    54   162   165    1
    55   162   161    1
    56    68    67    1
    57    42    41   ar
    58    42    40   ar
    59    41    39   ar
    60    64    63    1
    61   144   150   am
    62   144   145    2
    63    66    67    1
    64    66    63    1
    65   150   151    1
    66   159   161   am
    67   159   158    1
    68    59    60    1
    69    59    58    1
    70   165   166    1
    71   125   124    2
    72    67    69    1
    73   167   166    1
    74   167   168    1
    75    63    62    1
    76   156   154    1
    77   129   127    1
    78    57    56    2
    79    40    38   ar
    80    39    38   ar
    81   157   158    1
    82    58    55    1
    83   126   127    1
    84   126   128    1
    85   126   123    1
    86    55    56    1
    87    55    54    1
    88   122   123    1
    89   124   123    1
    90   151   154    1
    91   151   152    1
    92   154   155    1
    93    38    37    1
    94    46    45    2
    95   152   153    2
    96    54    45   am
    97    45    44    1
    98   110   108    1
    99    36    35    2
   100    37    34    1
   101    47    44    1
   102    47    48    1
   103   108   107    1
   104    35    34    1
   105    44    43    1
   106    34    33    1
   107     7     6    1
   108   107   104    1
   109   107   109    1
   110    48    49   ar
   111    48    50   ar
   112     8     6    1
   113    49    51   ar
   114   104   103    1
   115   104   105    1
   116     6     5    1
   117    50    52   ar
   118    33    29   am
   119   116   115    1
   120   116   117    1
   121    30    29    2
   122    51    53   ar
   123   105   106    2
   124     5     2    1
   125   112   115    1
   126   112   111    1
   127   112   113    1
   128    29    28    1
   129    26    25    2
   130    52    53   ar
   131   117   118    1
   132    21    20    1
   133    22    20    1
   134   113   114    2
   135    25    24    1
   136    20    19    1
   137    31    28    1
   138    31    32    1
   139    28    27    1
   140     2     1    1
   141     2     3    1
   142    24    23    1
   143   118   119    2
   144   120   119    1
   145     3     4    2
   146   119   121    1
   147    19    16    1
   148    16    15    1
   149    16    17    1
   150    13    14    1
   151    13    10    1
   152    15    11   am
   153    11    10    1
   154    11    12    2
   155    17    18    2
   156    10     9    1
