@<TRIPOS>MOLECULE
tmp/6e0lA01.pdb
 115 105 0 0 0
SMALL
GASTEIGER

@<TRIPOS>ATOM
      1  N         28.6210   30.9500   57.0050 N.3    45  GLN45      -0.1245
      2  CA        27.3380   30.4200   57.4230 C.3    45  GLN45       0.1566
      3  C         26.3410   30.9020   56.3790 C.2    45  GLN45       0.2260
      4  O         26.7490   31.5130   55.3910 O.2    45  GLN45      -0.2867
      5  CB        26.9970   30.9290   58.8240 C.3    45  GLN45       0.0367
      6  CG        26.7240   32.4250   58.8860 C.3    45  GLN45       0.0905
      7  CD        26.1620   32.8320   60.2280 C.2    45  GLN45       0.2608
      8  OE1       25.5210   32.0350   60.9020 O.2    45  GLN45      -0.2717
      9  NE2       26.2720   34.1080   60.5540 N.am   45  GLN45      -0.0878
     10  N         27.5990   35.6170   54.3740 N.3    61  ASP61      -0.1239
     11  CA        27.5280   35.5350   55.8290 C.3    61  ASP61       0.1674
     12  C         28.7910   34.8670   56.3870 C.2    61  ASP61       0.2266
     13  O         28.9950   33.6600   56.1980 O.2    61  ASP61      -0.2867
     14  CB        26.2690   34.7570   56.1560 C.3    61  ASP61       0.1410
     15  CG        25.0270   35.4320   55.5670 C.2    61  ASP61       0.3668
     16  OD1       24.8200   36.6440   55.7870 O.co2  61  ASP61      -0.2456
     17  OD2       24.2730   34.7480   54.8360 O.co2  61  ASP61      -0.2456
     18  N         27.7990   47.2790   62.1460 N.3   114  GLY114     -0.1210
     19  CA        26.3650   47.1200   62.1040 C.3   114  GLY114      0.1956
     20  C         25.8340   46.7450   63.4820 C.2   114  GLY114      0.2612
     21  O         26.5750   46.6210   64.4540 O.2   114  GLY114     -0.2717
     22  N         24.5160   46.5400   63.5370 N.am  115  ARG115     -0.1965
     23  CA        23.8420   46.1970   64.7910 C.3   115  ARG115      0.1729
     24  C         24.3810   44.9080   65.3960 C.2   115  ARG115      0.2616
     25  O         24.6490   44.8410   66.6030 O.2   115  ARG115     -0.2715
     26  CB        22.3350   46.0950   64.5690 C.3   115  ARG115      0.0348
     27  CG        21.6930   47.3970   64.1010 C.3   115  ARG115      0.0492
     28  CD        21.7420   48.4900   65.1680 C.3   115  ARG115      0.2205
     29  NE        21.0610   49.7050   64.7200 N.pl3 115  ARG115     -0.0865
     30  CZ        21.0140   50.8400   65.4150 C.cat 115  ARG115      0.5346
     31  NH1       21.6070   50.9370   66.6040 N.pl3 115  ARG115      0.1354
     32  NH2       20.3680   51.8870   64.9200 N.pl3 115  ARG115      0.1354
     33  N         24.5580   43.8800   64.5740 N.am  116  LYS116     -0.1963
     34  CA        24.9710   42.5690   65.0420 C.3   116  LYS116      0.1728
     35  C         26.2390   42.0750   64.3670 C.2   116  LYS116      0.2616
     36  O         26.7400   41.0000   64.7150 O.2   116  LYS116     -0.2715
     37  CB        23.8740   41.5470   64.7090 C.3   116  LYS116      0.0311
     38  CG        22.5520   41.7100   65.4110 C.3   116  LYS116      0.0038
     39  CD        21.5590   40.6790   64.8910 C.3   116  LYS116      0.0206
     40  CE        20.3520   40.5670   65.7970 C.3   116  LYS116      0.1093
     41  NZ        19.1820   40.0840   65.0300 N.3   116  LYS116     -0.1314
     42  N         26.7430   42.8020   63.3860 N.am  117  THR117     -0.1951
     43  CA        27.8350   42.3400   62.5500 C.3   117  THR117      0.1897
     44  C         28.7500   43.5000   62.2160 C.2   117  THR117      0.2313
     45  O         28.4150   44.6650   62.4190 O.2   117  THR117     -0.2863
     46  CB        27.3230   41.7050   61.2450 C.3   117  THR117      0.1794
     47  OG1       26.5560   42.6710   60.5240 O.3   117  THR117     -0.2208
     48  CG2       26.4310   40.5030   61.5180 C.3   117  THR117      0.0378
     49  N         30.1270   45.0050   58.8430 N.3   119  LYS119     -0.1245
     50  CA        29.8240   44.9440   57.4250 C.3   119  LYS119      0.1561
     51  C         31.0480   45.3520   56.6240 C.2   119  LYS119      0.2260
     52  O         31.6160   46.4270   56.8530 O.2   119  LYS119     -0.2867
     53  CB        28.6380   45.8550   57.1260 C.3   119  LYS119      0.0271
     54  CG        27.3320   45.3160   57.7200 C.3   119  LYS119      0.0035
     55  CD        26.1090   46.0430   57.1540 C.3   119  LYS119      0.0206
     56  CE        24.8890   45.1330   57.0350 C.3   119  LYS119      0.1093
     57  NZ        24.5760   44.4470   58.3020 N.3   119  LYS119     -0.1314
     58  N         28.8070   40.0400   55.6080 N.3   128  ASP128     -0.1239
     59  CA        28.2270   40.3120   56.9190 C.3   128  ASP128      0.1674
     60  C         29.0010   39.4540   57.9070 C.2   128  ASP128      0.2266
     61  O         28.8610   38.2260   57.9140 O.2   128  ASP128     -0.2867
     62  CB        26.7410   39.9490   56.9560 C.3   128  ASP128      0.1410
     63  CG        25.8380   41.0400   56.3950 C.2   128  ASP128      0.3668
     64  OD1       25.5740   42.0240   57.1130 O.co2 128  ASP128     -0.2456
     65  OD2       25.3780   40.9040   55.2410 O.co2 128  ASP128     -0.2456
     66  N         29.9920   38.1510   61.4370 N.3   130  VAL130     -0.1245
     67  CA        29.5850   38.0030   62.8310 C.3   130  VAL130      0.1561
     68  C         30.8130   37.7250   63.6810 C.2   130  VAL130      0.2260
     69  O         31.5080   36.7240   63.4760 O.2   130  VAL130     -0.2867
     70  CB        28.5340   36.8950   62.9990 C.3   130  VAL130      0.0252
     71  CG1       28.2200   36.6950   64.4600 C.3   130  VAL130      0.0019
     72  CG2       27.2890   37.2520   62.2810 C.3   130  VAL130      0.0019
     73  N         28.2260   29.6380   69.4990 N.3   152  MET152     -0.1245
     74  CA        28.9680   30.8770   69.6190 C.3   152  MET152      0.1570
     75  C         28.0170   31.9400   70.1280 C.2   152  MET152      0.2261
     76  O         26.8000   31.7540   70.1500 O.2   152  MET152     -0.2867
     77  CB        29.5910   31.3150   68.2890 C.3   152  MET152      0.0387
     78  CG        28.6340   31.3890   67.0700 C.3   152  MET152      0.0595
     79  SD        27.5580   32.8630   67.0790 S.3   152  MET152     -0.1393
     80  CE        27.3860   33.1710   65.3130 C.3   152  MET152      0.0692
     81  N         27.5120   36.4750   70.7550 N.3   154  PHE154     -0.1241
     82  CA        28.0000   37.8160   70.5080 C.3   154  PHE154      0.1605
     83  C         27.0610   38.7760   71.2080 C.2   154  PHE154      0.2264
     84  O         25.8870   38.4740   71.4440 O.2   154  PHE154     -0.2867
     85  CB        28.0940   38.1720   69.0030 C.3   154  PHE154      0.0534
     86  CG        26.8260   37.9410   68.2250 C.ar  154  PHE154     -0.0203
     87  CD1       26.5250   36.7040   67.6770 C.ar  154  PHE154     -0.0042
     88  CD2       25.9510   38.9890   68.0080 C.ar  154  PHE154     -0.0042
     89  CE1       25.3540   36.5160   66.9510 C.ar  154  PHE154     -0.0003
     90  CE2       24.7690   38.8060   67.2830 C.ar  154  PHE154     -0.0003
     91  CZ        24.4780   37.5800   66.7610 C.ar  154  PHE154     -0.0000
     92  N         23.3900   37.1250   72.0620 N.3   163  VAL163     -0.1245
     93  CA        22.7860   36.1720   71.1360 C.3   163  VAL163      0.1561
     94  C         23.6330   34.9070   71.1240 C.2   163  VAL163      0.2260
     95  O         24.8610   34.9750   71.0780 O.2   163  VAL163     -0.2867
     96  CB        22.6810   36.7740   69.7130 C.3   163  VAL163      0.0252
     97  CG1       22.0820   35.7780   68.7130 C.3   163  VAL163      0.0019
     98  CG2       21.8500   38.0720   69.7220 C.3   163  VAL163      0.0019
     99  N         24.0750   31.4150   68.8750 N.3   165  ASN165     -0.1240
    100  CA        23.7760   30.7120   67.6440 C.3   165  ASN165      0.1653
    101  C         24.5840   29.4260   67.6050 C.2   165  ASN165      0.2266
    102  O         25.5900   29.2770   68.2970 O.2   165  ASN165     -0.2867
    103  CB        24.1530   31.5400   66.4020 C.3   165  ASN165      0.1155
    104  CG        23.2790   32.7750   66.2010 C.2   165  ASN165      0.2627
    105  OD1       23.6410   33.6750   65.4450 O.2   165  ASN165     -0.2716
    106  ND2       22.1350   32.8170   66.8580 N.am  165  ASN165     -0.0877
    107  N         15.0610   36.2750   68.0470 N.3   264  GLU264     -0.1245
    108  CA        15.5310   35.2450   67.1180 C.3   264  GLU264      0.1567
    109  C         14.4450   34.2890   66.6270 C.2   264  GLU264      0.2260
    110  O         14.7320   33.4930   65.7260 O.2   264  GLU264     -0.2867
    111  CB        16.8340   34.5520   67.5400 C.3   264  GLU264      0.0388
    112  CG        18.0030   35.5550   67.4730 C.3   264  GLU264      0.1160
    113  CD        18.0060   36.6730   68.4850 C.2   264  GLU264      0.3649
    114  OE1       17.5450   36.4640   69.6190 O.co2 264  GLU264     -0.2457
    115  OE2       18.4010   37.7960   68.0940 O.co2 264  GLU264     -0.2457
@<TRIPOS>BOND
     1    10    11    1
     2    17    15   ar
     3    65    63   ar
     4     4     3    2
     5    15    16   ar
     6    15    14    1
     7    58    59    1
     8    11    14    1
     9    11    12    1
    10    13    12    2
    11     3     2    1
    12    63    62    1
    13    63    64   ar
    14    51    52    2
    15    51    50    1
    16    59    62    1
    17    59    60    1
    18     1     2    1
    19    56    55    1
    20    56    57    1
    21    53    50    1
    22    53    54    1
    23    55    54    1
    24     2     5    1
    25    50    49    1
    26    60    61    2
    27     5     6    1
    28     6     7    1
    29     7     9   am
    30     7     8    2
    31    47    46    1
    32    46    48    1
    33    46    43    1
    34    66    67    1
    35    19    18    1
    36    19    20    1
    37    44    45    2
    38    44    43    1
    39    72    70    1
    40    43    42    1
    41    67    70    1
    42    67    68    1
    43    70    71    1
    44    42    35   am
    45    69    68    2
    46    20    22   am
    47    20    21    2
    48    22    23    1
    49    27    26    1
    50    27    28    1
    51    35    36    2
    52    35    34    1
    53    26    23    1
    54    33    34    1
    55    33    24   am
    56    37    34    1
    57    37    38    1
    58    29    28    1
    59    29    30    2
    60    23    24    1
    61    39    38    1
    62    39    40    1
    63    32    30    1
    64    41    40    1
    65    80    79    1
    66    24    25    2
    67    30    31    1
    68   105   104    2
    69   110   109    2
    70   104   103    1
    71   104   106   am
    72   103   100    1
    73   109   108    1
    74    91    89   ar
    75    91    90   ar
    76    89    87   ar
    77    78    79    1
    78    78    77    1
    79   108   111    1
    80   108   107    1
    81    90    88   ar
    82   112   111    1
    83   112   113    1
    84   101   100    1
    85   101   102    2
    86   100    99    1
    87    87    86   ar
    88    88    86   ar
    89   115   113   ar
    90    86    85    1
    91    77    74    1
    92   113   114   ar
    93    97    96    1
    94    85    82    1
    95    73    74    1
    96    74    75    1
    97    96    98    1
    98    96    93    1
    99    75    76    2
   100    82    81    1
   101    82    83    1
   102    95    94    2
   103    94    93    1
   104    93    92    1
   105    83    84    2
