@<TRIPOS>MOLECULE
tmp/6e0lA00.pdb
 189 178 0 0 0
SMALL
GASTEIGER

@<TRIPOS>ATOM
      1  N         28.6210   30.9500   57.0050 N.3    45  GLN45      -0.1231
      2  CA        27.3380   30.4200   57.4230 C.3    45  GLN45       0.1698
      3  C         26.3410   30.9020   56.3790 C.2    45  GLN45       0.2593
      4  O         26.7490   31.5130   55.3910 O.2    45  GLN45      -0.2718
      5  CB        26.9970   30.9290   58.8240 C.3    45  GLN45       0.0381
      6  CG        26.7240   32.4250   58.8860 C.3    45  GLN45       0.0905
      7  CD        26.1620   32.8320   60.2280 C.2    45  GLN45       0.2608
      8  OE1       25.5210   32.0350   60.9020 O.2    45  GLN45      -0.2717
      9  NE2       26.2720   34.1080   60.5540 N.am   45  GLN45      -0.0878
     10  N         25.0480   30.7150   56.5960 N.am   46  GLY46      -0.1942
     11  CA        24.0630   31.2690   55.6790 C.3    46  GLY46       0.2014
     12  C         23.9430   30.4500   54.4040 C.2    46  GLY46       0.2639
     13  O         24.4740   29.3360   54.2790 O.2    46  GLY46      -0.2714
     14  N         23.2860   31.0590   53.4090 N.am   47  SER47      -0.1949
     15  CA        22.8570   30.3240   52.2170 C.3    47  SER47       0.1924
     16  C         24.0430   29.7790   51.4350 C.2    47  SER47       0.2314
     17  O         23.9580   28.6940   50.8450 O.2    47  SER47      -0.2863
     18  CB        21.9170   31.1870   51.3680 C.3    47  SER47       0.2116
     19  OG        22.5780   32.3030   50.8370 O.3    47  SER47      -0.2180
     20  N         25.2880   26.8110   53.1650 N.3    50  ASN50      -0.1240
     21  CA        24.3440   25.7090   53.1780 C.3    50  ASN50       0.1653
     22  C         23.8440   25.3370   51.7830 C.2    50  ASN50       0.2266
     23  O         22.9820   24.4590   51.6690 O.2    50  ASN50      -0.2867
     24  CB        23.1830   26.0600   54.0990 C.3    50  ASN50       0.1155
     25  CG        23.6000   26.0050   55.5480 C.2    50  ASN50       0.2627
     26  OD1       23.6070   24.9440   56.1800 O.2    50  ASN50      -0.2716
     27  ND2       24.0100   27.1520   56.0700 N.am   50  ASN50      -0.0877
     28  N         21.6390   29.3110   48.4590 N.3    53  ASN53      -0.1225
     29  CA        21.5770   30.6160   47.8150 C.3    53  ASN53       0.1785
     30  C         20.8680   30.4980   46.4690 C.2    53  ASN53       0.2597
     31  O         21.1880   29.6190   45.6650 O.2    53  ASN53      -0.2718
     32  CB        22.9760   31.1760   47.6200 C.3    53  ASN53       0.1169
     33  CG        23.8490   30.2510   46.8090 C.2    53  ASN53       0.2627
     34  OD1       24.1460   29.1350   47.2280 O.2    53  ASN53      -0.2716
     35  ND2       24.2420   30.7010   45.6260 N.am   53  ASN53      -0.0877
     36  N         19.8920   31.3760   46.2260 N.am   54  ILE54      -0.1980
     37  CA        19.1710   31.4020   44.9580 C.3    54  ILE54       0.1595
     38  C         19.7180   32.4390   43.9850 C.2    54  ILE54       0.2287
     39  O         19.3220   32.4350   42.8130 O.2    54  ILE54      -0.2864
     40  CB        17.6680   31.6340   45.2050 C.3    54  ILE54       0.0276
     41  CG1       17.4600   32.9420   45.9860 C.3    54  ILE54       0.0022
     42  CG2       17.0410   30.4470   45.9080 C.3    54  ILE54       0.0022
     43  CD1       15.9980   33.3420   46.0690 C.3    54  ILE54       0.0001
     44  N         24.0990   37.7210   46.3970 N.3    58  SER58      -0.1202
     45  CA        23.6000   38.1190   47.7060 C.3    58  SER58       0.2020
     46  C         24.7690   38.2050   48.6890 C.2    58  SER58       0.2618
     47  O         25.8430   37.6430   48.4660 O.2    58  SER58      -0.2717
     48  CB        22.4670   37.1950   48.1710 C.3    58  SER58       0.2103
     49  OG        22.7180   35.8310   47.9440 O.3    58  SER58      -0.2182
     50  N         24.5480   38.9280   49.7830 N.am   59  ASP59      -0.1973
     51  CA        25.5930   39.1230   50.7740 C.3    59  ASP59       0.1709
     52  C         26.0860   37.8080   51.3560 C.2    59  ASP59       0.2293
     53  O         25.3320   36.8380   51.5110 O.2    59  ASP59      -0.2864
     54  CB        25.0660   40.0020   51.9130 C.3    59  ASP59       0.1436
     55  CG        24.7480   41.4220   51.4700 C.2    59  ASP59       0.3671
     56  OD1       24.9910   41.7550   50.2990 O.co2  59  ASP59      -0.2456
     57  OD2       24.2550   42.2130   52.3040 O.co2  59  ASP59      -0.2456
     58  N         27.5990   35.6170   54.3740 N.3    61  ASP61      -0.1239
     59  CA        27.5280   35.5350   55.8290 C.3    61  ASP61       0.1674
     60  C         28.7910   34.8670   56.3870 C.2    61  ASP61       0.2266
     61  O         28.9950   33.6600   56.1980 O.2    61  ASP61      -0.2867
     62  CB        26.2690   34.7570   56.1560 C.3    61  ASP61       0.1410
     63  CG        25.0270   35.4320   55.5670 C.2    61  ASP61       0.3668
     64  OD1       24.8200   36.6440   55.7870 O.co2  61  ASP61      -0.2456
     65  OD2       24.2730   34.7480   54.8360 O.co2  61  ASP61      -0.2456
     66  N         24.5580   43.8800   64.5740 N.3   116  LYS116     -0.1245
     67  CA        24.9710   42.5690   65.0420 C.3   116  LYS116      0.1561
     68  C         26.2390   42.0750   64.3670 C.2   116  LYS116      0.2260
     69  O         26.7400   41.0000   64.7150 O.2   116  LYS116     -0.2867
     70  CB        23.8740   41.5470   64.7090 C.3   116  LYS116      0.0271
     71  CG        22.5520   41.7100   65.4110 C.3   116  LYS116      0.0035
     72  CD        21.5590   40.6790   64.8910 C.3   116  LYS116      0.0206
     73  CE        20.3520   40.5670   65.7970 C.3   116  LYS116      0.1093
     74  NZ        19.1820   40.0840   65.0300 N.3   116  LYS116     -0.1314
     75  N         24.0750   31.4150   68.8750 N.3   165  ASN165     -0.1240
     76  CA        23.7760   30.7120   67.6440 C.3   165  ASN165      0.1653
     77  C         24.5840   29.4260   67.6050 C.2   165  ASN165      0.2266
     78  O         25.5900   29.2770   68.2970 O.2   165  ASN165     -0.2867
     79  CB        24.1530   31.5400   66.4020 C.3   165  ASN165      0.1155
     80  CG        23.2790   32.7750   66.2010 C.2   165  ASN165      0.2627
     81  OD1       23.6410   33.6750   65.4450 O.2   165  ASN165     -0.2716
     82  ND2       22.1350   32.8170   66.8580 N.am  165  ASN165     -0.0877
     83  N         25.7360   27.8350   64.3890 N.3   167  PRO167     -0.2116
     84  CA        25.8420   27.7120   62.9200 C.3   167  PRO167      0.1372
     85  C         26.4850   26.4320   62.4660 C.2   167  PRO167      0.2244
     86  O         26.1200   25.9200   61.4030 O.2   167  PRO167     -0.2868
     87  CB        26.6930   28.9270   62.5180 C.3   167  PRO167      0.0268
     88  CG        27.5330   29.2140   63.7650 C.3   167  PRO167      0.0207
     89  CD        26.6240   28.8880   64.9250 C.3   167  PRO167      0.0892
     90  N         23.7010   23.9450   62.5870 N.3   170  HIS170     -0.1241
     91  CA        22.7910   24.2390   61.4820 C.3   170  HIS170      0.1621
     92  C         23.3060   23.6180   60.1890 C.2   170  HIS170      0.2264
     93  O         22.5640   22.9520   59.4600 O.2   170  HIS170     -0.2867
     94  CB        22.6330   25.7580   61.3400 C.3   170  HIS170      0.0745
     95  CG        21.7000   26.1810   60.2530 C.ar  170  HIS170      0.0817
     96  ND1       20.3820   26.5060   60.4950 N.ar  170  HIS170     -0.2268
     97  CD2       21.8870   26.3230   58.9160 C.ar  170  HIS170      0.1154
     98  CE1       19.8010   26.8480   59.3580 C.ar  170  HIS170      0.1986
     99  NE2       20.6920   26.7450   58.3860 N.ar  170  HIS170     -0.2212
    100  N         12.2670   29.1460   48.3530 N.3   193  LYS193     -0.1245
    101  CA        12.8310   30.4920   48.3950 C.3   193  LYS193      0.1561
    102  C         12.5080   31.2650   47.1290 C.2   193  LYS193      0.2260
    103  O         12.0900   32.4260   47.1960 O.2   193  LYS193     -0.2867
    104  CB        14.3410   30.4130   48.6150 C.3   193  LYS193      0.0271
    105  CG        14.6700   30.1390   50.0530 C.3   193  LYS193      0.0035
    106  CD        16.1560   30.0060   50.3910 C.3   193  LYS193      0.0206
    107  CE        16.8930   31.3200   50.3360 C.3   193  LYS193      0.1093
    108  NZ        18.3610   31.0830   50.2650 N.3   193  LYS193     -0.1314
    109  N          8.7260   31.9970   47.0190 N.3   196  ARG196     -0.1245
    110  CA         8.5150   33.1410   47.8950 C.3   196  ARG196      0.1563
    111  C          8.9430   34.4330   47.2200 C.2   196  ARG196      0.2260
    112  O          8.2010   35.4170   47.2060 O.2   196  ARG196     -0.2867
    113  CB         9.3150   32.9470   49.1820 C.3   196  ARG196      0.0307
    114  CG         9.3780   34.1650   50.0700 C.3   196  ARG196      0.0489
    115  CD        10.6610   34.1630   50.8560 C.3   196  ARG196      0.2205
    116  NE        11.8290   34.2630   49.9800 N.pl3 196  ARG196     -0.0865
    117  CZ        13.0900   34.1240   50.3880 C.cat 196  ARG196      0.5346
    118  NH1       13.3680   33.8700   51.6590 N.pl3 196  ARG196      0.1354
    119  NH2       14.0780   34.2530   49.5230 N.pl3 196  ARG196      0.1354
    120  N         14.6100   33.8350   55.0430 N.3   211  SER211     -0.1202
    121  CA        15.2990   32.6500   54.5480 C.3   211  SER211      0.2020
    122  C         15.6170   31.6930   55.6790 C.2   211  SER211      0.2619
    123  O         15.4100   30.4840   55.5550 O.2   211  SER211     -0.2717
    124  CB        16.5720   33.0550   53.8130 C.3   211  SER211      0.2103
    125  OG        16.2890   33.7110   52.5780 O.3   211  SER211     -0.2182
    126  N         16.1600   32.2120   56.7800 N.am  212  TYR212     -0.1961
    127  CA        16.5530   31.3400   57.8770 C.3   212  TYR212      0.1771
    128  C         15.3480   30.5990   58.4460 C.2   212  TYR212      0.2619
    129  O         15.4130   29.3890   58.6990 O.2   212  TYR212     -0.2715
    130  CB        17.2600   32.1680   58.9530 C.3   212  TYR212      0.0574
    131  CG        17.5450   31.3780   60.2030 C.ar  212  TYR212     -0.0198
    132  CD1       18.6050   30.4740   60.2430 C.ar  212  TYR212     -0.0009
    133  CD2       16.7650   31.5390   61.3460 C.ar  212  TYR212     -0.0009
    134  CE1       18.8740   29.7410   61.3750 C.ar  212  TYR212      0.0417
    135  CE2       17.0420   30.8110   62.5020 C.ar  212  TYR212      0.0417
    136  CZ        18.1000   29.9100   62.5010 C.ar  212  TYR212      0.1957
    137  OH        18.3900   29.1590   63.6150 O.3   212  TYR212     -0.2866
    138  N         14.2430   31.3130   58.6730 N.am  213  PHE213     -0.1974
    139  CA        13.0260   30.6780   59.1850 C.3   213  PHE213      0.1639
    140  C         12.4880   29.6550   58.1930 C.2   213  PHE213      0.2290
    141  O         11.9250   28.6290   58.5880 O.2   213  PHE213     -0.2864
    142  CB        11.9600   31.7350   59.4960 C.3   213  PHE213      0.0560
    143  CG        12.3150   32.6170   60.6540 C.ar  213  PHE213     -0.0200
    144  CD1       13.1360   32.1410   61.6720 C.ar  213  PHE213     -0.0042
    145  CD2       11.8710   33.9340   60.7090 C.ar  213  PHE213     -0.0042
    146  CE1       13.4930   32.9600   62.7500 C.ar  213  PHE213     -0.0003
    147  CE2       12.2180   34.7530   61.7780 C.ar  213  PHE213     -0.0003
    148  CZ        13.0400   34.2600   62.8010 C.ar  213  PHE213     -0.0000
    149  N         14.2590   27.7740   56.0480 N.3   215  GLU215     -0.1245
    150  CA        15.0630   26.5630   56.1850 C.3   215  GLU215      0.1567
    151  C         14.6420   25.7740   57.4190 C.2   215  GLU215      0.2260
    152  O         14.4180   24.5590   57.3540 O.2   215  GLU215     -0.2867
    153  CB        16.5500   26.9250   56.2720 C.3   215  GLU215      0.0388
    154  CG        17.1430   27.4710   54.9950 C.3   215  GLU215      0.1160
    155  CD        18.6640   27.5150   54.9970 C.2   215  GLU215      0.3649
    156  OE1       19.3040   26.8920   55.8720 O.co2 215  GLU215     -0.2457
    157  OE2       19.2260   28.1780   54.0980 O.co2 215  GLU215     -0.2457
    158  N         19.4760   23.8700   63.6720 N.3   253  ASN253     -0.1240
    159  CA        20.6030   23.5890   64.5660 C.3   253  ASN253      0.1653
    160  C         20.2820   22.5330   65.6200 C.2   253  ASN253      0.2266
    161  O         21.1970   22.0960   66.3300 O.2   253  ASN253     -0.2867
    162  CB        21.0850   24.8850   65.2540 C.3   253  ASN253      0.1155
    163  CG        20.0180   25.5380   66.1600 C.2   253  ASN253      0.2627
    164  OD1       19.1810   24.8610   66.7480 O.2   253  ASN253     -0.2716
    165  ND2       20.0330   26.8680   66.2320 N.am  253  ASN253     -0.0877
    166  N         17.2460   25.0880   69.3140 N.3   256  ASP256     -0.1239
    167  CA        16.2970   26.1440   69.6290 C.3   256  ASP256      0.1674
    168  C         14.9070   25.8290   69.1000 C.2   256  ASP256      0.2266
    169  O         14.7370   25.1700   68.0720 O.2   256  ASP256     -0.2867
    170  CB        16.7940   27.4830   69.0810 C.3   256  ASP256      0.1410
    171  CG        18.1830   27.8320   69.5900 C.2   256  ASP256      0.3668
    172  OD1       18.4560   27.5500   70.7800 O.co2 256  ASP256     -0.2456
    173  OD2       19.0170   28.3360   68.8020 O.co2 256  ASP256     -0.2456
    174  N         13.4080   37.5640   70.0840 N.3   263  PRO263     -0.2102
    175  CA        13.6170   38.1430   68.7340 C.3   263  PRO263      0.1504
    176  C         14.2900   37.2770   67.6890 C.2   263  PRO263      0.2575
    177  O         14.1380   37.5780   66.5040 O.2   263  PRO263     -0.2718
    178  CB        14.5020   39.3670   69.0300 C.3   263  PRO263      0.0282
    179  CG        15.1520   39.0670   70.3740 C.3   263  PRO263      0.0208
    180  CD        14.1470   38.2770   71.1420 C.3   263  PRO263      0.0893
    181  N         15.0610   36.2750   68.0470 N.am  264  GLU264     -0.1980
    182  CA        15.5310   35.2450   67.1180 C.3   264  GLU264      0.1602
    183  C         14.4450   34.2890   66.6270 C.2   264  GLU264      0.2287
    184  O         14.7320   33.4930   65.7260 O.2   264  GLU264     -0.2864
    185  CB        16.8340   34.5520   67.5400 C.3   264  GLU264      0.0415
    186  CG        18.0030   35.5550   67.4730 C.3   264  GLU264      0.1163
    187  CD        18.0060   36.6730   68.4850 C.2   264  GLU264      0.3649
    188  OE1       17.5450   36.4640   69.6190 O.co2 264  GLU264     -0.2457
    189  OE2       18.4010   37.7960   68.0940 O.co2 264  GLU264     -0.2457
@<TRIPOS>BOND
     1    39    38    2
     2    38    37    1
     3    37    40    1
     4    37    36    1
     5    40    42    1
     6    40    41    1
     7    35    33   am
     8    31    30    2
     9    41    43    1
    10    36    30   am
    11    44    45    1
    12    30    29    1
    13    33    34    2
    14    33    32    1
    15   109   110    1
    16   102   103    2
    17   102   101    1
    18   112   111    2
    19   111   110    1
    20    32    29    1
    21    45    48    1
    22    45    46    1
    23    29    28    1
    24   110   113    1
    25    49    48    1
    26   100   101    1
    27   101   104    1
    28    47    46    2
    29   104   105    1
    30    46    50   am
    31   113   114    1
    32   119   117    1
    33    50    51    1
    34   116   117    2
    35   116   115    1
    36   105   106    1
    37   114   115    1
    38   108   107    1
    39    56    55   ar
    40   107   106    1
    41   117   118    1
    42    51    52    1
    43    51    54    1
    44    19    18    1
    45    17    16    2
    46    52    53    2
    47    18    15    1
    48    16    15    1
    49    55    54    1
    50    55    57   ar
    51    23    22    2
    52    22    21    1
    53    15    14    1
    54   125   124    1
    55    20    21    1
    56    21    24    1
    57    14    12   am
    58   124   121    1
    59   157   155   ar
    60    24    25    1
    61    13    12    2
    62    58    59    1
    63    12    11    1
    64   121   120    1
    65   121   122    1
    66    65    63   ar
    67   154   155    1
    68   154   153    1
    69   155   156   ar
    70     4     3    2
    71    25    27   am
    72    25    26    2
    73   123   122    2
    74    63    64   ar
    75    63    62    1
    76   122   126   am
    77    11    10    1
    78    59    62    1
    79    59    60    1
    80   149   150    1
    81   150   153    1
    82   150   151    1
    83    61    60    2
    84     3    10   am
    85     3     2    1
    86   126   127    1
    87     1     2    1
    88   152   151    2
    89     2     5    1
    90   127   128    1
    91   127   130    1
    92   140   141    2
    93   140   139    1
    94    99    97   ar
    95    99    98   ar
    96   128   138   am
    97   128   129    2
    98   138   139    1
    99     5     6    1
   100     6     7    1
   101    97    95   ar
   102   130   131    1
   103   139   142    1
   104    98    96   ar
   105    93    92    2
   106   142   143    1
   107    92    91    1
   108   131   132   ar
   109   131   133   ar
   110     7     9   am
   111     7     8    2
   112   132   134   ar
   113    95    96   ar
   114    95    94    1
   115   143   145   ar
   116   143   144   ar
   117   145   147   ar
   118    94    91    1
   119   133   135   ar
   120   134   136   ar
   121    86    85    2
   122    91    90    1
   123   144   146   ar
   124   147   148   ar
   125    85    84    1
   126   136   135   ar
   127   136   137    1
   128    87    84    1
   129    87    88    1
   130   146   148   ar
   131    84    83    1
   132   158   159    1
   133    88    89    1
   134    68    69    2
   135    68    67    1
   136    83    89    1
   137   159   162    1
   138   159   160    1
   139    66    67    1
   140    70    67    1
   141    70    71    1
   142    72    71    1
   143    72    73    1
   144    74    73    1
   145   162   163    1
   146    81    80    2
   147   160   161    2
   148   184   183    2
   149   163   165   am
   150   163   164    2
   151    80    79    1
   152    80    82   am
   153    79    76    1
   154   177   176    2
   155   183   182    1
   156   182   185    1
   157   182   181    1
   158   186   185    1
   159   186   187    1
   160    77    76    1
   161    77    78    2
   162    76    75    1
   163   176   181   am
   164   176   175    1
   165   169   168    2
   166   189   187   ar
   167   187   188   ar
   168   175   178    1
   169   175   174    1
   170   173   171   ar
   171   178   179    1
   172   170   171    1
   173   170   167    1
   174   168   167    1
   175   166   167    1
   176   171   172   ar
   177   174   180    1
   178   179   180    1
