@<TRIPOS>MOLECULE
tmp/6e0mA00.pdb
 88 82 0 0 0
SMALL
GASTEIGER

@<TRIPOS>ATOM
      1  N         36.1250   51.6900   55.9380 N.3    12  SER12      -0.1202
      2  CA        36.0470   52.1070   57.3260 C.3    12  SER12       0.2020
      3  C         34.9850   53.1690   57.5750 C.2    12  SER12       0.2619
      4  O         34.7710   53.5310   58.7360 O.2    12  SER12      -0.2717
      5  CB        37.4130   52.6540   57.7750 C.3    12  SER12       0.2103
      6  OG        37.6010   53.9570   57.2490 O.3    12  SER12      -0.2182
      7  N         34.3410   53.6820   56.5430 N.am   13  ARG13      -0.1965
      8  CA        33.3980   54.7860   56.6960 C.3    13  ARG13       0.1714
      9  C         32.0080   54.2630   57.0290 C.2    13  ARG13       0.2458
     10  O         31.5970   53.2120   56.5160 O.2    13  ARG13      -0.2730
     11  CB        33.3130   55.6270   55.4210 C.3    13  ARG13       0.0347
     12  CG        34.6430   56.2600   54.9920 C.3    13  ARG13       0.0492
     13  CD        34.5250   56.8510   53.5970 C.3    13  ARG13       0.2205
     14  NE        35.8260   57.2560   53.0530 N.pl3  13  ARG13      -0.0865
     15  CZ        36.3900   58.4430   53.2620 C.cat  13  ARG13       0.5346
     16  NH1       35.7710   59.3550   54.0080 N.pl3  13  ARG13       0.1354
     17  NH2       37.5720   58.7170   52.7250 N.pl3  13  ARG13       0.1354
     18  N         31.2760   54.9790   57.8730 N.am   14  PRO14      -0.2727
     19  CA        29.8700   54.6100   58.0930 C.3    14  PRO14       0.1402
     20  C         29.0810   54.8190   56.8140 C.2    14  PRO14       0.2269
     21  O         29.3460   55.7440   56.0420 O.2    14  PRO14      -0.2865
     22  CB        29.4120   55.5450   59.2150 C.3    14  PRO14       0.0296
     23  CG        30.3900   56.6520   59.2390 C.3    14  PRO14       0.0237
     24  CD        31.6690   56.2100   58.5780 C.3    14  PRO14       0.0939
     25  N         23.4410   56.1090   58.4470 N.3    17  THR17      -0.1218
     26  CA        23.5610   56.8140   59.7110 C.3    17  THR17       0.1862
     27  C         22.2360   57.4710   60.0780 C.2    17  THR17       0.2287
     28  O         21.2990   57.5490   59.2810 O.2    17  THR17      -0.2866
     29  CB        24.6380   57.9070   59.6820 C.3    17  THR17       0.1770
     30  OG1       24.1520   59.0020   58.8900 O.3    17  THR17      -0.2211
     31  CG2       25.9310   57.3710   59.1040 C.3    17  THR17       0.0375
     32  N         27.0620   53.9190   65.5140 N.3    53  ASN53      -0.1240
     33  CA        27.6020   54.4070   64.2400 C.3    53  ASN53       0.1653
     34  C         28.5400   53.3880   63.5940 C.2    53  ASN53       0.2266
     35  O         29.6370   53.7130   63.1360 O.2    53  ASN53      -0.2867
     36  CB        28.3000   55.7590   64.4100 C.3    53  ASN53       0.1155
     37  CG        28.3750   56.5440   63.1150 C.2    53  ASN53       0.2627
     38  OD1       27.5140   56.3960   62.2360 O.2    53  ASN53      -0.2716
     39  ND2       29.3910   57.4010   62.9900 N.am   53  ASN53      -0.0877
     40  N         37.0440   55.2080   70.6990 N.3   163  THR163     -0.1218
     41  CA        37.3490   55.7130   69.3690 C.3   163  THR163      0.1862
     42  C         37.9330   57.1140   69.4680 C.2   163  THR163      0.2287
     43  O         38.8330   57.4710   68.6940 O.2   163  THR163     -0.2866
     44  CB        36.1120   55.6250   68.4660 C.3   163  THR163      0.1770
     45  OG1       36.5650   55.2260   67.1570 O.3   163  THR163     -0.2211
     46  CG2       35.3470   56.9210   68.3650 C.3   163  THR163      0.0375
     47  N         40.2220   57.8170   66.1420 N.3   168  ARG168     -0.1245
     48  CA        38.9700   57.4120   65.5090 C.3   168  ARG168      0.1563
     49  C         39.0850   56.0480   64.8450 C.2   168  ARG168      0.2260
     50  O         38.1590   55.6100   64.1400 O.2   168  ARG168     -0.2867
     51  CB        38.4920   58.4780   64.5160 C.3   168  ARG168      0.0307
     52  CG        38.5150   59.8730   65.1380 C.3   168  ARG168      0.0489
     53  CD        37.4380   60.7990   64.5940 C.3   168  ARG168      0.2205
     54  NE        36.1280   60.1930   64.7670 N.pl3 168  ARG168     -0.0865
     55  CZ        35.4700   60.1420   65.9170 C.cat 168  ARG168      0.5346
     56  NH1       35.9810   60.6960   67.0140 N.pl3 168  ARG168      0.1354
     57  NH2       34.3030   59.5250   65.9740 N.pl3 168  ARG168      0.1354
     58  N         36.3820   52.4400   65.8660 N.3   171  LYS171     -0.1231
     59  CA        35.1640   52.1040   65.1320 C.3   171  LYS171      0.1693
     60  C         35.4480   51.8990   63.6490 C.2   171  LYS171      0.2591
     61  O         34.7310   51.1540   62.9750 O.2   171  LYS171     -0.2718
     62  CB        34.1020   53.1810   65.3240 C.3   171  LYS171      0.0285
     63  CG        33.5770   53.2200   66.7530 C.3   171  LYS171      0.0035
     64  CD        32.4260   54.1580   66.9070 C.3   171  LYS171      0.0206
     65  CE        31.8320   54.0440   68.3070 C.3   171  LYS171      0.1093
     66  NZ        30.6840   55.0020   68.4790 N.3   171  LYS171     -0.1314
     67  N         36.4740   52.5620   63.1210 N.am  172  ARG172     -0.1980
     68  CA        36.8450   52.3360   61.7340 C.3   172  ARG172      0.1597
     69  C         37.3100   50.9050   61.5170 C.2   172  ARG172      0.2287
     70  O         36.9740   50.2960   60.4930 O.2   172  ARG172     -0.2864
     71  CB        37.8910   53.3530   61.3070 C.3   172  ARG172      0.0334
     72  CG        37.2610   54.7270   61.1330 C.3   172  ARG172      0.0492
     73  CD        38.2520   55.8310   60.8740 C.3   172  ARG172      0.2205
     74  NE        37.5960   57.1360   60.9840 N.pl3 172  ARG172     -0.0865
     75  CZ        38.1870   58.3100   60.8450 C.cat 172  ARG172      0.5346
     76  NH1       39.4690   58.3830   60.5310 N.pl3 172  ARG172      0.1354
     77  NH2       37.4860   59.4150   61.0050 N.pl3 172  ARG172      0.1354
     78  N         34.2630   48.6650   61.5790 N.3   175  ARG175     -0.1245
     79  CA        33.5420   48.7130   60.3070 C.3   175  ARG175      0.1563
     80  C         34.2350   47.8790   59.2380 C.2   175  ARG175      0.2260
     81  O         33.5710   47.1500   58.4920 O.2   175  ARG175     -0.2867
     82  CB        33.3660   50.1680   59.8580 C.3   175  ARG175      0.0307
     83  CG        32.4060   50.9620   60.7450 C.3   175  ARG175      0.0489
     84  CD        32.1680   52.3640   60.2500 C.3   175  ARG175      0.2205
     85  NE        31.8190   53.2840   61.3190 N.pl3 175  ARG175     -0.0865
     86  CZ        32.5450   54.3320   61.6940 C.cat 175  ARG175      0.5346
     87  NH1       33.7050   54.6040   61.1170 N.pl3 175  ARG175      0.1354
     88  NH2       32.1280   55.0820   62.6880 N.pl3 175  ARG175      0.1354
@<TRIPOS>BOND
     1    17    15    1
     2    14    15    2
     3    14    13    1
     4    15    16    1
     5    13    12    1
     6    12    11    1
     7    11     8    1
     8     1     2    1
     9    21    20    2
    10    10     9    2
    11     7     8    1
    12     7     3   am
    13     8     9    1
    14    20    19    1
    15     9    18   am
    16     6     5    1
    17     2     3    1
    18     2     5    1
    19     3     4    2
    20    18    19    1
    21    18    24    1
    22    19    22    1
    23    25    26    1
    24    81    80    2
    25    24    23    1
    26    30    29    1
    27    31    29    1
    28    22    23    1
    29    80    79    1
    30    28    27    2
    31    29    26    1
    32    26    27    1
    33    82    79    1
    34    82    83    1
    35    84    83    1
    36    84    85    1
    37    79    78    1
    38    70    69    2
    39    76    75    1
    40    75    74    2
    41    75    77    1
    42    73    74    1
    43    73    72    1
    44    87    86    1
    45    72    71    1
    46    71    68    1
    47    85    86    2
    48    69    68    1
    49    86    88    1
    50    68    67    1
    51    38    37    2
    52    61    60    2
    53    39    37   am
    54    37    36    1
    55    67    60   am
    56    35    34    2
    57    34    33    1
    58    60    59    1
    59    50    49    2
    60    33    36    1
    61    33    32    1
    62    51    52    1
    63    51    48    1
    64    53    54    1
    65    53    52    1
    66    54    55    2
    67    49    48    1
    68    59    62    1
    69    59    58    1
    70    62    63    1
    71    48    47    1
    72    55    57    1
    73    55    56    1
    74    63    64    1
    75    64    65    1
    76    45    44    1
    77    65    66    1
    78    46    44    1
    79    44    41    1
    80    43    42    2
    81    41    42    1
    82    41    40    1
