@<TRIPOS>MOLECULE
tmp/6e0nA00.pdb
 106 99 0 0 0
SMALL
GASTEIGER

@<TRIPOS>ATOM
      1  N         19.5370   51.9630   69.7880 N.3    46  GLN46      -0.1245
      2  CA        20.7100   51.1520   70.0630 C.3    46  GLN46       0.1566
      3  C         21.2130   50.6200   68.7250 C.2    46  GLN46       0.2260
      4  O         20.6760   50.9320   67.6700 O.2    46  GLN46      -0.2867
      5  CB        20.3880   50.0190   71.0400 C.3    46  GLN46       0.0367
      6  CG        19.4990   48.9690   70.4650 C.3    46  GLN46       0.0905
      7  CD        19.3520   47.7850   71.3910 C.2    46  GLN46       0.2608
      8  OE1       19.7140   47.8560   72.5650 O.2    46  GLN46      -0.2717
      9  NE2       18.8210   46.6840   70.8680 N.am   46  GLN46      -0.0878
     10  N         17.4420   50.1310   65.0110 N.3    62  ASP62      -0.1239
     11  CA        16.9590   49.4920   66.2300 C.3    62  ASP62       0.1674
     12  C         16.4280   50.5710   67.1650 C.2    62  ASP62       0.2266
     13  O         17.2030   51.3490   67.7290 O.2    62  ASP62      -0.2867
     14  CB        18.0860   48.7040   66.8890 C.3    62  ASP62       0.1410
     15  CG        18.6860   47.6690   65.9590 C.2    62  ASP62       0.3668
     16  OD1       17.9100   46.9070   65.3460 O.co2  62  ASP62      -0.2456
     17  OD2       19.9290   47.6280   65.8250 O.co2  62  ASP62      -0.2456
     18  N          8.6740   39.3630   65.5380 N.3   100  LYS100     -0.1231
     19  CA         9.9010   38.5830   65.4860 C.3   100  LYS100      0.1693
     20  C         10.2250   38.0570   66.8830 C.2   100  LYS100      0.2592
     21  O          9.5890   38.4210   67.8760 O.2   100  LYS100     -0.2718
     22  CB        11.0650   39.4240   64.9380 C.3   100  LYS100      0.0285
     23  CG        10.7840   40.1170   63.6130 C.3   100  LYS100      0.0035
     24  CD        11.2310   39.2830   62.4080 C.3   100  LYS100      0.0206
     25  CE        12.7190   38.9320   62.4800 C.3   100  LYS100      0.1093
     26  NZ        13.5090   39.4140   61.3070 N.3   100  LYS100     -0.1314
     27  N         11.2420   37.1950   66.9510 N.am  101  ASN101     -0.1960
     28  CA        11.5830   36.5420   68.2110 C.3   101  ASN101      0.1819
     29  C         11.9590   37.5560   69.2830 C.2   101  ASN101      0.2621
     30  O         11.5910   37.3930   70.4530 O.2   101  ASN101     -0.2715
     31  CB        12.7310   35.5550   67.9840 C.3   101  ASN101      0.1195
     32  CG        12.9730   34.6520   69.1760 C.2   101  ASN101      0.2630
     33  OD1       12.0390   34.2510   69.8670 O.2   101  ASN101     -0.2716
     34  ND2       14.2380   34.3290   69.4240 N.am  101  ASN101     -0.0877
     35  N         12.6930   38.6070   68.9120 N.am  102  LYS102     -0.1963
     36  CA        13.2360   39.5420   69.8950 C.3   102  LYS102      0.1728
     37  C         12.7660   40.9790   69.6920 C.2   102  LYS102      0.2616
     38  O         13.2460   41.8820   70.3930 O.2   102  LYS102     -0.2715
     39  CB        14.7690   39.5000   69.8900 C.3   102  LYS102      0.0311
     40  CG        15.3820   38.1830   70.3530 C.3   102  LYS102      0.0038
     41  CD        16.9090   38.2530   70.3550 C.3   102  LYS102      0.0206
     42  CE        17.5430   36.8800   70.5450 C.3   102  LYS102      0.1093
     43  NZ        19.0320   36.9510   70.4760 N.3   102  LYS102     -0.1314
     44  N         11.8430   41.2210   68.7700 N.am  103  CYS103     -0.1968
     45  CA        11.4020   42.5820   68.4820 C.3   103  CYS103      0.1712
     46  C         10.1140   42.5180   67.6700 C.2   103  CYS103      0.2296
     47  O          9.6160   41.4400   67.3320 O.2   103  CYS103     -0.2864
     48  CB        12.4820   43.3450   67.7130 C.3   103  CYS103      0.0983
     49  SG        12.7850   42.7070   66.0410 S.3   103  CYS103     -0.0798
     50  N         13.4940   47.7490   63.6930 N.3   116  ASP116     -0.1239
     51  CA        13.2170   46.7500   64.7130 C.3   116  ASP116      0.1674
     52  C         12.8650   47.5150   65.9850 C.2   116  ASP116      0.2266
     53  O         13.7080   48.2300   66.5360 O.2   116  ASP116     -0.2867
     54  CB        14.4360   45.8560   64.9380 C.3   116  ASP116      0.1410
     55  CG        14.6800   44.9140   63.7890 C.2   116  ASP116      0.3668
     56  OD1       13.7950   44.7940   62.9180 O.co2 116  ASP116     -0.2456
     57  OD2       15.7590   44.2880   63.7620 O.co2 116  ASP116     -0.2456
     58  N         12.0390   47.4340   69.8540 N.3   118  ILE118     -0.1245
     59  CA        12.4120   46.5280   70.9350 C.3   118  ILE118      0.1561
     60  C         11.7270   46.9760   72.2190 C.2   118  ILE118      0.2260
     61  O         12.2950   47.7870   72.9640 O.2   118  ILE118     -0.2867
     62  CB        13.9380   46.4850   71.1100 C.3   118  ILE118      0.0252
     63  CG1       14.6040   46.1340   69.7780 C.3   118  ILE118      0.0019
     64  CG2       14.3350   45.4750   72.1760 C.3   118  ILE118      0.0019
     65  CD1       16.0840   46.4020   69.7460 C.3   118  ILE118      0.0001
     66  N         18.6740   47.3750   80.2320 N.3   137  ILE137     -0.1245
     67  CA        17.3320   46.9950   79.8160 C.3   137  ILE137      0.1561
     68  C         17.2380   45.4780   79.7580 C.2   137  ILE137      0.2260
     69  O         18.2370   44.7690   79.6050 O.2   137  ILE137     -0.2867
     70  CB        16.9350   47.6070   78.4570 C.3   137  ILE137      0.0252
     71  CG1       17.9470   47.2140   77.3780 C.3   137  ILE137      0.0019
     72  CG2       16.8190   49.1240   78.5630 C.3   137  ILE137      0.0019
     73  CD1       17.5180   47.5990   75.9740 C.3   137  ILE137      0.0001
     74  N         14.4610   42.2830   78.1440 N.3   139  PHE139     -0.1241
     75  CA        13.2600   41.8350   77.4600 C.3   139  PHE139      0.1605
     76  C         13.3390   40.3200   77.3310 C.2   139  PHE139      0.2264
     77  O         14.3320   39.6930   77.7100 O.2   139  PHE139     -0.2867
     78  CB        13.0500   42.5740   76.1300 C.3   139  PHE139      0.0534
     79  CG        14.1860   42.4440   75.1660 C.ar  139  PHE139     -0.0203
     80  CD1       15.2630   43.3130   75.2240 C.ar  139  PHE139     -0.0042
     81  CD2       14.1620   41.4730   74.1790 C.ar  139  PHE139     -0.0042
     82  CE1       16.3090   43.2040   74.3260 C.ar  139  PHE139     -0.0003
     83  CE2       15.2020   41.3610   73.2770 C.ar  139  PHE139     -0.0003
     84  CZ        16.2780   42.2270   73.3510 C.ar  139  PHE139     -0.0000
     85  N         16.7950   38.4500   77.6860 N.3   147  ILE147     -0.1231
     86  CA        17.8160   39.2060   76.9720 C.3   147  ILE147      0.1692
     87  C         18.1150   40.4610   77.7800 C.2   147  ILE147      0.2592
     88  O         17.2070   41.2430   78.0880 O.2   147  ILE147     -0.2718
     89  CB        17.3480   39.5710   75.5540 C.3   147  ILE147      0.0266
     90  CG1       16.7860   38.3480   74.8300 C.3   147  ILE147      0.0019
     91  CG2       18.5010   40.1900   74.7640 C.3   147  ILE147      0.0020
     92  CD1       17.7560   37.2220   74.6720 C.3   147  ILE147      0.0001
     93  N         19.3860   40.6530   78.1310 N.am  148  ILE148     -0.1966
     94  CA        19.8350   41.7710   78.9540 C.3   148  ILE148      0.1727
     95  C         20.8800   42.5560   78.1760 C.2   148  ILE148      0.2616
     96  O         21.7560   41.9680   77.5330 O.2   148  ILE148     -0.2715
     97  CB        20.3820   41.2860   80.3160 C.3   148  ILE148      0.0290
     98  CG1       19.2080   40.7950   81.1780 C.3   148  ILE148      0.0022
     99  CG2       21.1770   42.3740   80.9920 C.3   148  ILE148      0.0023
    100  CD1       19.6090   40.1560   82.4800 C.3   148  ILE148      0.0001
    101  N         20.7860   43.8840   78.2380 N.am  149  SER149     -0.1950
    102  CA        21.6420   44.7570   77.4490 C.3   149  SER149      0.1924
    103  C         21.9410   46.0100   78.2570 C.2   149  SER149      0.2314
    104  O         21.1350   46.4360   79.0880 O.2   149  SER149     -0.2863
    105  CB        20.9540   45.1290   76.1270 C.3   149  SER149      0.2116
    106  OG        21.7580   45.9800   75.3320 O.3   149  SER149     -0.2180
@<TRIPOS>BOND
     1    26    25    1
     2    24    25    1
     3    24    23    1
     4    56    55   ar
     5    23    22    1
     6    50    51    1
     7    57    55   ar
     8    55    54    1
     9    51    54    1
    10    51    52    1
    11    22    19    1
    12    10    11    1
    13    16    15   ar
    14    19    18    1
    15    19    20    1
    16    17    15   ar
    17    15    14    1
    18    52    53    2
    19    49    48    1
    20    11    14    1
    21    11    12    1
    22    20    27   am
    23    20    21    2
    24    27    28    1
    25    12    13    2
    26    47    46    2
    27    46    45    1
    28     4     3    2
    29    48    45    1
    30    31    28    1
    31    31    32    1
    32    28    29    1
    33    45    44    1
    34     3     2    1
    35    44    37   am
    36    35    29   am
    37    35    36    1
    38    32    34   am
    39    32    33    2
    40    29    30    2
    41    37    36    1
    42    37    38    2
    43    65    63    1
    44    63    62    1
    45     1     2    1
    46    58    59    1
    47    39    36    1
    48    39    40    1
    49     2     5    1
    50    40    41    1
    51    41    42    1
    52     6     5    1
    53     6     7    1
    54    43    42    1
    55     9     7   am
    56    59    62    1
    57    59    60    1
    58    62    64    1
    59     7     8    2
    60    60    61    2
    61    83    84   ar
    62    83    81   ar
    63    84    82   ar
    64    81    79   ar
    65    82    80   ar
    66    92    90    1
    67    91    89    1
    68    90    89    1
    69    79    80   ar
    70    79    78    1
    71   106   105    1
    72    89    86    1
    73    73    71    1
    74   105   102    1
    75    78    75    1
    76    86    85    1
    77    86    87    1
    78    76    75    1
    79    76    77    2
    80    71    70    1
    81   102   101    1
    82   102   103    1
    83    75    74    1
    84    96    95    2
    85    87    88    2
    86    87    93   am
    87    93    94    1
    88    95   101   am
    89    95    94    1
    90   103   104    2
    91    70    72    1
    92    70    67    1
    93    94    97    1
    94    69    68    2
    95    68    67    1
    96    67    66    1
    97    97    99    1
    98    97    98    1
    99    98   100    1
