@<TRIPOS>MOLECULE
tmp/6e0nA02.pdb
 97 90 0 0 0
SMALL
GASTEIGER

@<TRIPOS>ATOM
      1  N         36.0770   51.9600   55.9350 N.3    11  SER11      -0.1202
      2  CA        35.9900   52.4070   57.3180 C.3    11  SER11       0.2020
      3  C         34.9590   53.5090   57.5200 C.2    11  SER11       0.2619
      4  O         34.7530   53.9320   58.6600 O.2    11  SER11      -0.2717
      5  CB        37.3560   52.9110   57.8000 C.3    11  SER11       0.2103
      6  OG        37.6250   54.2020   57.2740 O.3    11  SER11      -0.2182
      7  N         34.3210   53.9860   56.4590 N.am   12  ARG12      -0.1965
      8  CA        33.3980   55.1040   56.5940 C.3    12  ARG12       0.1714
      9  C         31.9850   54.6010   56.8730 C.2    12  ARG12       0.2458
     10  O         31.5720   53.5740   56.3260 O.2    12  ARG12      -0.2730
     11  CB        33.3760   55.9260   55.3110 C.3    12  ARG12       0.0347
     12  CG        34.6930   56.5920   54.9760 C.3    12  ARG12       0.0492
     13  CD        34.6350   57.2840   53.6160 C.3    12  ARG12       0.2205
     14  NE        35.9450   57.7780   53.2000 N.pl3  12  ARG12      -0.0865
     15  CZ        36.4210   58.9830   53.5000 C.cat  12  ARG12       0.5346
     16  NH1       35.6940   59.8280   54.2200 N.pl3  12  ARG12       0.1354
     17  NH2       37.6250   59.3440   53.0790 N.pl3  12  ARG12       0.1354
     18  N         31.2290   55.3110   57.7090 N.am   13  PRO13      -0.2727
     19  CA        29.8210   54.9360   57.9030 C.3    13  PRO13       0.1402
     20  C         29.0560   55.0850   56.5990 C.2    13  PRO13       0.2269
     21  O         29.3110   56.0000   55.8130 O.2    13  PRO13      -0.2865
     22  CB        29.3180   55.9330   58.9580 C.3    13  PRO13       0.0296
     23  CG        30.5400   56.5750   59.5360 C.3    13  PRO13       0.0237
     24  CD        31.5990   56.5210   58.4620 C.3    13  PRO13       0.0939
     25  N         23.4580   56.5250   58.3740 N.3    16  THR16      -0.1218
     26  CA        23.5380   57.2400   59.6430 C.3    16  THR16       0.1862
     27  C         22.1930   57.8840   59.9670 C.2    16  THR16       0.2287
     28  O         21.2680   57.9080   59.1510 O.2    16  THR16      -0.2866
     29  CB        24.6140   58.3360   59.6310 C.3    16  THR16       0.1770
     30  OG1       24.1810   59.4150   58.7900 O.3    16  THR16      -0.2211
     31  CG2       25.9460   57.7970   59.1320 C.3    16  THR16       0.0375
     32  N         21.5280   60.8680   60.0820 N.3    18  GLU18      -0.1245
     33  CA        21.2760   62.0260   59.2350 C.3    18  GLU18       0.1567
     34  C         20.4750   61.6770   57.9890 C.2    18  GLU18       0.2260
     35  O         19.9610   62.5890   57.3320 O.2    18  GLU18      -0.2867
     36  CB        22.6010   62.6750   58.8230 C.3    18  GLU18       0.0388
     37  CG        23.4330   63.1590   59.9960 C.3    18  GLU18       0.1160
     38  CD        22.6940   64.1670   60.8550 C.2    18  GLU18       0.3649
     39  OE1       22.2510   65.2050   60.3160 O.co2  18  GLU18      -0.2457
     40  OE2       22.5420   63.9100   62.0690 O.co2  18  GLU18      -0.2457
     41  N         27.0430   54.2480   65.4330 N.3    52  ASN52      -0.1240
     42  CA        27.6180   54.7440   64.1800 C.3    52  ASN52       0.1653
     43  C         28.5580   53.7180   63.5480 C.2    52  ASN52       0.2266
     44  O         29.6930   54.0240   63.1750 O.2    52  ASN52      -0.2867
     45  CB        28.3120   56.0950   64.3650 C.3    52  ASN52       0.1155
     46  CG        28.4750   56.8490   63.0580 C.2    52  ASN52       0.2627
     47  OD1       27.7020   56.6630   62.1190 O.2    52  ASN52      -0.2716
     48  ND2       29.4910   57.6980   62.9880 N.am   52  ASN52      -0.0877
     49  N         37.1010   55.3110   70.6630 N.3   162  THR162     -0.1218
     50  CA        37.3780   55.8740   69.3470 C.3   162  THR162      0.1862
     51  C         37.9700   57.2760   69.4630 C.2   162  THR162      0.2287
     52  O         38.8500   57.6440   68.6760 O.2   162  THR162     -0.2866
     53  CB        36.1340   55.8240   68.4570 C.3   162  THR162      0.1770
     54  OG1       36.5340   55.4590   67.1280 O.3   162  THR162     -0.2211
     55  CG2       35.4220   57.1550   68.4230 C.3   162  THR162      0.0375
     56  N         40.2280   57.9810   66.1730 N.3   167  ARG167     -0.1245
     57  CA        38.9780   57.5780   65.5360 C.3   167  ARG167      0.1563
     58  C         39.0860   56.2190   64.8520 C.2   167  ARG167      0.2260
     59  O         38.1870   55.8380   64.0920 O.2   167  ARG167     -0.2867
     60  CB        38.4630   58.6550   64.5740 C.3   167  ARG167      0.0307
     61  CG        38.5620   60.0650   65.1640 C.3   167  ARG167      0.0489
     62  CD        37.5160   61.0270   64.5950 C.3   167  ARG167      0.2205
     63  NE        36.1770   60.4770   64.7690 N.pl3 167  ARG167     -0.0865
     64  CZ        35.5240   60.4380   65.9260 C.cat 167  ARG167      0.5346
     65  NH1       36.0760   60.9400   67.0220 N.pl3 167  ARG167      0.1354
     66  NH2       34.3160   59.8960   65.9840 N.pl3 167  ARG167      0.1354
     67  N         36.3460   52.6240   65.8960 N.3   170  LYS170     -0.1231
     68  CA        35.1250   52.3350   65.1480 C.3   170  LYS170      0.1693
     69  C         35.4050   52.1210   63.6670 C.2   170  LYS170      0.2591
     70  O         34.6880   51.3620   63.0080 O.2   170  LYS170     -0.2718
     71  CB        34.0920   53.4370   65.3580 C.3   170  LYS170      0.0285
     72  CG        33.5930   53.4890   66.7820 C.3   170  LYS170      0.0035
     73  CD        32.3580   54.3440   66.9140 C.3   170  LYS170      0.0206
     74  CE        31.7690   54.2050   68.3090 C.3   170  LYS170      0.1093
     75  NZ        30.6390   55.1500   68.5140 N.3   170  LYS170     -0.1314
     76  N         36.4430   52.7670   63.1320 N.am  171  ARG171     -0.1980
     77  CA        36.8170   52.5400   61.7410 C.3   171  ARG171      0.1597
     78  C         37.2660   51.1030   61.5210 C.2   171  ARG171      0.2287
     79  O         36.9380   50.4990   60.4940 O.2   171  ARG171     -0.2864
     80  CB        37.8760   53.5580   61.3150 C.3   171  ARG171      0.0334
     81  CG        37.2640   54.9430   61.1580 C.3   171  ARG171      0.0492
     82  CD        38.2570   56.0510   60.8780 C.3   171  ARG171      0.2205
     83  NE        37.5980   57.3510   61.0210 N.pl3 171  ARG171     -0.0865
     84  CZ        38.2020   58.5260   60.8890 C.cat 171  ARG171      0.5346
     85  NH1       39.4920   58.5800   60.5980 N.pl3 171  ARG171      0.1354
     86  NH2       37.5120   59.6460   61.0540 N.pl3 171  ARG171      0.1354
     87  N         34.1900   48.8980   61.5810 N.3   174  ARG174     -0.1245
     88  CA        33.4710   48.9620   60.3130 C.3   174  ARG174      0.1563
     89  C         34.1630   48.1230   59.2470 C.2   174  ARG174      0.2260
     90  O         33.5010   47.4080   58.4860 O.2   174  ARG174     -0.2867
     91  CB        33.3170   50.4140   59.8650 C.3   174  ARG174      0.0307
     92  CG        32.4210   51.2400   60.7710 C.3   174  ARG174      0.0489
     93  CD        32.2490   52.6800   60.2480 C.3   174  ARG174      0.2205
     94  NE        31.8850   53.5880   61.3320 N.pl3 174  ARG174     -0.0865
     95  CZ        32.6220   54.6220   61.7250 C.cat 174  ARG174      0.5346
     96  NH1       33.7600   54.9210   61.1030 N.pl3 174  ARG174      0.1354
     97  NH2       32.2090   55.3760   62.7300 N.pl3 174  ARG174      0.1354
@<TRIPOS>BOND
     1    17    15    1
     2    14    15    2
     3    14    13    1
     4    15    16    1
     5    13    12    1
     6    12    11    1
     7    11     8    1
     8    21    20    2
     9     1     2    1
    10    10     9    2
    11     7     8    1
    12     7     3   am
    13     8     9    1
    14    20    19    1
    15     9    18   am
    16     6     5    1
    17     2     3    1
    18     2     5    1
    19    35    34    2
    20     3     4    2
    21    18    19    1
    22    18    24    1
    23    19    22    1
    24    34    33    1
    25    25    26    1
    26    24    23    1
    27    90    89    2
    28    30    29    1
    29    36    33    1
    30    36    37    1
    31    22    23    1
    32    31    29    1
    33    28    27    2
    34    33    32    1
    35    89    88    1
    36    29    26    1
    37    26    27    1
    38    91    88    1
    39    91    92    1
    40    37    38    1
    41    93    92    1
    42    93    94    1
    43    88    87    1
    44    39    38   ar
    45    79    78    2
    46    85    84    1
    47    38    40   ar
    48    82    83    1
    49    82    81    1
    50    84    83    2
    51    84    86    1
    52    96    95    1
    53    81    80    1
    54    80    77    1
    55    94    95    2
    56    78    77    1
    57    95    97    1
    58    77    76    1
    59    47    46    2
    60    48    46   am
    61    70    69    2
    62    46    45    1
    63    76    69   am
    64    44    43    2
    65    43    42    1
    66    69    68    1
    67    59    58    2
    68    42    45    1
    69    42    41    1
    70    60    61    1
    71    60    57    1
    72    62    63    1
    73    62    61    1
    74    63    64    2
    75    58    57    1
    76    68    71    1
    77    68    67    1
    78    71    72    1
    79    57    56    1
    80    64    66    1
    81    64    65    1
    82    72    73    1
    83    73    74    1
    84    54    53    1
    85    74    75    1
    86    55    53    1
    87    53    50    1
    88    52    51    2
    89    50    51    1
    90    50    49    1
