@<TRIPOS>MOLECULE
tmp/6e0nA01.pdb
 203 193 0 0 0
SMALL
GASTEIGER

@<TRIPOS>ATOM
      1  N         19.5370   51.9630   69.7880 N.3    46  GLN46      -0.1231
      2  CA        20.7100   51.1520   70.0630 C.3    46  GLN46       0.1698
      3  C         21.2130   50.6200   68.7250 C.2    46  GLN46       0.2593
      4  O         20.6760   50.9320   67.6700 O.2    46  GLN46      -0.2718
      5  CB        20.3880   50.0190   71.0400 C.3    46  GLN46       0.0381
      6  CG        19.4990   48.9690   70.4650 C.3    46  GLN46       0.0905
      7  CD        19.3520   47.7850   71.3910 C.2    46  GLN46       0.2608
      8  OE1       19.7140   47.8560   72.5650 O.2    46  GLN46      -0.2717
      9  NE2       18.8210   46.6840   70.8680 N.am   46  GLN46      -0.0878
     10  N         22.2440   49.8110   68.7720 N.am   47  GLY47      -0.1942
     11  CA        22.7540   49.1780   67.5740 C.3    47  GLY47       0.2014
     12  C         23.5040   50.1520   66.6780 C.2    47  GLY47       0.2639
     13  O         23.9430   51.2280   67.0960 O.2    47  GLY47      -0.2714
     14  N         23.6240   49.7560   65.4080 N.am   48  SER48      -0.1949
     15  CA        24.5900   50.3910   64.5140 C.3    48  SER48       0.1924
     16  C         24.2990   51.8780   64.3240 C.2    48  SER48       0.2314
     17  O         25.2270   52.6820   64.1570 O.2    48  SER48      -0.2863
     18  CB        24.5810   49.6700   63.1620 C.3    48  SER48       0.2116
     19  OG        23.3200   49.8060   62.5250 O.3    48  SER48      -0.2180
     20  N         25.5970   53.5600   67.6350 N.3    51  ASN51      -0.1240
     21  CA        27.0450   53.5040   67.7670 C.3    51  ASN51       0.1653
     22  C         27.7730   53.9580   66.5090 C.2    51  ASN51       0.2266
     23  O         29.0030   54.0540   66.5230 O.2    51  ASN51      -0.2867
     24  CB        27.4590   52.0790   68.1400 C.3    51  ASN51       0.1155
     25  CG        26.6960   51.5530   69.3470 C.2    51  ASN51       0.2627
     26  OD1       26.5610   52.2400   70.3570 O.2    51  ASN51      -0.2716
     27  ND2       26.1870   50.3330   69.2400 N.am   51  ASN51      -0.0877
     28  N         27.3150   51.4870   60.9390 N.3    54  ASN54      -0.1225
     29  CA        26.6410   50.9540   59.7640 C.3    54  ASN54       0.1785
     30  C         27.5770   50.9210   58.5630 C.2    54  ASN54       0.2597
     31  O         28.2900   51.8930   58.2850 O.2    54  ASN54      -0.2718
     32  CB        25.4340   51.8190   59.4160 C.3    54  ASN54       0.1169
     33  CG        24.2050   51.4620   60.2210 C.2    54  ASN54       0.2627
     34  OD1       23.8370   50.2920   60.3220 O.2    54  ASN54      -0.2716
     35  ND2       23.5630   52.4700   60.8030 N.am   54  ASN54      -0.0877
     36  N         27.5650   49.8060   57.8420 N.am   55  VAL55      -0.1980
     37  CA        28.4030   49.6580   56.6570 C.3    55  VAL55       0.1595
     38  C         27.5820   49.1850   55.4630 C.2    55  VAL55       0.2287
     39  O         28.1360   48.8140   54.4210 O.2    55  VAL55      -0.2864
     40  CB        29.5840   48.7060   56.9190 C.3    55  VAL55       0.0276
     41  CG1       30.4200   49.1980   58.0890 C.3    55  VAL55       0.0022
     42  CG2       29.0750   47.2880   57.1790 C.3    55  VAL55       0.0022
     43  N         20.2990   50.4410   55.9840 N.3    59  SER59      -0.1202
     44  CA        20.3000   49.4600   57.0590 C.3    59  SER59       0.2020
     45  C         19.1020   49.6580   57.9830 C.2    59  SER59       0.2618
     46  O         18.5720   50.7640   58.1270 O.2    59  SER59      -0.2717
     47  CB        21.5820   49.5830   57.8830 C.3    59  SER59       0.2103
     48  OG        22.7320   49.3120   57.1030 O.3    59  SER59      -0.2182
     49  N         18.6900   48.5680   58.6270 N.am   60  ASP60      -0.1973
     50  CA        17.6030   48.6310   59.5950 C.3    60  ASP60       0.1709
     51  C         18.0630   49.3570   60.8570 C.2    60  ASP60       0.2293
     52  O         19.2220   49.2560   61.2710 O.2    60  ASP60      -0.2864
     53  CB        17.1570   47.2210   59.9860 C.3    60  ASP60       0.1436
     54  CG        16.7190   46.3840   58.7970 C.2    60  ASP60       0.3671
     55  OD1       16.5830   46.9370   57.6880 O.co2  60  ASP60      -0.2456
     56  OD2       16.5150   45.1640   58.9770 O.co2  60  ASP60      -0.2456
     57  N         17.4420   50.1310   65.0110 N.3    62  ASP62      -0.1239
     58  CA        16.9590   49.4920   66.2300 C.3    62  ASP62       0.1674
     59  C         16.4280   50.5710   67.1650 C.2    62  ASP62       0.2266
     60  O         17.2030   51.3490   67.7290 O.2    62  ASP62      -0.2867
     61  CB        18.0860   48.7040   66.8890 C.3    62  ASP62       0.1410
     62  CG        18.6860   47.6690   65.9590 C.2    62  ASP62       0.3668
     63  OD1       17.9100   46.9070   65.3460 O.co2  62  ASP62      -0.2456
     64  OD2       19.9290   47.6280   65.8250 O.co2  62  ASP62      -0.2456
     65  N         12.0390   47.4340   69.8540 N.3   118  ILE118     -0.1245
     66  CA        12.4120   46.5280   70.9350 C.3   118  ILE118      0.1561
     67  C         11.7270   46.9760   72.2190 C.2   118  ILE118      0.2260
     68  O         12.2950   47.7870   72.9640 O.2   118  ILE118     -0.2867
     69  CB        13.9380   46.4850   71.1100 C.3   118  ILE118      0.0252
     70  CG1       14.6040   46.1340   69.7780 C.3   118  ILE118      0.0019
     71  CG2       14.3350   45.4750   72.1760 C.3   118  ILE118      0.0019
     72  CD1       16.0840   46.4020   69.7460 C.3   118  ILE118      0.0001
     73  N         16.7950   38.4500   77.6860 N.3   147  ILE147     -0.1231
     74  CA        17.8160   39.2060   76.9720 C.3   147  ILE147      0.1692
     75  C         18.1150   40.4610   77.7800 C.2   147  ILE147      0.2592
     76  O         17.2070   41.2430   78.0880 O.2   147  ILE147     -0.2718
     77  CB        17.3480   39.5710   75.5540 C.3   147  ILE147      0.0266
     78  CG1       16.7860   38.3480   74.8300 C.3   147  ILE147      0.0019
     79  CG2       18.5010   40.1900   74.7640 C.3   147  ILE147      0.0020
     80  CD1       17.7560   37.2220   74.6720 C.3   147  ILE147      0.0001
     81  N         19.3860   40.6530   78.1310 N.am  148  ILE148     -0.1966
     82  CA        19.8350   41.7710   78.9540 C.3   148  ILE148      0.1727
     83  C         20.8800   42.5560   78.1760 C.2   148  ILE148      0.2617
     84  O         21.7560   41.9680   77.5330 O.2   148  ILE148     -0.2715
     85  CB        20.3820   41.2860   80.3160 C.3   148  ILE148      0.0290
     86  CG1       19.2080   40.7950   81.1780 C.3   148  ILE148      0.0022
     87  CG2       21.1770   42.3740   80.9920 C.3   148  ILE148      0.0023
     88  CD1       19.6090   40.1560   82.4800 C.3   148  ILE148      0.0001
     89  N         20.7860   43.8840   78.2380 N.am  149  SER149     -0.1936
     90  CA        21.6420   44.7570   77.4490 C.3   149  SER149      0.2055
     91  C         21.9410   46.0100   78.2570 C.2   149  SER149      0.2643
     92  O         21.1350   46.4360   79.0880 O.2   149  SER149     -0.2714
     93  CB        20.9540   45.1290   76.1270 C.3   149  SER149      0.2130
     94  OG        21.7580   45.9800   75.3320 O.3   149  SER149     -0.2179
     95  N         23.1140   46.5890   78.0060 N.am  150  PHE150     -0.1960
     96  CA        23.5540   47.8280   78.6450 C.3   150  PHE150      0.1756
     97  C         23.9560   48.8060   77.5510 C.2   150  PHE150      0.2461
     98  O         25.1360   49.1550   77.4000 O.2   150  PHE150     -0.2730
     99  CB        24.6910   47.5600   79.6320 C.3   150  PHE150      0.0574
    100  CG        24.2780   46.6820   80.7730 C.ar  150  PHE150     -0.0200
    101  CD1       23.6800   47.2240   81.9010 C.ar  150  PHE150     -0.0042
    102  CD2       24.4540   45.3110   80.7040 C.ar  150  PHE150     -0.0042
    103  CE1       23.2800   46.4170   82.9470 C.ar  150  PHE150     -0.0003
    104  CE2       24.0540   44.4960   81.7470 C.ar  150  PHE150     -0.0003
    105  CZ        23.4660   45.0500   82.8700 C.ar  150  PHE150     -0.0000
    106  N         22.9800   49.2820   76.7730 N.am  151  PRO151     -0.2727
    107  CA        23.3170   50.0830   75.5830 C.3   151  PRO151      0.1402
    108  C         23.9740   51.4170   75.8960 C.2   151  PRO151      0.2269
    109  O         24.7980   51.8810   75.1000 O.2   151  PRO151     -0.2865
    110  CB        21.9680   50.2620   74.8690 C.3   151  PRO151      0.0296
    111  CG        20.9190   50.0580   75.9670 C.3   151  PRO151      0.0237
    112  CD        21.5310   49.0100   76.8860 C.3   151  PRO151      0.0939
    113  N         27.6480   50.6840   76.7380 N.3   154  HIS154     -0.1241
    114  CA        28.2430   50.2870   75.4680 C.3   154  HIS154      0.1621
    115  C         28.5200   51.5060   74.6020 C.2   154  HIS154      0.2264
    116  O         29.6260   51.6760   74.0750 O.2   154  HIS154     -0.2867
    117  CB        27.2850   49.3250   74.7590 C.3   154  HIS154      0.0745
    118  CG        27.8150   48.7690   73.4750 C.ar  154  HIS154      0.0817
    119  ND1       28.4500   47.5470   73.3960 N.ar  154  HIS154     -0.2268
    120  CD2       27.7980   49.2660   72.2160 C.ar  154  HIS154      0.1154
    121  CE1       28.8110   47.3210   72.1450 C.ar  154  HIS154      0.1986
    122  NE2       28.4260   48.3490   71.4090 N.ar  154  HIS154     -0.2212
    123  N         33.3530   44.5370   59.9170 N.3   177  LYS177     -0.1245
    124  CA        31.9710   44.2400   59.5470 C.3   177  LYS177      0.1561
    125  C         31.8310   44.0690   58.0390 C.2   177  LYS177      0.2260
    126  O         31.0940   43.1890   57.5740 O.2   177  LYS177     -0.2867
    127  CB        31.0330   45.3310   60.0620 C.3   177  LYS177      0.0271
    128  CG        30.8230   45.2870   61.5690 C.3   177  LYS177      0.0035
    129  CD        29.9040   46.4030   62.0600 C.3   177  LYS177      0.0206
    130  CE        28.4710   46.2080   61.5740 C.3   177  LYS177      0.1093
    131  NZ        27.5330   47.1650   62.2320 N.3   177  LYS177     -0.1314
    132  N         30.5220   40.6030   56.2110 N.3   181  TYR181     -0.1241
    133  CA        29.4520   40.4740   55.2260 C.3   181  TYR181      0.1605
    134  C         29.9540   39.8130   53.9490 C.2   181  TYR181      0.2264
    135  O         29.2400   39.0050   53.3420 O.2   181  TYR181     -0.2867
    136  CB        28.8440   41.8440   54.9200 C.3   181  TYR181      0.0534
    137  CG        27.9220   42.3640   56.0000 C.ar  181  TYR181     -0.0201
    138  CD1       26.8740   41.5860   56.4830 C.ar  181  TYR181     -0.0009
    139  CD2       28.1000   43.6300   56.5420 C.ar  181  TYR181     -0.0009
    140  CE1       26.0280   42.0580   57.4730 C.ar  181  TYR181      0.0417
    141  CE2       27.2600   44.1090   57.5320 C.ar  181  TYR181      0.0417
    142  CZ        26.2260   43.3190   57.9940 C.ar  181  TYR181      0.1957
    143  OH        25.3850   43.7910   58.9790 O.3   181  TYR181     -0.2866
    144  N         28.8300   38.5090   65.3280 N.3   195  SER195     -0.1202
    145  CA        27.7970   39.5260   65.2340 C.3   195  SER195      0.2020
    146  C         28.4800   40.8820   65.3240 C.2   195  SER195      0.2619
    147  O         29.6470   40.9820   65.7090 O.2   195  SER195     -0.2717
    148  CB        26.7960   39.3930   66.3830 C.3   195  SER195      0.2103
    149  OG        27.4360   39.6840   67.6130 O.3   195  SER195     -0.2182
    150  N         27.7380   41.9440   64.9930 N.am  196  SER196     -0.1937
    151  CA        28.2860   43.2890   65.1540 C.3   196  SER196      0.2055
    152  C         28.7160   43.5210   66.5980 C.2   196  SER196      0.2643
    153  O         29.8180   44.0190   66.8600 O.2   196  SER196     -0.2714
    154  CB        27.2540   44.3290   64.7200 C.3   196  SER196      0.2130
    155  OG        27.7910   45.6380   64.7950 O.3   196  SER196     -0.2179
    156  N         27.8540   43.1630   67.5520 N.am  197  PHE197     -0.1973
    157  CA        28.1990   43.3010   68.9620 C.3   197  PHE197      0.1639
    158  C         29.4950   42.5650   69.2860 C.2   197  PHE197      0.2290
    159  O         30.3840   43.1120   69.9470 O.2   197  PHE197     -0.2864
    160  CB        27.0510   42.7690   69.8220 C.3   197  PHE197      0.0560
    161  CG        27.3340   42.7940   71.2920 C.ar  197  PHE197     -0.0200
    162  CD1       27.1890   43.9620   72.0100 C.ar  197  PHE197     -0.0042
    163  CD2       27.7500   41.6540   71.9540 C.ar  197  PHE197     -0.0042
    164  CE1       27.4520   43.9960   73.3620 C.ar  197  PHE197     -0.0003
    165  CE2       28.0110   41.6830   73.3060 C.ar  197  PHE197     -0.0003
    166  CZ        27.8610   42.8560   74.0110 C.ar  197  PHE197     -0.0000
    167  N         32.4720   44.3600   67.8490 N.3   200  GLU200     -0.1245
    168  CA        32.7370   45.5700   68.6180 C.3   200  GLU200      0.1567
    169  C         33.4540   45.2540   69.9240 C.2   200  GLU200      0.2260
    170  O         34.3690   45.9810   70.3270 O.2   200  GLU200     -0.2867
    171  CB        31.4270   46.3170   68.8700 C.3   200  GLU200      0.0388
    172  CG        30.8770   46.9700   67.6120 C.3   200  GLU200      0.1160
    173  CD        29.4990   47.5640   67.8060 C.2   200  GLU200      0.3649
    174  OE1       29.2600   48.2060   68.8470 O.co2 200  GLU200     -0.2457
    175  OE2       28.6500   47.3770   66.9110 O.co2 200  GLU200     -0.2457
    176  N         33.0740   42.9780   77.8250 N.3   239  GLU239     -0.1245
    177  CA        32.1630   43.6550   76.9180 C.3   239  GLU239      0.1567
    178  C         32.5400   45.1310   76.8720 C.2   239  GLU239      0.2260
    179  O         33.2770   45.6280   77.7290 O.2   239  GLU239     -0.2867
    180  CB        30.7170   43.4430   77.3720 C.3   239  GLU239      0.0388
    181  CG        30.3200   41.9650   77.3250 C.3   239  GLU239      0.1160
    182  CD        28.8940   41.6890   77.7540 C.2   239  GLU239      0.3649
    183  OE1       28.2990   42.5280   78.4610 O.co2 239  GLU239     -0.2457
    184  OE2       28.3700   40.6160   77.3820 O.co2 239  GLU239     -0.2457
    185  N         30.7840   47.5280   77.5680 N.3   241  ASN241     -0.1240
    186  CA        30.2310   48.1700   78.7570 C.3   241  ASN241      0.1653
    187  C         31.1590   48.1000   79.9610 C.2   241  ASN241      0.2266
    188  O         30.9320   48.8260   80.9360 O.2   241  ASN241     -0.2867
    189  CB        28.8660   47.5570   79.0910 C.3   241  ASN241      0.1155
    190  CG        28.9330   46.0510   79.3460 C.2   241  ASN241      0.2627
    191  OD1       29.7980   45.5630   80.0710 O.2   241  ASN241     -0.2716
    192  ND2       28.0120   45.3120   78.7430 N.am  241  ASN241     -0.0877
    193  N         28.7500   32.3960   72.4880 N.3   253  ARG253     -0.1245
    194  CA        29.8830   32.6470   71.6010 C.3   253  ARG253      0.1563
    195  C         31.1880   32.4180   72.3460 C.2   253  ARG253      0.2260
    196  O         31.3060   32.7200   73.5380 O.2   253  ARG253     -0.2867
    197  CB        29.8290   34.0650   71.0290 C.3   253  ARG253      0.0307
    198  CG        28.7220   34.2410   69.9920 C.3   253  ARG253      0.0489
    199  CD        29.1090   35.2270   68.8840 C.3   253  ARG253      0.2205
    200  NE        28.1920   35.1370   67.7450 N.pl3 253  ARG253     -0.0865
    201  CZ        26.9930   35.7070   67.7060 C.cat 253  ARG253      0.5346
    202  NH1       26.5630   36.4140   68.7410 N.pl3 253  ARG253      0.1354
    203  NH2       26.2200   35.5690   66.6370 N.pl3 253  ARG253      0.1354
@<TRIPOS>BOND
     1   135   134    2
     2   134   133    1
     3    39    38    2
     4   136   133    1
     5   136   137    1
     6   133   132    1
     7    38    37    1
     8    43    44    1
     9   137   138   ar
    10   137   139   ar
    11   138   140   ar
    12   139   141   ar
    13    37    40    1
    14    37    36    1
    15    40    42    1
    16    40    41    1
    17    44    47    1
    18    44    45    1
    19    48    47    1
    20   140   142   ar
    21   141   142   ar
    22   126   125    2
    23    55    54   ar
    24    36    30   am
    25    45    46    2
    26    45    49   am
    27   142   143    1
    28   125   124    1
    29    31    30    2
    30    30    29    1
    31    49    50    1
    32    54    56   ar
    33    54    53    1
    34    32    29    1
    35    32    33    1
    36   124   123    1
    37   124   127    1
    38    50    53    1
    39    50    51    1
    40    29    28    1
    41   127   128    1
    42    33    34    2
    43    33    35   am
    44    51    52    2
    45   128   129    1
    46   130   129    1
    47   130   131    1
    48    19    18    1
    49    18    15    1
    50    17    16    2
    51    16    15    1
    52    15    14    1
    53   154   155    1
    54   154   151    1
    55   150   151    1
    56   150   146   am
    57    57    58    1
    58   151   152    1
    59   145   146    1
    60   145   144    1
    61   145   148    1
    62   146   147    2
    63    63    62   ar
    64    14    12   am
    65    64    62   ar
    66    62    61    1
    67    58    61    1
    68    58    59    1
    69   148   149    1
    70    22    23    2
    71    22    21    1
    72   152   153    2
    73   152   156   am
    74   203   201    1
    75    12    13    2
    76    12    11    1
    77   175   173   ar
    78    59    60    2
    79   156   157    1
    80    11    10    1
    81   172   173    1
    82   172   171    1
    83    20    21    1
    84     4     3    2
    85   201   200    2
    86   201   202    1
    87   200   199    1
    88    21    24    1
    89   173   174   ar
    90   167   168    1
    91    24    25    1
    92   168   171    1
    93   168   169    1
    94     3    10   am
    95     3     2    1
    96   199   198    1
    97   157   158    1
    98   157   160    1
    99    27    25   am
   100   158   159    2
   101    25    26    2
   102    72    70    1
   103    70    69    1
   104     1     2    1
   105   160   161    1
   106    65    66    1
   107   169   170    2
   108   198   197    1
   109     2     5    1
   110     6     5    1
   111     6     7    1
   112     9     7   am
   113    66    69    1
   114    66    67    1
   115   197   194    1
   116    69    71    1
   117   161   163   ar
   118   161   162   ar
   119     7     8    2
   120   122   121   ar
   121   122   120   ar
   122   194   195    1
   123   194   193    1
   124   163   165   ar
   125   162   164   ar
   126   121   119   ar
   127   120   118   ar
   128    67    68    2
   129   195   196    2
   130   165   166   ar
   131   164   166   ar
   132   119   118   ar
   133   118   117    1
   134   116   115    2
   135   115   114    1
   136    80    78    1
   137   117   114    1
   138    79    77    1
   139    78    77    1
   140   110   107    1
   141   110   111    1
   142   109   108    2
   143    94    93    1
   144   114   113    1
   145    77    74    1
   146   107   108    1
   147   107   106    1
   148   111   112    1
   149    93    90    1
   150   106   112    1
   151   106    97   am
   152   178   177    1
   153   178   179    2
   154   177   180    1
   155   177   176    1
   156    74    73    1
   157    74    75    1
   158   181   180    1
   159   181   182    1
   160   184   182   ar
   161    98    97    2
   162    90    89    1
   163    90    91    1
   164    84    83    2
   165    97    96    1
   166   185   186    1
   167   182   183   ar
   168    75    76    2
   169    75    81   am
   170    95    91   am
   171    95    96    1
   172    81    82    1
   173    83    89   am
   174    83    82    1
   175    91    92    2
   176    96    99    1
   177   192   190   am
   178   186   189    1
   179   186   187    1
   180    82    85    1
   181   189   190    1
   182   190   191    2
   183    99   100    1
   184   187   188    2
   185    85    87    1
   186    85    86    1
   187   102   100   ar
   188   102   104   ar
   189   100   101   ar
   190    86    88    1
   191   104   105   ar
   192   101   103   ar
   193   105   103   ar
