@<TRIPOS>MOLECULE
tmp/6e0qA00.pdb
 106 99 0 0 0
SMALL
GASTEIGER

@<TRIPOS>ATOM
      1  N        -26.4810   12.5930   11.3840 N.3    42  HIS42      -0.1241
      2  CA       -25.2000   13.0750   10.8690 C.3    42  HIS42       0.1621
      3  C        -24.2290   11.8870   10.6720 C.2    42  HIS42       0.2264
      4  O        -23.4210   11.8660    9.7120 O.2    42  HIS42      -0.2867
      5  CB       -24.6330   14.1740   11.7890 C.3    42  HIS42       0.0745
      6  CG       -23.2100   14.5250   11.4980 C.ar   42  HIS42       0.0817
      7  ND1      -22.1460   13.8760   12.0930 N.ar   42  HIS42      -0.2268
      8  CD2      -22.6620   15.4550   10.6850 C.ar   42  HIS42       0.1154
      9  CE1      -21.0060   14.3980   11.6680 C.ar   42  HIS42       0.1986
     10  NE2      -21.2940   15.3670   10.8130 N.ar   42  HIS42      -0.2212
     11  N        -15.2120   10.4120   11.2760 N.3    60  GLU60      -0.1245
     12  CA       -16.3440   10.4580   12.1850 C.3    60  GLU60       0.1567
     13  C        -16.7470    9.0180   12.5270 C.2    60  GLU60       0.2260
     14  O        -16.7170    8.1320   11.6530 O.2    60  GLU60      -0.2867
     15  CB       -17.5300   11.1860   11.5590 C.3    60  GLU60       0.0388
     16  CG       -18.6940   11.3840   12.5100 C.3    60  GLU60       0.1160
     17  CD       -18.4470   12.3000   13.6980 C.2    60  GLU60       0.3649
     18  OE1      -18.4880   11.7820   14.8470 O.co2  60  GLU60      -0.2457
     19  OE2      -18.2860   13.5390   13.4900 O.co2  60  GLU60      -0.2457
     20  N        -11.1880   17.4170   14.6670 N.3    86  LEU86      -0.1245
     21  CA       -11.4990   16.2370   13.9190 C.3    86  LEU86       0.1561
     22  C        -12.5220   16.5700   12.8420 C.2    86  LEU86       0.2260
     23  O        -13.6460   16.9420   13.1390 O.2    86  LEU86      -0.2867
     24  CB       -12.0310   15.1720   14.8730 C.3    86  LEU86       0.0270
     25  CG       -10.9460   14.4940   15.7010 C.3    86  LEU86       0.0019
     26  CD1      -11.5530   13.4780   16.6380 C.3    86  LEU86       0.0001
     27  CD2       -9.8980   13.8370   14.8130 C.3    86  LEU86       0.0001
     28  N        -14.6870   14.8930    9.3560 N.3    88  ASP88      -0.1239
     29  CA       -15.5530   13.7030    9.2210 C.3    88  ASP88       0.1674
     30  C        -14.9760   12.6350    8.2750 C.2    88  ASP88       0.2266
     31  O        -15.1880   11.4460    8.5000 O.2    88  ASP88      -0.2867
     32  CB       -16.9160   14.1260    8.6850 C.3    88  ASP88       0.1410
     33  CG       -17.7040   14.8720    9.7410 C.2    88  ASP88       0.3668
     34  OD1      -17.7430   14.3600   10.9030 O.co2  88  ASP88      -0.2456
     35  OD2      -18.2670   15.9450    9.3980 O.co2  88  ASP88      -0.2456
     36  N        -15.4500   18.2660    6.1070 N.3    99  GLU99      -0.1231
     37  CA       -16.3730   18.4840    7.1910 C.3    99  GLU99       0.1699
     38  C        -17.8010   18.4400    6.6330 C.2    99  GLU99       0.2592
     39  O        -18.1360   19.1910    5.7100 O.2    99  GLU99      -0.2718
     40  CB       -16.1430   19.8480    7.8490 C.3    99  GLU99       0.0402
     41  CG       -17.2070   20.1810    8.8820 C.3    99  GLU99       0.1161
     42  CD       -17.3820   19.0880    9.9190 C.2    99  GLU99       0.3649
     43  OE1      -16.3740   18.4700   10.2600 O.co2  99  GLU99      -0.2457
     44  OE2      -18.5200   18.8470   10.3540 O.co2  99  GLU99      -0.2457
     45  N        -18.6200   17.5710    7.2240 N.am  100  ILE100     -0.1966
     46  CA       -19.9530   17.3200    6.7860 C.3   100  ILE100      0.1727
     47  C        -20.9180   18.0020    7.7540 C.2   100  ILE100      0.2617
     48  O        -20.9310   17.6640    8.9620 O.2   100  ILE100     -0.2715
     49  CB       -20.2660   15.8150    6.7490 C.3   100  ILE100      0.0290
     50  CG1      -19.3770   15.0390    5.7750 C.3   100  ILE100      0.0022
     51  CG2      -21.7490   15.6200    6.4750 C.3   100  ILE100      0.0023
     52  CD1      -19.9650   14.8540    4.4250 C.3   100  ILE100      0.0001
     53  N        -21.7620   18.8870    7.2180 N.am  101  GLY101     -0.1940
     54  CA       -22.7700   19.5320    8.0320 C.3   101  GLY101      0.2014
     55  C        -24.1530   19.0760    7.6350 C.2   101  GLY101      0.2638
     56  O        -24.4490   18.9890    6.4430 O.2   101  GLY101     -0.2714
     57  N        -24.9830   18.7670    8.6350 N.am  102  VAL102     -0.1977
     58  CA       -26.3920   18.4940    8.4000 C.3   102  VAL102      0.1596
     59  C        -27.1930   19.4550    9.2810 C.2   102  VAL102      0.2287
     60  O        -26.9570   19.4860   10.4830 O.2   102  VAL102     -0.2864
     61  CB       -26.7770   17.0300    8.6900 C.3   102  VAL102      0.0276
     62  CG1      -28.2840   16.8050    8.5490 C.3   102  VAL102      0.0022
     63  CG2      -26.0020   16.0650    7.8100 C.3   102  VAL102      0.0022
     64  N        -25.6440   27.6210    7.9540 N.3   110  TYR110     -0.1241
     65  CA       -24.8340   26.6040    8.6100 C.3   110  TYR110      0.1605
     66  C        -23.4640   26.5110    7.9250 C.2   110  TYR110      0.2264
     67  O        -22.4920   26.2700    8.5890 O.2   110  TYR110     -0.2867
     68  CB       -25.5650   25.2590    8.6760 C.3   110  TYR110      0.0534
     69  CG       -24.9550   24.2680    9.6360 C.ar  110  TYR110     -0.0201
     70  CD1      -24.6640   24.6040   10.9520 C.ar  110  TYR110     -0.0009
     71  CD2      -24.6770   22.9720    9.2290 C.ar  110  TYR110     -0.0009
     72  CE1      -24.0800   23.6930   11.8250 C.ar  110  TYR110      0.0417
     73  CE2      -24.1320   22.0380   10.1010 C.ar  110  TYR110      0.0417
     74  CZ       -23.8300   22.3960   11.4020 C.ar  110  TYR110      0.1957
     75  OH       -23.3110   21.4500   12.2340 O.3   110  TYR110     -0.2866
     76  N        -19.8680   26.7740    9.9860 N.3   114  LYS114     -0.1245
     77  CA       -18.7780   25.8320    9.8090 C.3   114  LYS114      0.1561
     78  C        -17.5150   26.5860    9.3890 C.2   114  LYS114      0.2260
     79  O        -16.4630   26.3580    9.9640 O.2   114  LYS114     -0.2867
     80  CB       -19.1370   24.7440    8.7890 C.3   114  LYS114      0.0271
     81  CG       -20.1110   23.6920    9.3100 C.3   114  LYS114      0.0035
     82  CD       -19.6240   23.0000   10.5320 C.3   114  LYS114      0.0206
     83  CE       -20.4130   21.7700   10.8890 C.3   114  LYS114      0.1093
     84  NZ       -19.6810   20.9930   11.9150 N.3   114  LYS114     -0.1314
     85  N        -16.0610   28.4330   12.2230 N.3   117  LYS117     -0.1245
     86  CA       -15.5520   27.5630   13.3000 C.3   117  LYS117      0.1561
     87  C        -14.1550   27.0290   12.9640 C.2   117  LYS117      0.2260
     88  O        -13.3310   26.9430   13.8540 O.2   117  LYS117     -0.2867
     89  CB       -16.4980   26.3920   13.5790 C.3   117  LYS117      0.0271
     90  CG       -16.1090   25.5090   14.7570 C.3   117  LYS117      0.0035
     91  CD       -17.2030   24.5020   15.1210 C.3   117  LYS117      0.0206
     92  CE       -16.7680   23.4350   16.1090 C.3   117  LYS117      0.1093
     93  NZ       -16.5280   23.9990   17.4590 N.3   117  LYS117     -0.1314
     94  N        -27.3000   19.1780   18.2520 N.3   177  GLY177     -0.1210
     95  CA       -26.7150   18.2350   17.3160 C.3   177  GLY177      0.1956
     96  C        -26.0020   18.9490   16.1780 C.2   177  GLY177      0.2611
     97  O        -25.2220   18.3140   15.4640 O.2   177  GLY177     -0.2717
     98  N        -26.3010   20.2510   16.0000 N.am  178  GLU178     -0.1979
     99  CA       -25.5540   21.1930   15.1370 C.3   178  GLU178      0.1602
    100  C        -24.5410   21.9500   16.0110 C.2   178  GLU178      0.2287
    101  O        -23.5020   22.3940   15.5120 O.2   178  GLU178     -0.2864
    102  CB       -26.5030   22.1640   14.4160 C.3   178  GLU178      0.0415
    103  CG       -27.3900   21.5040   13.3720 C.3   178  GLU178      0.1163
    104  CD       -28.4700   22.3680   12.7110 C.2   178  GLU178      0.3649
    105  OE1      -28.2120   23.5390   12.3170 O.co2 178  GLU178     -0.2457
    106  OE2      -29.5770   21.8390   12.5410 O.co2 178  GLU178     -0.2457
@<TRIPOS>BOND
     1    52    50    1
     2    39    38    2
     3    50    49    1
     4    36    37    1
     5    56    55    2
     6    51    49    1
     7    38    37    1
     8    38    45   am
     9    49    46    1
    10    46    45    1
    11    46    47    1
    12    37    40    1
    13    53    47   am
    14    53    54    1
    15    55    54    1
    16    55    57   am
    17    47    48    2
    18    63    61    1
    19    40    41    1
    20    66    67    2
    21    66    65    1
    22    64    65    1
    23    30    31    2
    24    30    29    1
    25    58    57    1
    26    58    61    1
    27    58    59    1
    28    62    61    1
    29    65    68    1
    30    68    69    1
    31    32    29    1
    32    32    33    1
    33    80    81    1
    34    80    77    1
    35    41    42    1
    36    29    28    1
    37    71    69   ar
    38    71    73   ar
    39    59    60    2
    40    81    82    1
    41    78    77    1
    42    78    79    2
    43    35    33   ar
    44    69    70   ar
    45     4     3    2
    46    33    34   ar
    47    77    76    1
    48    42    43   ar
    49    42    44   ar
    50    73    74   ar
    51    82    83    1
    52     3     2    1
    53     8    10   ar
    54     8     6   ar
    55    10     9   ar
    56     2     1    1
    57     2     5    1
    58    83    84    1
    59    70    72   ar
    60    11    12    1
    61    74    72   ar
    62    74    75    1
    63     6     5    1
    64     6     7   ar
    65    15    12    1
    66    15    16    1
    67    14    13    2
    68     9     7   ar
    69    12    13    1
    70    85    86    1
    71   105   104   ar
    72    16    17    1
    73   106   104   ar
    74   104   103    1
    75    22    23    2
    76    22    21    1
    77    87    86    1
    78    87    88    2
    79    86    89    1
    80   103   102    1
    81    19    17   ar
    82    89    90    1
    83    17    18   ar
    84    21    20    1
    85    21    24    1
    86   102    99    1
    87    90    91    1
    88    27    25    1
    89    24    25    1
    90    91    92    1
    91    99    98    1
    92    99   100    1
    93    97    96    2
    94   101   100    2
    95    25    26    1
    96    98    96   am
    97    92    93    1
    98    96    95    1
    99    95    94    1
