@<TRIPOS>MOLECULE
tmp/6e0zB00.pdb
 199 193 0 0 0
SMALL
GASTEIGER

@<TRIPOS>ATOM
      1  N         -1.0740   21.4500   -4.6610 N.3    29  SER29      -0.1217
      2  CA        -0.6180   22.8350   -4.7090 C.3    29  SER29       0.1889
      3  C          0.4980   22.9200   -5.7440 C.2    29  SER29       0.2288
      4  O          1.0510   21.8950   -6.1530 O.2    29  SER29      -0.2866
      5  CB        -0.1030   23.3020   -3.3290 C.3    29  SER29       0.2089
      6  OG        -1.1540   23.6380   -2.4220 O.3    29  SER29      -0.2183
      7  N          4.0650   25.3800   -6.7680 N.3    31  THR31      -0.1218
      8  CA         5.0460   26.4660   -6.6860 C.3    31  THR31       0.1862
      9  C          5.9450   26.3490   -7.9090 C.2    31  THR31       0.2287
     10  O          6.9290   25.5870   -7.8780 O.2    31  THR31      -0.2866
     11  CB         5.8830   26.3890   -5.4040 C.3    31  THR31       0.1770
     12  OG1        6.6010   25.1370   -5.3710 O.3    31  THR31      -0.2211
     13  CG2        4.9970   26.5320   -4.1260 C.3    31  THR31       0.0375
     14  N         12.0120   26.0690   -3.6980 N.3    41  ALA41      -0.1231
     15  CA        12.5710   25.1200   -2.7500 C.3    41  ALA41       0.1694
     16  C         12.0620   23.7010   -3.0160 C.2    41  ALA41       0.2592
     17  O         12.7690   22.7190   -2.7490 O.2    41  ALA41      -0.2718
     18  CB        12.2450   25.5810   -1.3250 C.3    41  ALA41       0.0304
     19  N         10.8630   23.5760   -3.5800 N.am   42  PHE42      -0.1976
     20  CA        10.2170   22.2850   -3.8030 C.3    42  PHE42       0.1639
     21  C          9.4830   22.2840   -5.1460 C.2    42  PHE42       0.2290
     22  O          8.2640   22.4840   -5.2080 O.2    42  PHE42      -0.2864
     23  CB         9.2500   21.9750   -2.6610 C.3    42  PHE42       0.0560
     24  CG         9.8290   22.1910   -1.2780 C.ar   42  PHE42      -0.0200
     25  CD1       10.7530   21.2960   -0.7520 C.ar   42  PHE42      -0.0042
     26  CD2        9.4050   23.2520   -0.4800 C.ar   42  PHE42      -0.0042
     27  CE1       11.2660   21.4730    0.5290 C.ar   42  PHE42      -0.0003
     28  CE2        9.9130   23.4310    0.8030 C.ar   42  PHE42      -0.0003
     29  CZ        10.8420   22.5440    1.3030 C.ar   42  PHE42      -0.0000
     30  N          2.7300   19.6640   -6.2060 N.3    46  HIS46      -0.1241
     31  CA         2.7660   18.8010   -5.0240 C.3    46  HIS46       0.1621
     32  C          1.4180   18.0990   -4.8540 C.2    46  HIS46       0.2264
     33  O          0.4050   18.7570   -4.6170 O.2    46  HIS46      -0.2867
     34  CB         3.0610   19.5950   -3.7490 C.3    46  HIS46       0.0745
     35  CG         4.1620   20.6060   -3.8760 C.ar   46  HIS46       0.0817
     36  ND1        4.2170   21.7380   -3.0880 N.ar   46  HIS46      -0.2268
     37  CD2        5.2640   20.6430   -4.6640 C.ar   46  HIS46       0.1154
     38  CE1        5.3020   22.4330   -3.3910 C.ar   46  HIS46       0.1986
     39  NE2        5.9520   21.7920   -4.3490 N.ar   46  HIS46      -0.2212
     40  N         -0.6240   15.3050   -2.5520 N.3    48  VAL48      -0.1245
     41  CA        -0.4690   14.8280   -1.1900 C.3    48  VAL48       0.1561
     42  C         -1.4530   13.6920   -0.9180 C.2    48  VAL48       0.2260
     43  O         -2.6190   13.7530   -1.3140 O.2    48  VAL48      -0.2867
     44  CB        -0.6230   15.9750   -0.1720 C.3    48  VAL48       0.0252
     45  CG1       -0.3060   15.4880    1.2160 C.3    48  VAL48       0.0019
     46  CG2        0.3210   17.1110   -0.5320 C.3    48  VAL48       0.0019
     47  N          1.9480   10.3420    5.6500 N.3    70  ILE70      -0.1245
     48  CA         1.5610   11.3260    4.6490 C.3    70  ILE70       0.1561
     49  C          2.7070   11.4330    3.6530 C.2    70  ILE70       0.2260
     50  O          3.8650   11.5930    4.0560 O.2    70  ILE70      -0.2867
     51  CB         1.2380   12.6950    5.2830 C.3    70  ILE70       0.0252
     52  CG1       -0.0120   12.5970    6.1760 C.3    70  ILE70       0.0019
     53  CG2        1.0770   13.7910    4.1980 C.3    70  ILE70       0.0019
     54  CD1       -0.3060   13.8650    7.0140 C.3    70  ILE70       0.0001
     55  N          4.0470   13.4290    0.1880 N.3    72  LYS72      -0.1245
     56  CA         3.9520   14.5180   -0.7700 C.3    72  LYS72       0.1561
     57  C          4.7530   14.1140   -1.9990 C.2    72  LYS72       0.2260
     58  O          5.9670   13.8830   -1.9040 O.2    72  LYS72      -0.2867
     59  CB         4.4660   15.8360   -0.1810 C.3    72  LYS72       0.0271
     60  CG         4.5520   16.9760   -1.2070 C.3    72  LYS72       0.0035
     61  CD         4.6300   18.3620   -0.5670 C.3    72  LYS72       0.0206
     62  CE         3.3010   18.8000    0.0320 C.3    72  LYS72       0.1093
     63  NZ         3.5300   19.7510    1.2160 N.3    72  LYS72      -0.1314
     64  N          8.3800   13.3790   -0.6720 N.3    97  GLN97      -0.1231
     65  CA         8.6530   13.5630    0.7470 C.3    97  GLN97       0.1698
     66  C          7.6120   12.7760    1.5300 C.2    97  GLN97       0.2592
     67  O          6.5240   12.5070    1.0270 O.2    97  GLN97      -0.2718
     68  CB         8.5610   15.0480    1.1760 C.3    97  GLN97       0.0381
     69  CG         9.6050   15.9770    0.6160 C.3    97  GLN97       0.0905
     70  CD         9.0370   17.3450    0.2510 C.2    97  GLN97       0.2608
     71  OE1        7.8620   17.6350    0.4660 O.2    97  GLN97      -0.2717
     72  NE2        9.8770   18.1850   -0.3140 N.am   97  GLN97      -0.0878
     73  N          7.8980   12.4990    2.8010 N.am   98  ALA98      -0.1966
     74  CA         6.9280   11.7930    3.6320 C.3    98  ALA98       0.1728
     75  C          7.0620   12.2280    5.0850 C.2    98  ALA98       0.2616
     76  O          8.0840   12.7860    5.4970 O.2    98  ALA98      -0.2715
     77  CB         7.0910   10.2660    3.5180 C.3    98  ALA98       0.0334
     78  N          6.0100   11.9720    5.8640 N.am   99  MET99      -0.1977
     79  CA         6.1010   12.1580    7.3040 C.3    99  MET99       0.1605
     80  C          5.2650   11.1060    8.0270 C.2    99  MET99       0.2287
     81  O          4.1850   10.7050    7.5700 O.2    99  MET99      -0.2864
     82  CB         5.6770   13.5690    7.7420 C.3    99  MET99       0.0413
     83  CG         4.2910   14.0350    7.2800 C.3    99  MET99       0.0598
     84  SD         4.1100   15.8640    7.3590 S.3    99  MET99      -0.1393
     85  CE         3.2830   16.0310    8.9450 C.3    99  MET99       0.0692
     86  N         10.1150   13.2850    9.7200 N.3   115  PHE115     -0.1227
     87  CA        10.1080   13.7650    8.3440 C.3   115  PHE115      0.1736
     88  C         11.1980   13.0570    7.5390 C.2   115  PHE115      0.2595
     89  O         12.3750   13.0520    7.9290 O.2   115  PHE115     -0.2718
     90  CB        10.3250   15.2830    8.3190 C.3   115  PHE115      0.0547
     91  CG         9.1130   16.1010    8.7650 C.ar  115  PHE115     -0.0202
     92  CD1        8.8590   16.3300   10.1070 C.ar  115  PHE115     -0.0042
     93  CD2        8.2590   16.6850    7.8310 C.ar  115  PHE115     -0.0042
     94  CE1        7.7540   17.1160   10.5280 C.ar  115  PHE115     -0.0003
     95  CE2        7.1570   17.4770    8.2360 C.ar  115  PHE115     -0.0003
     96  CZ         6.9070   17.6930    9.5870 C.ar  115  PHE115     -0.0000
     97  N         10.8100   12.4740    6.4060 N.am  116  PHE116     -0.1962
     98  CA        11.7210   11.6700    5.6030 C.3   116  PHE116      0.1771
     99  C         11.9240   12.3020    4.2300 C.2   116  PHE116      0.2620
    100  O         10.9560   12.6390    3.5460 O.2   116  PHE116     -0.2715
    101  CB        11.1970   10.2290    5.4520 C.3   116  PHE116      0.0574
    102  CG        11.1240    9.4500    6.7510 C.ar  116  PHE116     -0.0200
    103  CD1       12.2760    8.9070    7.3190 C.ar  116  PHE116     -0.0042
    104  CD2        9.9060    9.2320    7.3880 C.ar  116  PHE116     -0.0042
    105  CE1       12.2260    8.1710    8.5100 C.ar  116  PHE116     -0.0003
    106  CE2        9.8440    8.4880    8.5770 C.ar  116  PHE116     -0.0003
    107  CZ        11.0140    7.9710    9.1410 C.ar  116  PHE116     -0.0000
    108  N         13.1810   12.4430    3.8240 N.am  117  GLY117     -0.1954
    109  CA        13.5240   12.7200    2.4470 C.3   117  GLY117      0.1869
    110  C         13.9750   11.4530    1.7410 C.2   117  GLY117      0.2309
    111  O         14.4040   10.4990    2.3660 O.2   117  GLY117     -0.2863
    112  N         14.9970   13.5630    8.9650 N.3   129  GLN129     -0.1245
    113  CA        15.4510   14.9480    8.9120 C.3   129  GLN129      0.1566
    114  C         15.4400   15.5930   10.2900 C.2   129  GLN129      0.2260
    115  O         14.5560   15.3160   11.1060 O.2   129  GLN129     -0.2867
    116  CB        14.5720   15.7570    7.9520 C.3   129  GLN129      0.0367
    117  CG        14.5120   15.1820    6.5410 C.3   129  GLN129      0.0905
    118  CD        15.8060   15.3820    5.7760 C.2   129  GLN129      0.2608
    119  OE1       16.4660   16.4030    5.9260 O.2   129  GLN129     -0.2717
    120  NE2       16.1830   14.4000    4.9590 N.am  129  GLN129     -0.0878
    121  N         15.2430   21.3380   12.4050 N.3   132  GLU132     -0.1231
    122  CA        15.4140   22.6120   11.7210 C.3   132  GLU132      0.1699
    123  C         15.1170   22.5020   10.2320 C.2   132  GLU132      0.2593
    124  O         14.5990   23.4570    9.6390 O.2   132  GLU132     -0.2718
    125  CB        16.8330   23.1290   11.9890 C.3   132  GLU132      0.0402
    126  CG        17.5520   23.8340   10.8520 C.3   132  GLU132      0.1161
    127  CD        18.9890   24.1950   11.2350 C.2   132  GLU132      0.3649
    128  OE1       19.2060   25.3520   11.6660 O.co2 132  GLU132     -0.2457
    129  OE2       19.8950   23.3330   11.1070 O.co2 132  GLU132     -0.2457
    130  N         15.4030   21.3430    9.6210 N.am  133  THR133     -0.1939
    131  CA        15.2190   21.1870    8.1800 C.3   133  THR133      0.2028
    132  C         13.7540   21.0840    7.7850 C.2   133  THR133      0.2642
    133  O         13.3840   21.5260    6.6900 O.2   133  THR133     -0.2714
    134  CB        15.9570   19.9480    7.6600 C.3   133  THR133      0.1808
    135  OG1       17.3060   19.9510    8.1320 O.3   133  THR133     -0.2208
    136  CG2       15.9620   19.9140    6.1150 C.3   133  THR133      0.0379
    137  N         12.9050   20.5150    8.6370 N.am  134  CYS134     -0.1967
    138  CA        11.5600   20.1880    8.1770 C.3   134  CYS134      0.1712
    139  C         10.4800   20.6460    9.1440 C.2   134  CYS134      0.2296
    140  O          9.6650   21.5040    8.7940 O.2   134  CYS134     -0.2864
    141  CB        11.4440   18.6770    7.9320 C.3   134  CYS134      0.0983
    142  SG        12.4230   18.0790    6.5310 S.3   134  CYS134     -0.0798
    143  N          9.3260   24.7460   10.1600 N.3   137  CYS137     -0.1221
    144  CA         8.3240   25.3550    9.2880 C.3   137  CYS137      0.1808
    145  C          6.9330   24.7650    9.5220 C.2   137  CYS137      0.2601
    146  O          5.9360   25.4980    9.5130 O.2   137  CYS137     -0.2717
    147  CB         8.7590   25.1910    7.8310 C.3   137  CYS137      0.0970
    148  SG         7.8150   26.0690    6.5940 S.3   137  CYS137     -0.0800
    149  N          6.8390   23.4480    9.7530 N.am  138  HIS138     -0.1975
    150  CA         5.5240   22.8190    9.9220 C.3   138  HIS138      0.1656
    151  C          4.8690   23.1660   11.2600 C.2   138  HIS138      0.2291
    152  O          3.6500   23.3220   11.3140 O.2   138  HIS138     -0.2864
    153  CB         5.6320   21.2950    9.7610 C.3   138  HIS138      0.0771
    154  CG         5.5700   20.8480    8.3360 C.ar  138  HIS138      0.0820
    155  ND1        4.3950   20.4840    7.7310 N.ar  138  HIS138     -0.2267
    156  CD2        6.5240   20.7790    7.3760 C.ar  138  HIS138      0.1154
    157  CE1        4.6300   20.1720    6.4680 C.ar  138  HIS138      0.1986
    158  NE2        5.9140   20.3510    6.2260 N.ar  138  HIS138     -0.2212
    159  N          0.2850   19.6820   10.2230 N.3   147  VAL147     -0.1231
    160  CA        -0.0670   19.3900    8.8380 C.3   147  VAL147      0.1692
    161  C         -0.7810   20.6030    8.2730 C.2   147  VAL147      0.2592
    162  O         -1.6880   21.1530    8.9100 O.2   147  VAL147     -0.2718
    163  CB        -0.9420   18.1320    8.6980 C.3   147  VAL147      0.0266
    164  CG1       -1.5240   18.0860    7.3090 C.3   147  VAL147      0.0020
    165  CG2       -0.1220   16.8500    8.9930 C.3   147  VAL147      0.0020
    166  N         -0.3690   21.0200    7.0770 N.am  148  PHE148     -0.1976
    167  CA        -0.8760   22.2450    6.4700 C.3   148  PHE148      0.1639
    168  C         -2.2880   22.0170    5.9290 C.2   148  PHE148      0.2290
    169  O         -2.5430   22.1730    4.7360 O.2   148  PHE148     -0.2864
    170  CB         0.0740   22.7140    5.3720 C.3   148  PHE148      0.0560
    171  CG         1.3240   23.3830    5.8910 C.ar  148  PHE148     -0.0200
    172  CD1        1.2840   24.6880    6.3490 C.ar  148  PHE148     -0.0042
    173  CD2        2.5400   22.7060    5.9050 C.ar  148  PHE148     -0.0042
    174  CE1        2.4360   25.3200    6.8200 C.ar  148  PHE148     -0.0003
    175  CE2        3.6990   23.3250    6.3650 C.ar  148  PHE148     -0.0003
    176  CZ         3.6480   24.6400    6.8290 C.ar  148  PHE148     -0.0000
    177  N         -4.5000   23.7300    3.2480 N.3   151  PHE151     -0.1227
    178  CA        -4.3940   23.4080    1.8280 C.3   151  PHE151      0.1736
    179  C         -4.8880   21.9940    1.4990 C.2   151  PHE151      0.2595
    180  O         -4.6110   21.4860    0.4030 O.2   151  PHE151     -0.2718
    181  CB        -2.9420   23.5750    1.3530 C.3   151  PHE151      0.0547
    182  CG        -2.2950   24.8670    1.7710 C.ar  151  PHE151     -0.0202
    183  CD1       -2.9540   26.0940    1.5920 C.ar  151  PHE151     -0.0042
    184  CD2       -1.0280   24.8630    2.3300 C.ar  151  PHE151     -0.0042
    185  CE1       -2.3460   27.2940    1.9710 C.ar  151  PHE151     -0.0003
    186  CE2       -0.4140   26.0440    2.7240 C.ar  151  PHE151     -0.0003
    187  CZ        -1.0720   27.2660    2.5330 C.ar  151  PHE151     -0.0000
    188  N         -5.6100   21.3460    2.4150 N.am  152  TYR152     -0.1976
    189  CA        -6.1080   19.9790    2.2330 C.3   152  TYR152      0.1639
    190  C         -7.6170   19.9470    2.4280 C.2   152  TYR152      0.2290
    191  O         -8.1150   19.5370    3.4870 O.2   152  TYR152     -0.2864
    192  CB        -5.3880   19.0060    3.1700 C.3   152  TYR152      0.0560
    193  CG        -3.9110   19.0260    2.8600 C.ar  152  TYR152     -0.0198
    194  CD1       -3.4740   18.9250    1.5320 C.ar  152  TYR152     -0.0009
    195  CD2       -2.9640   19.2120    3.8570 C.ar  152  TYR152     -0.0009
    196  CE1       -2.1480   18.9900    1.2140 C.ar  152  TYR152      0.0417
    197  CE2       -1.6260   19.2710    3.5430 C.ar  152  TYR152      0.0417
    198  CZ        -1.2290   19.1540    2.2210 C.ar  152  TYR152      0.1957
    199  OH         0.0960   19.2130    1.8940 O.3   152  TYR152     -0.2866
@<TRIPOS>BOND
     1     9    10    2
     2     9     8    1
     3     7     8    1
     4     8    11    1
     5    30    31    1
     6     4     3    2
     7     3     2    1
     8    11    12    1
     9    11    13    1
    10    22    21    2
    11    21    20    1
    12    31    32    1
    13    31    34    1
    14    32    33    2
    15     2     1    1
    16     2     5    1
    17    37    39   ar
    18    37    35   ar
    19    39    38   ar
    20    35    34    1
    21    35    36   ar
    22    20    19    1
    23    20    23    1
    24    14    15    1
    25    19    16   am
    26    38    36   ar
    27     5     6    1
    28    16    15    1
    29    16    17    2
    30    15    18    1
    31    23    24    1
    32    40    41    1
    33    57    58    2
    34    57    56    1
    35    43    42    2
    36    24    25   ar
    37    24    26   ar
    38    60    61    1
    39    60    59    1
    40    41    42    1
    41    41    44    1
    42    56    59    1
    43    56    55    1
    44    25    27   ar
    45    64    65    1
    46    61    62    1
    47    46    44    1
    48    26    28   ar
    49    72    70   am
    50    44    45    1
    51    62    63    1
    52    70    71    2
    53    70    69    1
    54   180   179    2
    55    27    29   ar
    56    69    68    1
    57    65    68    1
    58    65    66    1
    59    28    29   ar
    60    67    66    2
    61   196   194   ar
    62   196   198   ar
    63   181   182    1
    64   181   178    1
    65   179   178    1
    66   179   188   am
    67    66    73   am
    68   194   193   ar
    69   183   182   ar
    70   183   185   ar
    71   110   111    2
    72   110   109    1
    73   182   184   ar
    74   178   177    1
    75   199   198    1
    76   185   187   ar
    77   198   197   ar
    78   189   188    1
    79   189   190    1
    80   189   192    1
    81   184   186   ar
    82   190   191    2
    83   109   108    1
    84   187   186   ar
    85    73    74    1
    86   193   192    1
    87   193   195   ar
    88    77    74    1
    89   197   195   ar
    90   100    99    2
    91    74    75    1
    92    49    50    2
    93    49    48    1
    94   108    99   am
    95    53    51    1
    96    99    98    1
    97    48    51    1
    98    48    47    1
    99   169   168    2
   100   120   118   am
   101    75    76    2
   102    75    78   am
   103    51    52    1
   104   170   171    1
   105   170   167    1
   106   101    98    1
   107   101   102    1
   108    98    97    1
   109   118   119    2
   110   118   117    1
   111    78    79    1
   112   171   173   ar
   113   171   172   ar
   114   173   175   ar
   115   168   167    1
   116   136   134    1
   117    52    54    1
   118   158   157   ar
   119   158   156   ar
   120   172   174   ar
   121   175   176   ar
   122    97    88   am
   123   157   155   ar
   124   167   166    1
   125   142   141    1
   126   117   116    1
   127   148   147    1
   128   133   132    2
   129   102   103   ar
   130   102   104   ar
   131   174   176   ar
   132   166   161   am
   133    83    84    1
   134    83    82    1
   135    79    82    1
   136    79    80    1
   137   164   163    1
   138   103   105   ar
   139    84    85    1
   140   156   154   ar
   141   104   106   ar
   142    88    89    2
   143    88    87    1
   144    81    80    2
   145   134   135    1
   146   134   131    1
   147   155   154   ar
   148   132   131    1
   149   132   137   am
   150   147   144    1
   151    93    95   ar
   152    93    91   ar
   153   141   138    1
   154   116   113    1
   155   138   137    1
   156   138   139    1
   157   131   130    1
   158    95    96   ar
   159   161   160    1
   160   161   162    2
   161    90    87    1
   162    90    91    1
   163   154   153    1
   164    87    86    1
   165   105   107   ar
   166   106   107   ar
   167   163   160    1
   168   163   165    1
   169    91    92   ar
   170   140   139    2
   171   160   159    1
   172   113   112    1
   173   113   114    1
   174   144   145    1
   175   144   143    1
   176   146   145    2
   177   145   149   am
   178    96    94   ar
   179   130   123   am
   180   124   123    2
   181   149   150    1
   182   153   150    1
   183   150   151    1
   184    92    94   ar
   185   123   122    1
   186   114   115    2
   187   126   127    1
   188   126   125    1
   189   129   127   ar
   190   127   128   ar
   191   151   152    2
   192   122   125    1
   193   122   121    1
