@<TRIPOS>MOLECULE
tmp/6e10A01.pdb
 173 162 0 0 0
SMALL
GASTEIGER

@<TRIPOS>ATOM
      1  N        212.4060  225.5590  266.4840 N.3   417  SER417     -0.1202
      2  CA       212.7540  226.9310  266.1360 C.3   417  SER417      0.2020
      3  C        213.4630  227.0200  264.7910 C.2   417  SER417      0.2619
      4  O        213.3420  228.0320  264.0910 O.2   417  SER417     -0.2717
      5  CB       213.6170  227.5450  267.2370 C.3   417  SER417      0.2103
      6  OG       214.8600  226.8770  267.3320 O.3   417  SER417     -0.2182
      7  N        214.2060  225.9840  264.4140 N.am  418  ILE418     -0.1965
      8  CA       214.8930  225.9210  263.1300 C.3   418  ILE418      0.1727
      9  C        214.3510  224.7140  262.3770 C.2   418  ILE418      0.2616
     10  O        214.1550  223.6480  262.9650 O.2   418  ILE418     -0.2715
     11  CB       216.4220  225.8380  263.3200 C.3   418  ILE418      0.0290
     12  CG1      216.9170  227.0440  264.1190 C.3   418  ILE418      0.0022
     13  CG2      217.1510  225.7860  261.9870 C.3   418  ILE418      0.0023
     14  CD1      216.6400  228.3720  263.4490 C.3   418  ILE418      0.0001
     15  N        214.0960  224.8820  261.0800 N.am  419  ILE419     -0.1963
     16  CA       213.3540  223.8710  260.3330 C.3   419  ILE419      0.1727
     17  C        214.2810  223.0130  259.4790 C.2   419  ILE419      0.2616
     18  O        214.3760  221.7990  259.6840 O.2   419  ILE419     -0.2715
     19  CB       212.2700  224.5340  259.4660 C.3   419  ILE419      0.0290
     20  CG1      211.2720  225.2770  260.3520 C.3   419  ILE419      0.0022
     21  CG2      211.5560  223.4970  258.6170 C.3   419  ILE419      0.0023
     22  CD1      210.3190  226.1630  259.5870 C.3   419  ILE419      0.0001
     23  N        214.9730  223.6360  258.5250 N.am  420  GLY420     -0.1955
     24  CA       215.7000  222.8870  257.5210 C.3   420  GLY420      0.1869
     25  C        216.9970  222.2800  258.0170 C.2   420  GLY420      0.2309
     26  O        217.4680  222.5860  259.1130 O.2   420  GLY420     -0.2863
     27  N        223.8230  232.8110  251.4910 N.3   455  THR455     -0.1203
     28  CA       223.4580  233.9350  252.3350 C.3   455  THR455      0.1994
     29  C        221.9480  233.9940  252.5210 C.2   455  THR455      0.2618
     30  O        221.1800  233.8400  251.5660 O.2   455  THR455     -0.2717
     31  CB       223.9800  235.2490  251.7470 C.3   455  THR455      0.1784
     32  OG1      223.4550  235.4280  250.4260 O.3   455  THR455     -0.2211
     33  CG2      225.5030  235.2380  251.7000 C.3   455  THR455      0.0376
     34  N        221.5160  234.1910  253.7690 N.am  456  GLY456     -0.1942
     35  CA       220.1200  234.3740  254.0870 C.3   456  GLY456      0.2014
     36  C        219.5150  233.3210  254.9930 C.2   456  GLY456      0.2639
     37  O        218.4960  233.5950  255.6360 O.2   456  GLY456     -0.2714
     38  N        220.0940  232.1300  255.0610 N.am  457  VAL457     -0.1963
     39  CA       219.5310  231.0750  255.8950 C.3   457  VAL457      0.1727
     40  C        220.0240  231.2460  257.3280 C.2   457  VAL457      0.2617
     41  O        220.9820  231.9800  257.5970 O.2   457  VAL457     -0.2715
     42  CB       219.8750  229.6860  255.3270 C.3   457  VAL457      0.0290
     43  CG1      219.2490  229.5150  253.9560 C.3   457  VAL457      0.0023
     44  CG2      221.3680  229.5030  255.2300 C.3   457  VAL457      0.0023
     45  N        219.3540  230.5710  258.2610 N.am  458  GLY458     -0.1940
     46  CA       219.6150  230.7510  259.6770 C.3   458  GLY458      0.2014
     47  C        220.8430  230.0440  260.2180 C.2   458  GLY458      0.2639
     48  O        220.7330  229.2110  261.1240 O.2   458  GLY458     -0.2714
     49  N        222.0210  230.3750  259.6800 N.am  459  LYS459     -0.1963
     50  CA       223.2430  229.6970  260.0950 C.3   459  LYS459      0.1728
     51  C        223.6860  230.1140  261.4890 C.2   459  LYS459      0.2617
     52  O        223.9310  229.2550  262.3430 O.2   459  LYS459     -0.2715
     53  CB       224.3650  229.9720  259.0980 C.3   459  LYS459      0.0311
     54  CG       224.1010  229.4320  257.7150 C.3   459  LYS459      0.0038
     55  CD       225.3030  229.6140  256.8090 C.3   459  LYS459      0.0206
     56  CE       225.5150  231.0720  256.4660 C.3   459  LYS459      0.1093
     57  NZ       224.4100  231.6070  255.6270 N.3   459  LYS459     -0.1314
     58  N        223.7800  231.4210  261.7430 N.am  460  THR460     -0.1937
     59  CA       224.2210  231.9000  263.0470 C.3   460  THR460      0.2028
     60  C        223.0820  231.7360  264.0430 C.2   460  THR460      0.2642
     61  O        223.2970  231.9030  265.2480 O.2   460  THR460     -0.2714
     62  CB       224.6620  233.3600  262.9450 C.3   460  THR460      0.1808
     63  OG1      223.5490  234.1640  262.5330 O.3   460  THR460     -0.2208
     64  CG2      225.7860  233.5080  261.9280 C.3   460  THR460      0.0379
     65  N        221.8790  231.4180  263.5660 N.am  461  GLU461     -0.1976
     66  CA       220.7310  231.2940  264.4530 C.3   461  GLU461      0.1602
     67  C        220.7860  230.0550  265.3360 C.2   461  GLU461      0.2287
     68  O        220.2430  230.0510  266.4470 O.2   461  GLU461     -0.2864
     69  CB       219.4660  231.3670  263.6270 C.3   461  GLU461      0.0415
     70  CG       219.4160  232.6730  263.0360 C.3   461  GLU461      0.1163
     71  CD       219.4410  233.7760  263.9990 C.2   461  GLU461      0.3649
     72  OE1      218.8050  233.7340  265.0860 O.co2 461  GLU461     -0.2457
     73  OE2      220.1940  234.6720  263.6140 O.co2 461  GLU461     -0.2457
     74  N        231.7060  234.1180  263.7110 N.3   525  ASP525     -0.1225
     75  CA       230.6470  234.6720  262.8800 C.3   525  ASP525      0.1805
     76  C        230.8570  234.3560  261.4060 C.2   525  ASP525      0.2597
     77  O        230.0080  233.7100  260.7910 O.2   525  ASP525     -0.2718
     78  CB       230.5530  236.1870  263.0960 C.3   525  ASP525      0.1424
     79  CG       229.2530  236.7890  262.5620 C.2   525  ASP525      0.3668
     80  OD1      228.4140  236.0530  262.0050 O.co2 525  ASP525     -0.2456
     81  OD2      229.0610  238.0140  262.7200 O.co2 525  ASP525     -0.2456
     82  N        231.9400  234.8440  260.8130 N.am  526  GLU526     -0.1979
     83  CA       232.1680  234.7160  259.3750 C.3   526  GLU526      0.1602
     84  C        233.6510  234.5160  259.1210 C.2   526  GLU526      0.2287
     85  O        234.3890  235.4920  258.9720 O.2   526  GLU526     -0.2864
     86  CB       231.6700  235.9530  258.6320 C.3   526  GLU526      0.0415
     87  CG       230.1730  236.0700  258.5110 C.3   526  GLU526      0.1163
     88  CD       229.7170  237.3900  257.9030 C.2   526  GLU526      0.3649
     89  OE1      230.5710  238.2710  257.6760 O.co2 526  GLU526     -0.2457
     90  OE2      228.4960  237.5540  257.6410 O.co2 526  GLU526     -0.2457
     91  N        230.2020  232.2010  254.9550 N.3   567  ASN567     -0.1240
     92  CA       229.2420  232.1490  253.8620 C.3   567  ASN567      0.1653
     93  C        229.8000  231.4130  252.6540 C.2   567  ASN567      0.2266
     94  O        229.2750  230.3570  252.2820 O.2   567  ASN567     -0.2867
     95  CB       228.8170  233.5610  253.4570 C.3   567  ASN567      0.1155
     96  CG       227.9590  234.2360  254.5050 C.2   567  ASN567      0.2627
     97  OD1      227.0790  233.6150  255.0960 O.2   567  ASN567     -0.2716
     98  ND2      228.2060  235.5190  254.7340 N.am  567  ASN567     -0.0877
     99  N        216.6790  228.5320  251.0010 N.3   625  LEU625     -0.1245
    100  CA       215.2150  228.6840  251.0510 C.3   625  LEU625      0.1561
    101  C        214.5020  229.1760  249.7810 C.2   625  LEU625      0.2260
    102  O        215.0640  229.9330  248.9950 O.2   625  LEU625     -0.2867
    103  CB       214.8280  229.5800  252.2290 C.3   625  LEU625      0.0270
    104  CG       215.7000  229.4320  253.4750 C.3   625  LEU625      0.0019
    105  CD1      215.3120  230.4590  254.5290 C.3   625  LEU625      0.0001
    106  CD2      215.6000  228.0190  254.0280 C.3   625  LEU625      0.0001
    107  N        208.4380  228.8370  257.5460 N.3   633  ILE633     -0.1245
    108  CA       209.2310  229.6170  258.4900 C.3   633  ILE633      0.1561
    109  C        208.3970  230.6950  259.1570 C.2   633  ILE633      0.2260
    110  O        208.4640  230.8780  260.3800 O.2   633  ILE633     -0.2867
    111  CB       210.4300  230.2340  257.7440 C.3   633  ILE633      0.0252
    112  CG1      211.3990  229.1480  257.3040 C.3   633  ILE633      0.0019
    113  CG2      211.1210  231.3420  258.5630 C.3   633  ILE633      0.0019
    114  CD1      212.3990  229.6420  256.3260 C.3   633  ILE633      0.0001
    115  N        207.7970  232.7440  263.0780 N.3   637  ARG637     -0.1245
    116  CA       208.1690  234.1130  263.4060 C.3   637  ARG637      0.1563
    117  C        207.0010  234.8750  264.0040 C.2   637  ARG637      0.2260
    118  O        207.2010  235.7530  264.8480 O.2   637  ARG637     -0.2867
    119  CB       208.6730  234.8330  262.1630 C.3   637  ARG637      0.0307
    120  CG       209.9350  234.2400  261.5930 C.3   637  ARG637      0.0489
    121  CD       211.1300  234.4490  262.5120 C.3   637  ARG637      0.2205
    122  NE       211.3700  235.8620  262.7970 N.pl3 637  ARG637     -0.0865
    123  CZ       212.0090  236.7040  261.9920 C.cat 637  ARG637      0.5346
    124  NH1      212.4530  236.3020  260.8120 N.pl3 637  ARG637      0.1354
    125  NH2      212.1720  237.9630  262.3590 N.pl3 637  ARG637      0.1354
    126  N        206.8670  233.6940  267.4480 N.3   640  LYS640     -0.1245
    127  CA       207.8070  234.4690  268.2490 C.3   640  LYS640      0.1561
    128  C        207.2180  235.8190  268.6340 C.2   640  LYS640      0.2260
    129  O        207.5960  236.3880  269.6630 O.2   640  LYS640     -0.2867
    130  CB       209.1220  234.6560  267.4970 C.3   640  LYS640      0.0271
    131  CG       209.9290  233.3810  267.3560 C.3   640  LYS640      0.0035
    132  CD       211.2410  233.6300  266.6380 C.3   640  LYS640      0.0206
    133  CE       212.0340  232.3430  266.4890 C.3   640  LYS640      0.1093
    134  NZ       213.3180  232.5690  265.7710 N.3   640  LYS640     -0.1314
    135  N        219.5090  238.3360  247.8050 N.3   671  LEU671     -0.1245
    136  CA       219.6630  238.4120  249.2510 C.3   671  LEU671      0.1561
    137  C        219.3010  237.1110  249.9530 C.2   671  LEU671      0.2260
    138  O        219.5980  236.9700  251.1440 O.2   671  LEU671     -0.2867
    139  CB       218.8190  239.5580  249.8150 C.3   671  LEU671      0.0270
    140  CG       219.2520  240.9720  249.4200 C.3   671  LEU671      0.0019
    141  CD1      218.2680  242.0090  249.9460 C.3   671  LEU671      0.0001
    142  CD2      220.6610  241.2670  249.9140 C.3   671  LEU671      0.0001
    143  N        216.2250  235.6060  250.7110 N.3   673  ALA673     -0.1231
    144  CA       215.0940  235.7390  251.6460 C.3   673  ALA673      0.1694
    145  C        215.4990  236.3570  252.9850 C.2   673  ALA673      0.2591
    146  O        214.8240  236.1610  253.9990 O.2   673  ALA673     -0.2718
    147  CB       214.3690  234.4060  251.8680 C.3   673  ALA673      0.0304
    148  N        216.6070  237.0960  253.0040 N.am  674  ARG674     -0.1980
    149  CA       216.8570  238.0350  254.0970 C.3   674  ARG674      0.1597
    150  C        215.7820  239.1090  254.2670 C.2   674  ARG674      0.2287
    151  O        215.3680  239.3330  255.4190 O.2   674  ARG674     -0.2864
    152  CB       218.2400  238.6740  253.9420 C.3   674  ARG674      0.0334
    153  CG       218.5080  239.7920  254.9460 C.3   674  ARG674      0.0492
    154  CD       218.5150  239.2480  256.3670 C.3   674  ARG674      0.2205
    155  NE       219.5320  238.2330  256.4820 N.pl3 674  ARG674     -0.0865
    156  CZ       220.8010  238.5200  256.7320 C.cat 674  ARG674      0.5346
    157  NH1      221.1330  239.7860  256.9170 N.pl3 674  ARG674      0.1354
    158  NH2      221.7270  237.5680  256.8110 N.pl3 674  ARG674      0.1354
    159  N        212.7780  238.9610  254.1960 N.3   676  THR676     -0.1203
    160  CA       211.6190  238.4090  254.8800 C.3   676  THR676      0.1994
    161  C        211.6300  238.7120  256.3810 C.2   676  THR676      0.2617
    162  O        210.5530  238.7560  256.9920 O.2   676  THR676     -0.2717
    163  CB       211.5370  236.9070  254.6140 C.3   676  THR676      0.1784
    164  OG1      212.7170  236.2660  255.1120 O.3   676  THR676     -0.2211
    165  CG2      211.4170  236.6450  253.1110 C.3   676  THR676      0.0376
    166  N        212.8080  239.0740  256.8830 N.am  677  LEU677     -0.1979
    167  CA       212.9760  239.5290  258.2530 C.3   677  LEU677      0.1596
    168  C        212.8150  241.0630  258.2780 C.2   677  LEU677      0.2287
    169  O        212.7230  241.6640  259.3480 O.2   677  LEU677     -0.2864
    170  CB       214.3480  239.1280  258.7920 C.3   677  LEU677      0.0297
    171  CG       214.8010  239.8240  260.0770 C.3   677  LEU677      0.0022
    172  CD1      215.8310  238.9800  260.8130 C.3   677  LEU677      0.0001
    173  CD2      215.3560  241.2070  259.7730 C.3   677  LEU677      0.0001
@<TRIPOS>BOND
     1   135   136    1
     2   102   101    2
     3   136   139    1
     4   136   137    1
     5   140   139    1
     6   140   142    1
     7   140   141    1
     8   101   100    1
     9   137   138    2
    10    32    31    1
    11   143   144    1
    12    99   100    1
    13   100   103    1
    14    27    28    1
    15    30    29    2
    16   144   147    1
    17   144   145    1
    18    33    31    1
    19    31    28    1
    20   103   104    1
    21    94    93    2
    22    28    29    1
    23    29    34   am
    24    93    92    1
    25   145   148   am
    26   145   146    2
    27   148   149    1
    28   165   163    1
    29    95    92    1
    30    95    96    1
    31   104   106    1
    32   104   105    1
    33    34    35    1
    34    92    91    1
    35   152   149    1
    36   152   153    1
    37    43    42    1
    38    35    36    1
    39   149   150    1
    40   159   160    1
    41   150   151    2
    42    96    98   am
    43    96    97    2
    44   163   160    1
    45   163   164    1
    46   160   161    1
    47   153   154    1
    48    36    38   am
    49    36    37    2
    50    38    39    1
    51    44    42    1
    52    42    39    1
    53    57    56    1
    54    39    40    1
    55   114   112    1
    56   154   155    1
    57   161   166   am
    58   161   162    2
    59    56    55    1
    60   155   156    2
    61   156   158    1
    62   156   157    1
    63    55    54    1
    64   166   167    1
    65   112   111    1
    66    40    41    2
    67    40    45   am
    68    24    25    1
    69    24    23    1
    70   107   108    1
    71    90    88   ar
    72    89    88   ar
    73    54    53    1
    74   111   108    1
    75   111   113    1
    76    88    87    1
    77    25    26    2
    78   167   168    1
    79   167   170    1
    80    45    46    1
    81   168   169    2
    82   108   109    1
    83    87    86    1
    84    23    17   am
    85    21    19    1
    86    86    83    1
    87   170   171    1
    88    85    84    2
    89    53    50    1
    90    84    83    1
    91   109   110    2
    92    83    82    1
    93    19    16    1
    94    19    20    1
    95    17    18    2
    96    17    16    1
    97    22    20    1
    98    46    47    1
    99    49    50    1
   100    49    47   am
   101   173   171    1
   102   171   172    1
   103    50    51    1
   104    47    48    2
   105    16    15    1
   106    77    76    2
   107   124   123    1
   108    82    76   am
   109    15     9   am
   110    76    75    1
   111    51    58   am
   112    51    52    2
   113   120   119    1
   114   120   121    1
   115    58    59    1
   116    64    62    1
   117    13    11    1
   118   123   125    1
   119   123   122    2
   120    80    79   ar
   121   119   116    1
   122     9    10    2
   123     9     8    1
   124   121   122    1
   125    63    62    1
   126    79    81   ar
   127    79    78    1
   128    75    78    1
   129    75    74    1
   130    62    59    1
   131    70    69    1
   132    70    71    1
   133    59    60    1
   134   115   116    1
   135     8    11    1
   136     8     7    1
   137    11    12    1
   138   116   117    1
   139    14    12    1
   140    65    60   am
   141    65    66    1
   142    73    71   ar
   143    69    66    1
   144    71    72   ar
   145   117   118    2
   146    60    61    2
   147     4     3    2
   148     7     3   am
   149    66    67    1
   150     3     2    1
   151    67    68    2
   152   134   133    1
   153     2     1    1
   154     2     5    1
   155   133   132    1
   156   132   131    1
   157     5     6    1
   158   131   130    1
   159   126   127    1
   160   130   127    1
   161   127   128    1
   162   128   129    2
