@<TRIPOS>MOLECULE
tmp/6e10A00.pdb
 144 136 0 0 0
SMALL
GASTEIGER

@<TRIPOS>ATOM
      1  N        248.1160  209.1410  307.9140 N.3    24  ILE24      -0.1231
      2  CA       248.0990  209.7690  306.6000 C.3    24  ILE24       0.1692
      3  C        248.4170  208.7260  305.5330 C.2    24  ILE24       0.2592
      4  O        249.2140  207.8040  305.7560 O.2    24  ILE24      -0.2718
      5  CB       249.1000  210.9410  306.5980 C.3    24  ILE24       0.0266
      6  CG1      248.7290  211.9310  307.7040 C.3    24  ILE24       0.0019
      7  CG2      249.1580  211.6660  305.2550 C.3    24  ILE24       0.0020
      8  CD1      247.3270  212.5000  307.5740 C.3    24  ILE24       0.0001
      9  N        247.7540  208.8450  304.3780 N.am   25  TYR25      -0.1976
     10  CA       247.9870  207.9230  303.2740 C.3    25  TYR25       0.1639
     11  C        249.4150  208.0550  302.7520 C.2    25  TYR25       0.2290
     12  O        250.0240  209.1270  302.7900 O.2    25  TYR25      -0.2864
     13  CB       246.9860  208.1620  302.1360 C.3    25  TYR25       0.0560
     14  CG       247.1490  207.1630  301.0120 C.ar   25  TYR25      -0.0198
     15  CD1      246.7290  205.8470  301.1660 C.ar   25  TYR25      -0.0009
     16  CD2      247.7740  207.5160  299.8220 C.ar   25  TYR25      -0.0009
     17  CE1      246.9000  204.9200  300.1570 C.ar   25  TYR25       0.0417
     18  CE2      247.9520  206.5950  298.8080 C.ar   25  TYR25       0.0417
     19  CZ       247.5100  205.2980  298.9820 C.ar   25  TYR25       0.1957
     20  OH       247.6790  204.3690  297.9840 O.3    25  TYR25      -0.2866
     21  N        252.7140  208.5640  301.1000 N.3    27  ARG27      -0.1245
     22  CA       253.5710  209.3040  300.1960 C.3    27  ARG27       0.1563
     23  C        254.9970  208.8820  300.4640 C.2    27  ARG27       0.2260
     24  O        255.8780  209.6860  300.7640 O.2    27  ARG27      -0.2867
     25  CB       253.3540  210.8050  300.3190 C.3    27  ARG27       0.0307
     26  CG       252.0060  211.1970  299.7380 C.3    27  ARG27       0.0489
     27  CD       251.8030  212.6830  299.7450 C.3    27  ARG27       0.2205
     28  NE       252.7560  213.3340  298.8580 N.pl3  27  ARG27      -0.0865
     29  CZ       252.5240  213.5890  297.5780 C.cat  27  ARG27       0.5346
     30  NH1      251.3610  213.2690  297.0370 N.pl3  27  ARG27       0.1354
     31  NH2      253.4500  214.1850  296.8460 N.pl3  27  ARG27       0.1354
     32  N        250.5660  224.5630  295.2690 N.3    52  PRO52      -0.2116
     33  CA       249.5980  224.9230  296.3120 C.3    52  PRO52       0.1372
     34  C        248.6590  223.7710  296.6750 C.2    52  PRO52       0.2244
     35  O        248.1240  223.7440  297.7780 O.2    52  PRO52      -0.2868
     36  CB       248.7890  226.0590  295.6700 C.3    52  PRO52       0.0268
     37  CG       249.5230  226.4420  294.4260 C.3    52  PRO52       0.0207
     38  CD       250.2700  225.2230  293.9910 C.3    52  PRO52       0.0892
     39  N        249.5840  220.4850  296.5180 N.3    54  THR54      -0.1203
     40  CA       250.3870  219.3060  296.8290 C.3    54  THR54       0.1994
     41  C        250.0320  218.6090  298.1380 C.2    54  THR54       0.2618
     42  O        250.1060  217.3850  298.2250 O.2    54  THR54      -0.2717
     43  CB       251.8960  219.6060  296.8140 C.3    54  THR54       0.1784
     44  OG1      252.1600  220.7920  297.5710 O.3    54  THR54      -0.2211
     45  CG2      252.3850  219.7820  295.3880 C.3    54  THR54       0.0376
     46  N        249.6520  219.3730  299.1560 N.am   55  GLY55      -0.1942
     47  CA       249.3490  218.7620  300.4350 C.3    55  GLY55       0.2014
     48  C        250.6090  218.4570  301.2160 C.2    55  GLY55       0.2639
     49  O        250.6380  217.5650  302.0630 O.2    55  GLY55      -0.2714
     50  N        251.6550  219.2230  300.9280 N.am   56  LYS56      -0.1963
     51  CA       252.9530  219.0540  301.5680 C.3    56  LYS56       0.1728
     52  C        252.8580  219.2430  303.0780 C.2    56  LYS56       0.2617
     53  O        253.5070  218.5210  303.8300 O.2    56  LYS56      -0.2715
     54  CB       253.9630  220.0400  300.9830 C.3    56  LYS56       0.0311
     55  CG       253.4600  221.4710  300.9190 C.3    56  LYS56       0.0038
     56  CD       254.0560  222.2230  299.7430 C.3    56  LYS56       0.0206
     57  CE       253.1680  223.3870  299.3430 C.3    56  LYS56       0.1093
     58  NZ       251.7390  222.9760  299.2520 N.3    56  LYS56      -0.1314
     59  N        252.0420  220.1910  303.5350 N.am   57  THR57      -0.1937
     60  CA       251.8950  220.4200  304.9740 C.3    57  THR57       0.2028
     61  C        251.3560  219.1680  305.6600 C.2    57  THR57       0.2643
     62  O        251.8220  218.7900  306.7320 O.2    57  THR57      -0.2714
     63  CB       250.9740  221.6110  305.2910 C.3    57  THR57       0.1808
     64  OG1      251.5300  222.8040  304.7280 O.3    57  THR57      -0.2208
     65  CG2      250.8120  221.7790  306.7910 C.3    57  THR57       0.0379
     66  N        250.3790  218.5170  305.0340 N.am   58  THR58      -0.1936
     67  CA       249.8110  217.2840  305.5670 C.3    58  THR58       0.2028
     68  C        250.8730  216.1910  305.6390 C.2    58  THR58       0.2642
     69  O        250.9160  215.4290  306.6040 O.2    58  THR58      -0.2714
     70  CB       248.6300  216.7630  304.7160 C.3    58  THR58       0.1808
     71  OG1      248.2850  217.7070  303.6920 O.3    58  THR58      -0.2208
     72  CG2      247.4170  216.5070  305.5960 C.3    58  THR58       0.0379
     73  N        251.7180  216.1140  304.6110 N.am   59  ILE59      -0.1977
     74  CA       252.7870  215.1260  304.5610 C.3    59  ILE59       0.1596
     75  C        253.6300  215.1680  305.8250 C.2    59  ILE59       0.2287
     76  O        253.9370  214.1220  306.3950 O.2    59  ILE59      -0.2864
     77  CB       253.7080  215.3230  303.3470 C.3    59  ILE59       0.0276
     78  CG1      253.1220  214.6320  302.1180 C.3    59  ILE59       0.0022
     79  CG2      255.0950  214.7770  303.6450 C.3    59  ILE59       0.0022
     80  CD1      252.8940  215.5600  300.9450 C.3    59  ILE59       0.0001
     81  N        255.0910  228.4800  306.4340 N.3   123  GLU123     -0.1245
     82  CA       255.5320  229.1670  305.2190 C.3   123  GLU123      0.1567
     83  C        256.8320  229.8830  305.5670 C.2   123  GLU123      0.2260
     84  O        256.8290  230.8230  306.3650 O.2   123  GLU123     -0.2867
     85  CB       254.4900  230.1480  304.7010 C.3   123  GLU123      0.0388
     86  CG       253.1750  229.5470  304.2390 C.3   123  GLU123      0.1160
     87  CD       252.1770  229.4630  305.3670 C.2   123  GLU123      0.3649
     88  OE1      252.4910  229.9480  306.4740 O.co2 123  GLU123     -0.2457
     89  OE2      251.0760  228.9240  305.1490 O.co2 123  GLU123     -0.2457
     90  N        254.7260  227.6440  298.2430 N.3   159  THR159     -0.1218
     91  CA       254.3530  227.4870  296.8510 C.3   159  THR159      0.1862
     92  C        255.5720  227.7530  295.9770 C.2   159  THR159      0.2287
     93  O        256.5690  228.3230  296.4290 O.2   159  THR159     -0.2866
     94  CB       253.2180  228.4380  296.4820 C.3   159  THR159      0.1770
     95  OG1      253.7100  229.7780  296.4570 O.3   159  THR159     -0.2211
     96  CG2      252.1120  228.3560  297.5210 C.3   159  THR159      0.0375
     97  N        243.7240  207.8740  297.6740 N.3   193  ILE193     -0.1245
     98  CA       243.5640  208.6900  298.8690 C.3   193  ILE193      0.1561
     99  C        242.1140  208.6680  299.3360 C.2   193  ILE193      0.2260
    100  O        241.8390  208.5260  300.5330 O.2   193  ILE193     -0.2867
    101  CB       244.0640  210.1220  298.6020 C.3   193  ILE193      0.0252
    102  CG1      245.5710  210.1130  298.3360 C.3   193  ILE193      0.0019
    103  CG2      243.7460  211.0440  299.7690 C.3   193  ILE193      0.0019
    104  CD1      246.1000  211.4170  297.7910 C.3   193  ILE193      0.0001
    105  N        239.6860  207.6370  303.0130 N.3   197  LEU197     -0.1245
    106  CA       238.8200  208.5460  303.7510 C.3   197  LEU197      0.1561
    107  C        237.3580  208.1210  303.7540 C.2   197  LEU197      0.2260
    108  O        236.5050  208.9100  304.1720 O.2   197  LEU197     -0.2867
    109  CB       238.9400  209.9660  303.1910 C.3   197  LEU197      0.0270
    110  CG       240.0740  210.8690  303.6930 C.3   197  LEU197      0.0019
    111  CD1      241.4620  210.4590  303.1810 C.3   197  LEU197      0.0001
    112  CD2      239.7680  212.3220  303.3380 C.3   197  LEU197      0.0001
    113  N        236.6050  207.7250  307.3930 N.3   200  LYS200     -0.1245
    114  CA       236.3890  209.0240  308.0170 C.3   200  LYS200      0.1561
    115  C        234.9680  209.5110  307.7720 C.2   200  LYS200      0.2260
    116  O        234.2360  209.8270  308.7140 O.2   200  LYS200     -0.2867
    117  CB       237.3990  210.0410  307.4920 C.3   200  LYS200      0.0271
    118  CG       238.8240  209.7950  307.9410 C.3   200  LYS200      0.0035
    119  CD       239.7460  210.8870  307.4300 C.3   200  LYS200      0.0206
    120  CE       241.1830  210.6450  307.8530 C.3   200  LYS200      0.1093
    121  NZ       242.0940  211.7040  307.3380 N.3   200  LYS200     -0.1314
    122  N        245.1250  216.7440  294.2400 N.3   231  PRO231     -0.2102
    123  CA       244.5340  216.0350  295.3900 C.3   231  PRO231      0.1504
    124  C        243.5810  216.8700  296.2190 C.2   231  PRO231      0.2575
    125  O        242.8140  216.3070  297.0030 O.2   231  PRO231     -0.2718
    126  CB       245.7560  215.6170  296.2140 C.3   231  PRO231      0.0282
    127  CG       246.7210  216.6440  295.9530 C.3   231  PRO231      0.0208
    128  CD       246.5430  217.0530  294.5220 C.3   231  PRO231      0.0893
    129  N        243.5850  218.1960  296.0670 N.am  232  ASP232     -0.1974
    130  CA       242.5760  218.9840  296.7620 C.3   232  ASP232      0.1708
    131  C        241.2140  218.8450  296.1070 C.2   232  ASP232      0.2293
    132  O        240.2040  218.7280  296.8070 O.2   232  ASP232     -0.2864
    133  CB       242.9760  220.4540  296.8180 C.3   232  ASP232      0.1436
    134  CG       244.1300  220.6920  297.7470 C.2   232  ASP232      0.3671
    135  OD1      244.3910  219.8210  298.5980 O.co2 232  ASP232     -0.2456
    136  OD2      244.7410  221.7750  297.6780 O.co2 232  ASP232     -0.2456
    137  N        239.2980  215.8210  297.0020 N.3   235  ILE235     -0.1245
    138  CA       238.8600  215.8460  298.3880 C.3   235  ILE235      0.1561
    139  C        237.8500  216.9610  298.6400 C.2   235  ILE235      0.2260
    140  O        236.8800  216.7630  299.3760 O.2   235  ILE235     -0.2867
    141  CB       240.0900  215.9550  299.3200 C.3   235  ILE235      0.0252
    142  CG1      240.9770  214.7210  299.1600 C.3   235  ILE235      0.0019
    143  CG2      239.6950  216.0220  300.7740 C.3   235  ILE235      0.0019
    144  CD1      242.2960  214.8140  299.9020 C.3   235  ILE235      0.0001
@<TRIPOS>BOND
     1    38    37    1
     2    38    32    1
     3   122   128    1
     4   122   123    1
     5    37    36    1
     6   128   127    1
     7    32    33    1
     8    45    43    1
     9   123   126    1
    10   123   124    1
    11    36    33    1
    12   127   126    1
    13    92    93    2
    14    92    91    1
    15   129   124   am
    16   129   130    1
    17   131   130    1
    18   131   132    2
    19   124   125    2
    20    33    34    1
    21    95    94    1
    22    94    91    1
    23    94    96    1
    24    39    40    1
    25    34    35    2
    26   130   133    1
    27    43    40    1
    28    43    44    1
    29   133   134    1
    30    40    41    1
    31    31    29    1
    32    91    90    1
    33   137   138    1
    34    30    29    1
    35    29    28    2
    36    97    98    1
    37   136   134   ar
    38   134   135   ar
    39   104   102    1
    40    20    19    1
    41    41    42    2
    42    41    46   am
    43   102   101    1
    44   138   139    1
    45   138   141    1
    46   101    98    1
    47   101   103    1
    48   139   140    2
    49    18    19   ar
    50    18    16   ar
    51    28    27    1
    52    98    99    1
    53    19    17   ar
    54    46    47    1
    55   142   141    1
    56   142   144    1
    57    58    57    1
    58   141   143    1
    59    99   100    2
    60    57    56    1
    61    26    27    1
    62    26    25    1
    63    56    55    1
    64    16    14   ar
    65    17    15   ar
    66    22    25    1
    67    22    23    1
    68    22    21    1
    69    47    48    1
    70    23    24    2
    71    55    54    1
    72    50    48   am
    73    50    51    1
    74    80    78    1
    75    54    51    1
    76    14    15   ar
    77    14    13    1
    78    48    49    2
    79    51    52    1
    80    78    77    1
    81    13    10    1
    82    11    12    2
    83    11    10    1
    84   105   106    1
    85    52    59   am
    86    52    53    2
    87   111   110    1
    88   109   110    1
    89   109   106    1
    90    10     9    1
    91   112   110    1
    92    77    79    1
    93    77    74    1
    94    59    60    1
    95    71    70    1
    96   106   107    1
    97   107   108    2
    98    86    85    1
    99    86    87    1
   100     9     3   am
   101    74    73    1
   102    74    75    1
   103    73    68   am
   104    85    82    1
   105    70    67    1
   106    70    72    1
   107    64    63    1
   108    60    63    1
   109    60    61    1
   110    66    67    1
   111    66    61   am
   112    89    87   ar
   113    82    83    1
   114    82    81    1
   115     7     5    1
   116    63    65    1
   117    87    88   ar
   118     3     4    2
   119     3     2    1
   120    83    84    2
   121    67    68    1
   122    68    69    2
   123    61    62    2
   124    75    76    2
   125     5     2    1
   126     5     6    1
   127     2     1    1
   128   121   120    1
   129   113   114    1
   130   119   120    1
   131   119   118    1
   132   117   118    1
   133   117   114    1
   134     8     6    1
   135   115   114    1
   136   115   116    2
