@<TRIPOS>MOLECULE
tmp/6e12B00.pdb
 205 192 0 0 0
SMALL
GASTEIGER

@<TRIPOS>ATOM
      1  N         59.2300   48.2170   11.1550 N.3    16  LEU16      -0.1245
      2  CA        58.6720   47.7490   12.4180 C.3    16  LEU16       0.1561
      3  C         59.2560   48.5130   13.6000 C.2    16  LEU16       0.2260
      4  O         58.5470   48.7800   14.5790 O.2    16  LEU16      -0.2867
      5  CB        58.9010   46.2430   12.5690 C.3    16  LEU16       0.0270
      6  CG        58.0770   45.4370   11.5440 C.3    16  LEU16       0.0019
      7  CD1       58.5410   43.9920   11.4710 C.3    16  LEU16       0.0001
      8  CD2       56.5630   45.5000   11.8520 C.3    16  LEU16       0.0001
      9  N         53.2410   48.7780   17.7120 N.3    21  TYR21      -0.1227
     10  CA        53.0050   47.3440   17.8480 C.3    21  TYR21       0.1736
     11  C         51.7970   46.9030   17.0200 C.2    21  TYR21       0.2596
     12  O         50.8900   47.6870   16.7300 O.2    21  TYR21      -0.2718
     13  CB        52.7710   46.9910   19.3250 C.3    21  TYR21       0.0548
     14  CG        54.0230   46.8960   20.1860 C.ar   21  TYR21      -0.0200
     15  CD1       54.8130   48.0100   20.4340 C.ar   21  TYR21      -0.0009
     16  CD2       54.3960   45.6970   20.7710 C.ar   21  TYR21      -0.0009
     17  CE1       55.9500   47.9300   21.2270 C.ar   21  TYR21       0.0417
     18  CE2       55.5220   45.6040   21.5780 C.ar   21  TYR21       0.0417
     19  CZ        56.3030   46.7280   21.8020 C.ar   21  TYR21       0.1957
     20  OH        57.4360   46.6500   22.6110 O.3    21  TYR21      -0.2866
     21  N         51.7820   45.6270   16.6440 N.am   22  GLY22      -0.1942
     22  CA        50.6500   45.1290   15.8860 C.3    22  GLY22       0.2014
     23  C         50.5950   45.5910   14.4470 C.2    22  GLY22       0.2639
     24  O         49.5150   45.6190   13.8500 O.2    22  GLY22      -0.2714
     25  N         51.7380   45.9490   13.8620 N.am   23  ASN23      -0.1958
     26  CA        51.8050   46.3100   12.4480 C.3    23  ASN23       0.1819
     27  C         51.8650   45.0250   11.6150 C.2    23  ASN23       0.2621
     28  O         52.9160   44.6300   11.1030 O.2    23  ASN23      -0.2715
     29  CB        53.0120   47.2090   12.2060 C.3    23  ASN23       0.1195
     30  CG        53.0770   47.7250   10.7990 C.2    23  ASN23       0.2630
     31  OD1       52.3300   47.2720    9.9310 O.2    23  ASN23      -0.2716
     32  ND2       53.9880   48.6680   10.5490 N.am   23  ASN23      -0.0877
     33  N         50.6950   44.3730   11.4580 N.am   24  PHE24      -0.1974
     34  CA        50.6510   43.0410   10.8430 C.3    24  PHE24       0.1639
     35  C         51.0660   43.0570    9.3820 C.2    24  PHE24       0.2290
     36  O         51.6560   42.0830    8.8920 O.2    24  PHE24      -0.2864
     37  CB        49.2540   42.4300   10.9680 C.3    24  PHE24       0.0560
     38  CG        48.8560   42.1670   12.3780 C.ar   24  PHE24      -0.0200
     39  CD1       49.5560   41.2470   13.1400 C.ar   24  PHE24      -0.0042
     40  CD2       47.8050   42.8600   12.9600 C.ar   24  PHE24      -0.0042
     41  CE1       49.2110   41.0120   14.4700 C.ar   24  PHE24      -0.0003
     42  CE2       47.4510   42.6320   14.2790 C.ar   24  PHE24      -0.0003
     43  CZ        48.1540   41.7090   15.0380 C.ar   24  PHE24      -0.0000
     44  N         54.7850   43.0480    9.4820 N.3    27  ILE27      -0.1245
     45  CA        55.2190   41.7560    9.9990 C.3    27  ILE27       0.1561
     46  C         55.1210   40.6980    8.9100 C.2    27  ILE27       0.2260
     47  O         56.0440   39.8920    8.7130 O.2    27  ILE27      -0.2867
     48  CB        54.3970   41.3760   11.2420 C.3    27  ILE27       0.0252
     49  CG1       54.8120   42.2400   12.4260 C.3    27  ILE27       0.0019
     50  CG2       54.5500   39.8950   11.5910 C.3    27  ILE27       0.0019
     51  CD1       53.9280   42.0180   13.6290 C.3    27  ILE27       0.0001
     52  N         58.0200   38.6020    7.2600 N.3    31  SER31      -0.1217
     53  CA        57.9140   37.1460    7.2670 C.3    31  SER31       0.1889
     54  C         58.2200   36.5490    5.8960 C.2    31  SER31       0.2288
     55  O         58.9790   35.5770    5.7930 O.2    31  SER31      -0.2866
     56  CB        56.5160   36.7340    7.7270 C.3    31  SER31       0.2089
     57  OG        56.5130   35.3620    8.0900 O.3    31  SER31      -0.2183
     58  N         61.4840   34.1470    6.5320 N.3    35  ASN35      -0.1240
     59  CA        61.2250   32.7020    6.5560 C.3    35  ASN35       0.1653
     60  C         61.1030   32.1740    5.1300 C.2    35  ASN35       0.2266
     61  O         60.0140   32.1220    4.5590 O.2    35  ASN35      -0.2867
     62  CB        59.9530   32.3950    7.3330 C.3    35  ASN35       0.1155
     63  CG        60.1370   32.4950    8.8270 C.2    35  ASN35       0.2627
     64  OD1       61.2480   32.3380    9.3520 O.2    35  ASN35      -0.2716
     65  ND2       59.0400   32.7440    9.5310 N.am   35  ASN35      -0.0877
     66  N         60.7310   27.2680    6.3800 N.3    40  LEU40      -0.1245
     67  CA        59.3630   26.8270    6.6340 C.3    40  LEU40       0.1561
     68  C         59.2620   25.3020    6.6370 C.2    40  LEU40       0.2260
     69  O         58.5600   24.7240    7.4700 O.2    40  LEU40      -0.2867
     70  CB        58.4280   27.4360    5.5880 C.3    40  LEU40       0.0270
     71  CG        57.5430   28.6290    5.9500 C.3    40  LEU40       0.0019
     72  CD1       58.0330   29.3730    7.1650 C.3    40  LEU40       0.0001
     73  CD2       57.4040   29.5700    4.7740 C.3    40  LEU40       0.0001
     74  N         60.5140   23.9290    9.9440 N.3    43  VAL43      -0.1245
     75  CA        59.4980   24.1410   10.9740 C.3    43  VAL43       0.1561
     76  C         58.3770   23.1140   10.8360 C.2    43  VAL43       0.2260
     77  O         57.9480   22.4990   11.8160 O.2    43  VAL43      -0.2867
     78  CB        58.9610   25.5850   10.8950 C.3    43  VAL43       0.0252
     79  CG1       57.8310   25.7890   11.8780 C.3    43  VAL43       0.0019
     80  CG2       60.0960   26.5920   11.1410 C.3    43  VAL43       0.0019
     81  N         50.1710   26.3120    8.2150 N.3   104  LEU104     -0.1231
     82  CA        50.9810   26.8170    9.3250 C.3   104  LEU104      0.1693
     83  C         50.6660   28.2790    9.6010 C.2   104  LEU104      0.2591
     84  O         50.3360   28.6500   10.7320 O.2   104  LEU104     -0.2718
     85  CB        52.4710   26.6360    9.0340 C.3   104  LEU104      0.0284
     86  CG        53.4640   27.1450   10.0770 C.3   104  LEU104      0.0019
     87  CD1       53.2690   26.3980   11.3780 C.3   104  LEU104      0.0001
     88  CD2       54.9000   26.9760    9.5640 C.3   104  LEU104      0.0001
     89  N         50.7160   29.1170    8.5600 N.am  105  ALA105     -0.1980
     90  CA        50.5010   30.5530    8.7360 C.3   105  ALA105      0.1597
     91  C         49.0620   30.8630    9.1330 C.2   105  ALA105      0.2287
     92  O         48.8280   31.6990   10.0100 O.2   105  ALA105     -0.2864
     93  CB        50.8750   31.3100    7.4550 C.3   105  ALA105      0.0319
     94  N         48.4480   29.6540   12.8420 N.3   108  LEU108     -0.1231
     95  CA        49.0790   30.5150   13.8390 C.3   108  LEU108      0.1693
     96  C         48.4500   31.9040   13.8330 C.2   108  LEU108      0.2592
     97  O         48.2100   32.4900   14.8950 O.2   108  LEU108     -0.2718
     98  CB        50.5820   30.5950   13.6000 C.3   108  LEU108      0.0284
     99  CG        51.4040   29.3230   13.8540 C.3   108  LEU108      0.0019
    100  CD1       52.8730   29.5690   13.5010 C.3   108  LEU108      0.0001
    101  CD2       51.2910   28.8650   15.3030 C.3   108  LEU108      0.0001
    102  N         48.1570   32.4360   12.6460 N.am  109  GLY109     -0.1957
    103  CA        47.5010   33.7320   12.5640 C.3   109  GLY109      0.1869
    104  C         46.1620   33.7740   13.2880 C.2   109  GLY109      0.2309
    105  O         45.8890   34.6960   14.0560 O.2   109  GLY109     -0.2863
    106  N         46.3150   33.3890   17.2900 N.3   112  HIS112     -0.1241
    107  CA        47.2100   34.2810   18.0200 C.3   112  HIS112      0.1621
    108  C         46.5840   34.7800   19.3130 C.2   112  HIS112      0.2264
    109  O         47.2150   34.7550   20.3730 O.2   112  HIS112     -0.2867
    110  CB        47.5940   35.4710   17.1420 C.3   112  HIS112      0.0745
    111  CG        48.4630   36.4610   17.8400 C.ar  112  HIS112      0.0817
    112  ND1       49.7580   36.1690   18.2190 N.ar  112  HIS112     -0.2268
    113  CD2       48.2190   37.7240   18.2630 C.ar  112  HIS112      0.1154
    114  CE1       50.2760   37.2170   18.8380 C.ar  112  HIS112      0.1986
    115  NE2       49.3620   38.1720   18.8810 N.ar  112  HIS112     -0.2212
    116  N         53.3620   41.4250   24.9160 N.3   128  GLU128     -0.1245
    117  CA        53.6090   41.0130   23.5310 C.3   128  GLU128      0.1567
    118  C         55.0030   40.4170   23.3740 C.2   128  GLU128      0.2260
    119  O         55.1830   39.4100   22.6730 O.2   128  GLU128     -0.2867
    120  CB        53.4200   42.1920   22.5770 C.3   128  GLU128      0.0388
    121  CG        51.9830   42.8020   22.6270 C.3   128  GLU128      0.1160
    122  CD        50.9060   41.8640   22.0630 C.2   128  GLU128      0.3649
    123  OE1       49.7100   42.1080   22.3110 O.co2 128  GLU128     -0.2457
    124  OE2       51.2480   40.8810   21.3720 O.co2 128  GLU128     -0.2457
    125  N         55.9940   36.6210   22.2610 N.3   132  GLU132     -0.1245
    126  CA        56.9260   36.3650   21.1580 C.3   132  GLU132      0.1567
    127  C         58.0720   35.4530   21.5930 C.2   132  GLU132      0.2260
    128  O         58.5250   34.5980   20.8210 O.2   132  GLU132     -0.2867
    129  CB        57.4500   37.6920   20.5880 C.3   132  GLU132      0.0388
    130  CG        56.3260   38.5020   19.9480 C.3   132  GLU132      0.1160
    131  CD        56.6910   39.9460   19.6280 C.2   132  GLU132      0.3649
    132  OE1       55.9870   40.5330   18.7770 O.co2 132  GLU132     -0.2457
    133  OE2       57.6640   40.4910   20.2150 O.co2 132  GLU132     -0.2457
    134  N         56.5030   32.0260   21.5300 N.3   135  TYR135     -0.1241
    135  CA        56.5550   31.5170   20.1520 C.3   135  TYR135      0.1605
    136  C         57.9600   31.0640   19.7670 C.2   135  TYR135      0.2264
    137  O         58.1270   30.0050   19.1620 O.2   135  TYR135     -0.2867
    138  CB        56.0840   32.5750   19.1510 C.3   135  TYR135      0.0534
    139  CG        54.5870   32.7230   19.0090 C.ar  135  TYR135     -0.0201
    140  CD1       53.9550   33.8900   19.3860 C.ar  135  TYR135     -0.0009
    141  CD2       53.8100   31.7070   18.4520 C.ar  135  TYR135     -0.0009
    142  CE1       52.5920   34.0420   19.2500 C.ar  135  TYR135      0.0417
    143  CE2       52.4480   31.8450   18.3130 C.ar  135  TYR135      0.0417
    144  CZ        51.8450   33.0130   18.7230 C.ar  135  TYR135      0.1957
    145  OH        50.4960   33.1690   18.5810 O.3   135  TYR135     -0.2866
    146  N         58.5690   27.3210   18.1000 N.3   139  LEU139     -0.1245
    147  CA        58.5840   27.2370   16.6420 C.3   139  LEU139      0.1561
    148  C         59.9980   27.1450   16.0580 C.2   139  LEU139      0.2260
    149  O         60.1970   27.4640   14.8780 O.2   139  LEU139     -0.2867
    150  CB        57.8330   28.4280   16.0470 C.3   139  LEU139      0.0270
    151  CG        56.3440   28.4810   16.3930 C.3   139  LEU139      0.0019
    152  CD1       55.7430   29.7790   15.8930 C.3   139  LEU139      0.0001
    153  CD2       55.6190   27.2860   15.7900 C.3   139  LEU139      0.0001
    154  N         62.2230   28.6490   13.3780 N.3   142  ASP142     -0.1239
    155  CA        61.6740   29.8790   12.8170 C.3   142  ASP142      0.1674
    156  C         62.6020   31.0660   13.0720 C.2   142  ASP142      0.2266
    157  O         63.3420   31.1080   14.0590 O.2   142  ASP142     -0.2867
    158  CB        60.3070   30.1480   13.4380 C.3   142  ASP142      0.1410
    159  CG        59.8030   31.5380   13.1560 C.2   142  ASP142      0.3668
    160  OD1       59.7980   32.3740   14.0990 O.co2 142  ASP142     -0.2456
    161  OD2       59.4380   31.7930   11.9810 O.co2 142  ASP142     -0.2456
    162  N         61.2150   34.4880   12.3550 N.3   144  LEU144     -0.1231
    163  CA        60.4130   35.6990   12.4780 C.3   144  LEU144      0.1693
    164  C         60.3230   36.1690   13.9250 C.2   144  LEU144      0.2592
    165  O         60.5800   37.3450   14.2170 O.2   144  LEU144     -0.2718
    166  CB        59.0170   35.4720   11.8980 C.3   144  LEU144      0.0284
    167  CG        58.0090   36.6000   12.1590 C.3   144  LEU144      0.0019
    168  CD1       58.4070   37.8830   11.4210 C.3   144  LEU144      0.0001
    169  CD2       56.6130   36.1540   11.7660 C.3   144  LEU144      0.0001
    170  N         59.9760   35.2650   14.8540 N.am  145  PHE145     -0.1976
    171  CA        59.7180   35.7220   16.2190 C.3   145  PHE145      0.1639
    172  C         60.9860   36.1910   16.9120 C.2   145  PHE145      0.2290
    173  O         60.9360   37.1630   17.6710 O.2   145  PHE145     -0.2864
    174  CB        58.9910   34.6400   17.0240 C.3   145  PHE145      0.0560
    175  CG        57.5980   34.4360   16.5540 C.ar  145  PHE145     -0.0200
    176  CD1       56.6060   35.3290   16.9040 C.ar  145  PHE145     -0.0042
    177  CD2       57.2980   33.4200   15.6730 C.ar  145  PHE145     -0.0042
    178  CE1       55.3190   35.1690   16.4400 C.ar  145  PHE145     -0.0003
    179  CE2       56.0220   33.2580   15.2000 C.ar  145  PHE145     -0.0003
    180  CZ        55.0330   34.1290   15.5790 C.ar  145  PHE145     -0.0000
    181  N         61.2950   39.6830   15.7720 N.3   148  LEU148     -0.1245
    182  CA        60.3150   40.5200   16.4580 C.3   148  LEU148      0.1561
    183  C         60.7770   40.8490   17.8720 C.2   148  LEU148      0.2260
    184  O         60.5850   41.9750   18.3530 O.2   148  LEU148     -0.2867
    185  CB        58.9600   39.8050   16.4880 C.3   148  LEU148      0.0270
    186  CG        57.8020   40.1720   15.5440 C.3   148  LEU148      0.0019
    187  CD1       58.2020   40.9180   14.2770 C.3   148  LEU148      0.0001
    188  CD2       56.9290   38.9550   15.2240 C.3   148  LEU148      0.0001
    189  N         63.3390   43.6500   17.3020 N.3   151  LYS151     -0.1231
    190  CA        62.7180   44.9200   16.9600 C.3   151  LYS151      0.1693
    191  C         62.1610   45.6010   18.2140 C.2   151  LYS151      0.2592
    192  O         62.2620   46.8280   18.3690 O.2   151  LYS151     -0.2718
    193  CB        61.6320   44.6400   15.8960 C.3   151  LYS151      0.0285
    194  CG        60.6980   45.7510   15.5800 C.3   151  LYS151      0.0035
    195  CD        59.5330   45.8810   16.5570 C.3   151  LYS151      0.0206
    196  CE        58.4580   44.8200   16.4050 C.3   151  LYS151      0.1093
    197  NZ        57.2030   45.3660   17.0670 N.3   151  LYS151     -0.1314
    198  N         61.5820   44.8150   19.1320 N.am  152  ASN152     -0.1974
    199  CA        60.9980   45.4020   20.3340 C.3   152  ASN152      0.1688
    200  C         62.0560   45.7950   21.3500 C.2   152  ASN152      0.2292
    201  O         61.8580   46.7570   22.1050 O.2   152  ASN152     -0.2864
    202  CB        59.9780   44.4450   20.9560 C.3   152  ASN152      0.1181
    203  CG        58.6860   44.4300   20.1720 C.2   152  ASN152      0.2629
    204  OD1       58.2960   45.4560   19.6000 O.2   152  ASN152     -0.2716
    205  ND2       58.0300   43.2760   20.1050 N.am  152  ASN152     -0.0877
@<TRIPOS>BOND
     1    61    60    2
     2    73    71    1
     3    60    59    1
     4    70    71    1
     5    70    67    1
     6    55    54    2
     7    54    53    1
     8    71    72    1
     9    66    67    1
    10    58    59    1
    11    59    62    1
    12    67    68    1
    13    68    69    2
    14    52    53    1
    15    53    56    1
    16    62    63    1
    17    93    90    1
    18    56    57    1
    19    81    82    1
    20    89    90    1
    21    89    83   am
    22    47    46    2
    23    90    91    1
    24    63    64    2
    25    63    65   am
    26    36    35    2
    27    46    45    1
    28    85    82    1
    29    85    86    1
    30    91    92    2
    31    82    83    1
    32    35    34    1
    33    44    45    1
    34    88    86    1
    35    83    84    2
    36    31    30    2
    37    74    75    1
    38    45    48    1
    39    86    87    1
    40    32    30   am
    41    30    29    1
    42    76    75    1
    43    76    77    2
    44    34    37    1
    45    34    33    1
    46    78    75    1
    47    78    80    1
    48    78    79    1
    49    37    38    1
    50    28    27    2
    51     1     2    1
    52    48    50    1
    53    48    49    1
    54   168   167    1
    55    33    27   am
    56     7     6    1
    57     6     8    1
    58     6     5    1
    59    27    26    1
    60   169   167    1
    61   166   167    1
    62   166   163    1
    63   161   159   ar
    64    29    26    1
    65   162   163    1
    66    38    40   ar
    67    38    39   ar
    68     2     5    1
    69     2     3    1
    70    49    51    1
    71    26    25    1
    72   163   164    1
    73   103   102    1
    74   103   104    1
    75   102    96   am
    76   155   156    1
    77   155   154    1
    78   155   158    1
    79    94    95    1
    80    40    42   ar
    81   156   157    2
    82    39    41   ar
    83   159   158    1
    84   159   160   ar
    85   104   105    2
    86   100    99    1
    87     3     4    2
    88    98    95    1
    89    98    99    1
    90    96    95    1
    91    96    97    2
    92    24    23    2
    93    99   101    1
    94    25    23   am
    95   164   165    2
    96   164   170   am
    97   187   186    1
    98    42    43   ar
    99    23    22    1
   100    41    43   ar
   101   170   171    1
   102   149   148    2
   103   179   180   ar
   104   179   177   ar
   105   188   186    1
   106   186   185    1
   107   180   178   ar
   108   194   193    1
   109   194   195    1
   110   177   175   ar
   111   181   182    1
   112   153   151    1
   113    22    21    1
   114   152   151    1
   115   193   190    1
   116   150   151    1
   117   150   147    1
   118   148   147    1
   119   171   172    1
   120   171   174    1
   121   196   195    1
   122   196   197    1
   123   178   176   ar
   124   182   185    1
   125   182   183    1
   126   175   176   ar
   127   175   174    1
   128   147   146    1
   129    21    11   am
   130    12    11    2
   131   172   173    2
   132   190   189    1
   133   190   191    1
   134    11    10    1
   135   110   111    1
   136   110   107    1
   137   106   107    1
   138     9    10    1
   139   111   112   ar
   140   111   113   ar
   141    10    13    1
   142   183   184    2
   143   107   108    1
   144   191   192    2
   145   191   198   am
   146   112   114   ar
   147   113   115   ar
   148   143   141   ar
   149   143   144   ar
   150   141   139   ar
   151   145   144    1
   152   144   142   ar
   153   132   131   ar
   154   114   115   ar
   155   139   138    1
   156   139   140   ar
   157   198   199    1
   158   138   135    1
   159   137   136    2
   160   142   140   ar
   161   108   109    2
   162    13    14    1
   163   204   203    2
   164   131   130    1
   165   131   133   ar
   166   136   135    1
   167   130   129    1
   168   205   203   am
   169   135   134    1
   170   203   202    1
   171    14    15   ar
   172    14    16   ar
   173   199   202    1
   174   199   200    1
   175    15    17   ar
   176   129   126    1
   177    16    18   ar
   178   128   127    2
   179   126   127    1
   180   126   125    1
   181    17    19   ar
   182   200   201    2
   183   124   122   ar
   184    18    19   ar
   185    19    20    1
   186   122   123   ar
   187   122   121    1
   188   120   121    1
   189   120   117    1
   190   119   118    2
   191   118   117    1
   192   117   116    1
