@<TRIPOS>MOLECULE
tmp/6e1mA07.pdb
 141 138 0 0 0
SMALL
GASTEIGER

@<TRIPOS>ATOM
      1  N        191.5300  147.4610  154.9270 N.3    52  LEU52      -0.1245
      2  CA       191.3930  148.2210  153.7000 C.3    52  LEU52       0.1561
      3  C        191.9730  147.4610  152.5220 C.2    52  LEU52       0.2260
      4  O        191.6330  147.7590  151.3770 O.2    52  LEU52      -0.2867
      5  CB       192.0570  149.5850  153.8620 C.3    52  LEU52       0.0270
      6  CG       191.6500  150.6600  152.8620 C.3    52  LEU52       0.0019
      7  CD1      190.1790  150.9490  153.0390 C.3    52  LEU52       0.0001
      8  CD2      192.4530  151.9160  153.0530 C.3    52  LEU52       0.0001
      9  N        188.5030  145.0760  151.6180 N.3    55  PHE55      -0.1241
     10  CA       187.3880  145.6070  150.8380 C.3    55  PHE55       0.1605
     11  C        187.8460  146.0160  149.4570 C.2    55  PHE55       0.2264
     12  O        187.0810  145.9090  148.5020 O.2    55  PHE55      -0.2867
     13  CB       186.7170  146.7970  151.5170 C.3    55  PHE55       0.0534
     14  CG       185.9210  146.4470  152.7400 C.ar   55  PHE55      -0.0203
     15  CD1      185.7820  145.1380  153.1650 C.ar   55  PHE55      -0.0042
     16  CD2      185.2560  147.4370  153.4250 C.ar   55  PHE55      -0.0042
     17  CE1      185.0530  144.8230  154.2790 C.ar   55  PHE55      -0.0003
     18  CE2      184.4900  147.1460  154.5370 C.ar   55  PHE55      -0.0003
     19  CZ       184.4300  145.8150  154.9790 C.ar   55  PHE55      -0.0000
     20  N        185.6840  144.8830  146.0420 N.3    59  PHE59      -0.1241
     21  CA       185.3150  145.6580  144.8810 C.3    59  PHE59       0.1605
     22  C        186.2220  145.3910  143.6940 C.2    59  PHE59       0.2264
     23  O        185.9300  145.8600  142.6020 O.2    59  PHE59      -0.2867
     24  CB       185.3390  147.1370  145.2250 C.3    59  PHE59       0.0534
     25  CG       184.3090  147.5410  146.2250 C.ar   59  PHE59      -0.0203
     26  CD1      183.0110  147.7970  145.8410 C.ar   59  PHE59      -0.0042
     27  CD2      184.6360  147.6870  147.5460 C.ar   59  PHE59      -0.0042
     28  CE1      182.0650  148.1900  146.7620 C.ar   59  PHE59      -0.0003
     29  CE2      183.6920  148.0770  148.4680 C.ar   59  PHE59      -0.0003
     30  CZ       182.4100  148.3190  148.0750 C.ar   59  PHE59      -0.0000
     31  N        183.5690  144.1870  140.8360 N.3    63  PHE63      -0.1241
     32  CA       183.6580  144.9880  139.6270 C.3    63  PHE63       0.1605
     33  C        184.4930  144.2930  138.5920 C.2    63  PHE63       0.2264
     34  O        184.8940  144.9200  137.6130 O.2    63  PHE63      -0.2867
     35  CB       184.2960  146.3550  139.8760 C.3    63  PHE63       0.0534
     36  CG       183.5630  147.2200  140.8410 C.ar   63  PHE63      -0.0203
     37  CD1      182.2500  146.9780  141.1880 C.ar   63  PHE63      -0.0042
     38  CD2      184.2100  148.2900  141.4110 C.ar   63  PHE63      -0.0042
     39  CE1      181.6100  147.7650  142.0900 C.ar   63  PHE63      -0.0003
     40  CE2      183.5700  149.0860  142.3090 C.ar   63  PHE63      -0.0003
     41  CZ       182.2630  148.8280  142.6410 C.ar   63  PHE63      -0.0000
     42  N        181.0260  138.8350  147.8610 N.3   162  PHE162     -0.1241
     43  CA       180.9460  140.2450  148.1860 C.3   162  PHE162      0.1605
     44  C        179.7840  140.5470  149.1210 C.2   162  PHE162      0.2264
     45  O        179.8330  141.5320  149.8510 O.2   162  PHE162     -0.2867
     46  CB       180.8470  141.0660  146.9090 C.3   162  PHE162      0.0534
     47  CG       180.7000  142.5310  147.1510 C.ar  162  PHE162     -0.0203
     48  CD1      181.7750  143.2820  147.5260 C.ar  162  PHE162     -0.0042
     49  CD2      179.4690  143.1460  147.0460 C.ar  162  PHE162     -0.0042
     50  CE1      181.6410  144.6080  147.7670 C.ar  162  PHE162     -0.0003
     51  CE2      179.3320  144.4730  147.3000 C.ar  162  PHE162     -0.0003
     52  CZ       180.4180  145.1980  147.6610 C.ar  162  PHE162     -0.0000
     53  N        181.2320  141.8160  153.5980 N.3   166  ILE166     -0.1231
     54  CA       181.0300  143.0550  154.3330 C.3   166  ILE166      0.1692
     55  C        179.9500  142.8080  155.3580 C.2   166  ILE166      0.2592
     56  O        178.9600  142.1300  155.0830 O.2   166  ILE166     -0.2718
     57  CB       180.6540  144.2210  153.4190 C.3   166  ILE166      0.0266
     58  CG1      181.5220  144.1680  152.1960 C.3   166  ILE166      0.0019
     59  CG2      180.8990  145.5860  154.1750 C.3   166  ILE166      0.0020
     60  CD1      181.1180  145.1300  151.2210 C.3   166  ILE166      0.0001
     61  N        180.1540  143.3400  156.5540 N.am  167  ARG167     -0.1966
     62  CA       179.2310  143.0700  157.6360 C.3   167  ARG167      0.1729
     63  C        177.8860  143.7210  157.3820 C.2   167  ARG167      0.2616
     64  O        176.8550  143.1050  157.6390 O.2   167  ARG167     -0.2715
     65  CB       179.8460  143.5380  158.9490 C.3   167  ARG167      0.0348
     66  CG       178.9940  143.2940  160.1690 C.3   167  ARG167      0.0492
     67  CD       179.7230  143.7200  161.4270 C.3   167  ARG167      0.2205
     68  NE       180.1380  145.1190  161.3750 N.pl3 167  ARG167     -0.0865
     69  CZ       179.3500  146.1540  161.6540 C.cat 167  ARG167      0.5346
     70  NH1      178.0820  145.9630  162.0060 N.pl3 167  ARG167      0.1354
     71  NH2      179.8270  147.3900  161.5750 N.pl3 167  ARG167      0.1354
     72  N        177.8830  144.9300  156.8110 N.am  168  GLU168     -0.1963
     73  CA       176.6450  145.6630  156.5620 C.3   168  GLU168      0.1733
     74  C        175.7300  144.9270  155.6010 C.2   168  GLU168      0.2616
     75  O        174.5260  144.8260  155.8460 O.2   168  GLU168     -0.2715
     76  CB       176.9440  147.0350  155.9800 C.3   168  GLU168      0.0429
     77  CG       177.4740  148.0470  156.9240 C.3   168  GLU168      0.1163
     78  CD       177.7120  149.3790  156.2320 C.2   168  GLU168      0.3649
     79  OE1      177.6170  149.4350  154.9860 O.co2 168  GLU168     -0.2457
     80  OE2      177.9810  150.3770  156.9280 O.co2 168  GLU168     -0.2457
     81  N        176.2760  144.4040  154.5080 N.am  169  LEU169     -0.1977
     82  CA       175.4670  143.6670  153.5530 C.3   169  LEU169      0.1596
     83  C        175.0920  142.3000  154.0660 C.2   169  LEU169      0.2287
     84  O        174.1520  141.6930  153.5510 O.2   169  LEU169     -0.2864
     85  CB       176.2210  143.5110  152.2510 C.3   169  LEU169      0.0297
     86  CG       176.6120  144.8600  151.7160 C.3   169  LEU169      0.0022
     87  CD1      177.4890  144.6610  150.5210 C.3   169  LEU169      0.0001
     88  CD2      175.3860  145.6200  151.3580 C.3   169  LEU169      0.0001
     89  N        173.5230  159.4760  153.4800 N.3   388  ILE388     -0.1231
     90  CA       174.4960  159.0500  152.4880 C.3   388  ILE388      0.1678
     91  C        175.2000  157.8080  153.0330 C.2   388  ILE388      0.2434
     92  O        175.3120  156.8410  152.2740 O.2   388  ILE388     -0.2733
     93  CB       175.4590  160.1730  152.0760 C.3   388  ILE388      0.0265
     94  CG1      174.6890  161.3710  151.5500 C.3   388  ILE388      0.0019
     95  CG2      176.4000  159.6740  151.0040 C.3   388  ILE388      0.0020
     96  CD1      175.5340  162.6190  151.4170 C.3   388  ILE388      0.0001
     97  N        175.6470  157.7090  154.2960 N.am  389  PRO389     -0.2729
     98  CA       176.1560  156.4140  154.7530 C.3   389  PRO389      0.1401
     99  C        175.1620  155.4940  155.4380 C.2   389  PRO389      0.2269
    100  O        175.5520  154.3740  155.7810 O.2   389  PRO389     -0.2865
    101  CB       177.2470  156.8060  155.7540 C.3   389  PRO389      0.0296
    102  CG       177.4950  158.2090  155.5490 C.3   389  PRO389      0.0237
    103  CD       176.1670  158.7400  155.2130 C.3   389  PRO389      0.0939
    104  N        173.9850  153.0430  152.6300 N.3   392  MET392     -0.1231
    105  CA       174.9300  152.2500  151.8650 C.3   392  MET392      0.1687
    106  C        174.7670  150.7420  152.0110 C.2   392  MET392      0.2434
    107  O        175.0640  150.0340  151.0450 O.2   392  MET392     -0.2733
    108  CB       176.3510  152.6810  152.1600 C.3   392  MET392      0.0400
    109  CG       176.7170  153.9290  151.4020 C.3   392  MET392      0.0596
    110  SD       176.6700  153.6560  149.6270 S.3   392  MET392     -0.1393
    111  CE       175.2450  154.6100  149.1510 C.3   392  MET392      0.0692
    112  N        174.3490  150.1780  153.1510 N.am  393  PRO393     -0.2729
    113  CA       173.9570  148.7730  153.0920 C.3   393  PRO393      0.1401
    114  C        172.6890  148.5500  152.3200 C.2   393  PRO393      0.2269
    115  O        172.6410  147.6550  151.4760 O.2   393  PRO393     -0.2865
    116  CB       173.8040  148.3880  154.5570 C.3   393  PRO393      0.0296
    117  CG       173.6550  149.5960  155.2450 C.3   393  PRO393      0.0237
    118  CD       174.4910  150.5730  154.5560 C.3   393  PRO393      0.0939
    119  N        171.1720  150.1180  150.0310 N.3   395  LEU395     -0.1231
    120  CA       171.3580  150.2650  148.6070 C.3   395  LEU395      0.1693
    121  C        172.5770  149.5180  148.1300 C.2   395  LEU395      0.2592
    122  O        172.9140  149.6070  146.9530 O.2   395  LEU395     -0.2718
    123  CB       171.4890  151.7330  148.2170 C.3   395  LEU395      0.0284
    124  CG       170.2860  152.6470  148.3580 C.3   395  LEU395      0.0019
    125  CD1      170.7790  154.0200  148.1600 C.3   395  LEU395      0.0001
    126  CD2      169.2450  152.3330  147.3230 C.3   395  LEU395      0.0001
    127  N        173.2720  148.8250  149.0200 N.am  396  GLY396     -0.1957
    128  CA       174.2870  147.9020  148.5710 C.3   396  GLY396      0.1869
    129  C        173.7390  146.5220  148.3140 C.2   396  GLY396      0.2309
    130  O        174.2560  145.8100  147.4570 O.2   396  GLY396     -0.2863
    131  N        172.1740  146.7890  144.8540 N.3   399  PHE399     -0.1241
    132  CA       173.2100  146.6920  143.8360 C.3   399  PHE399      0.1605
    133  C        173.7570  145.2810  143.7010 C.2   399  PHE399      0.2264
    134  O        174.2640  144.9310  142.6430 O.2   399  PHE399     -0.2867
    135  CB       174.3480  147.6290  144.1550 C.3   399  PHE399      0.0534
    136  CG       175.3820  147.6960  143.0960 C.ar  399  PHE399     -0.0203
    137  CD1      175.1420  148.3850  141.9390 C.ar  399  PHE399     -0.0042
    138  CD2      176.6040  147.0760  143.2460 C.ar  399  PHE399     -0.0042
    139  CE1      176.1050  148.4620  140.9540 C.ar  399  PHE399     -0.0003
    140  CE2      177.5570  147.1500  142.2530 C.ar  399  PHE399     -0.0003
    141  CZ       177.3060  147.8380  141.1100 C.ar  399  PHE399     -0.0000
@<TRIPOS>BOND
     1    34    33    2
     2    33    32    1
     3    32    35    1
     4    32    31    1
     5    35    36    1
     6    36    37   ar
     7    36    38   ar
     8   139   141   ar
     9   139   137   ar
    10   141   140   ar
    11    37    39   ar
    12    38    40   ar
    13   137   136   ar
    14    39    41   ar
    15   140   138   ar
    16    40    41   ar
    17    23    22    2
    18   134   133    2
    19   136   138   ar
    20   136   135    1
    21    22    21    1
    22   133   132    1
    23   132   135    1
    24   132   131    1
    25    21    24    1
    26    21    20    1
    27    24    25    1
    28    26    25   ar
    29    26    28   ar
    30    25    27   ar
    31    28    30   ar
    32    46    47    1
    33    46    43    1
    34   122   121    2
    35    49    47   ar
    36    49    51   ar
    37    47    48   ar
    38    51    52   ar
    39   126   124    1
    40   130   129    2
    41    48    50   ar
    42    27    29   ar
    43    52    50   ar
    44    42    43    1
    45    30    29   ar
    46   121   120    1
    47   121   127   am
    48   125   124    1
    49    43    44    1
    50   123   124    1
    51   123   120    1
    52   129   128    1
    53    12    11    2
    54   128   127    1
    55   120   119    1
    56    44    45    2
    57   111   110    1
    58    11    10    1
    59   110   109    1
    60    87    86    1
    61    10    13    1
    62    10     9    1
    63    95    93    1
    64   107   106    2
    65    60    58    1
    66    88    86    1
    67     4     3    2
    68   109   108    1
    69    96    94    1
    70   115   114    2
    71    13    14    1
    72    94    93    1
    73    86    85    1
    74   105   106    1
    75   105   108    1
    76   105   104    1
    77   106   112   am
    78    93    90    1
    79    58    57    1
    80    85    82    1
    81    92    91    2
    82   114   113    1
    83    90    91    1
    84    90    89    1
    85     3     2    1
    86    14    15   ar
    87    14    16   ar
    88     6     7    1
    89     6     8    1
    90     6     5    1
    91    91    97   am
    92   113   112    1
    93   113   116    1
    94   112   118    1
    95    15    17   ar
    96    57    59    1
    97    57    54    1
    98    16    18   ar
    99    84    83    2
   100    82    83    1
   101    82    81    1
   102    53    54    1
   103     2     5    1
   104     2     1    1
   105    17    19   ar
   106    97    98    1
   107    97   103    1
   108    54    55    1
   109    81    74   am
   110    18    19   ar
   111   118   117    1
   112   116   117    1
   113    98    99    1
   114    98   101    1
   115    79    78   ar
   116    56    55    2
   117   103   102    1
   118    55    61   am
   119    99   100    2
   120   102   101    1
   121    74    75    2
   122    74    73    1
   123    76    73    1
   124    76    77    1
   125    78    77    1
   126    78    80   ar
   127    61    62    1
   128    73    72    1
   129    72    63   am
   130    63    62    1
   131    63    64    2
   132    62    65    1
   133    65    66    1
   134    66    67    1
   135    68    67    1
   136    68    69    2
   137    71    69    1
   138    69    70    1
