@<TRIPOS>MOLECULE
tmp/6e1mA03.pdb
 120 115 0 0 0
SMALL
GASTEIGER

@<TRIPOS>ATOM
      1  N        171.5930  142.5950  144.2760 N.3   401  VAL401     -0.1245
      2  CA       170.4790  141.9650  143.5800 C.3   401  VAL401      0.1561
      3  C        170.5190  142.2700  142.0970 C.2   401  VAL401      0.2260
      4  O        170.2060  141.4070  141.2860 O.2   401  VAL401     -0.2867
      5  CB       169.1530  142.3640  144.2490 C.3   401  VAL401      0.0252
      6  CG1      167.9710  142.1230  143.3920 C.3   401  VAL401      0.0019
      7  CG2      168.9840  141.5530  145.4680 C.3   401  VAL401      0.0019
      8  N        173.0970  140.1020  140.2670 N.3   404  ILE404     -0.1231
      9  CA       172.6500  138.7500  139.9980 C.3   404  ILE404      0.1692
     10  C        171.7460  138.7110  138.7930 C.2   404  ILE404      0.2592
     11  O        171.8790  137.8480  137.9280 O.2   404  ILE404     -0.2718
     12  CB       171.9280  138.2150  141.2320 C.3   404  ILE404      0.0266
     13  CG1      172.8850  138.1300  142.3940 C.3   404  ILE404      0.0019
     14  CG2      171.3470  136.9090  140.9520 C.3   404  ILE404      0.0020
     15  CD1      174.0080  137.2100  142.1600 C.3   404  ILE404      0.0001
     16  N        170.8170  139.6540  138.7200 N.am  405  TYR405     -0.1976
     17  CA       169.8860  139.6650  137.6200 C.3   405  TYR405      0.1639
     18  C        170.5240  140.0800  136.3450 C.2   405  TYR405      0.2290
     19  O        170.0020  139.7630  135.2890 O.2   405  TYR405     -0.2864
     20  CB       168.7530  140.5870  137.9010 C.3   405  TYR405      0.0560
     21  CG       167.6900  139.9830  138.6960 C.ar  405  TYR405     -0.0198
     22  CD1      166.7900  139.1390  138.1180 C.ar  405  TYR405     -0.0009
     23  CD2      167.5280  140.3170  139.9890 C.ar  405  TYR405     -0.0009
     24  CE1      165.7940  138.6140  138.8090 C.ar  405  TYR405      0.0417
     25  CE2      166.5380  139.8080  140.6980 C.ar  405  TYR405      0.0417
     26  CZ       165.6770  138.9530  140.1060 C.ar  405  TYR405      0.1957
     27  OH       164.6670  138.4370  140.8380 O.3   405  TYR405     -0.2866
     28  N        172.1370  136.6670  135.5370 N.3   408  ILE408     -0.1245
     29  CA       171.1120  135.8110  134.9650 C.3   408  ILE408      0.1561
     30  C        170.6950  136.3460  133.6140 C.2   408  ILE408      0.2260
     31  O        170.6000  135.6100  132.6330 O.2   408  ILE408     -0.2867
     32  CB       169.8970  135.7150  135.9000 C.3   408  ILE408      0.0252
     33  CG1      170.2300  135.0540  137.2170 C.3   408  ILE408      0.0019
     34  CG2      168.7970  134.9490  135.2600 C.3   408  ILE408      0.0019
     35  CD1      169.0890  135.1000  138.1730 C.3   408  ILE408      0.0001
     36  N        170.5390  134.1440  130.0860 N.3   412  VAL412     -0.1231
     37  CA       169.2410  133.8010  129.5180 C.3   412  VAL412      0.1692
     38  C        168.9680  134.5950  128.2460 C.2   412  VAL412      0.2592
     39  O        168.5710  134.0310  127.2240 O.2   412  VAL412     -0.2718
     40  CB       168.1480  134.0700  130.5590 C.3   412  VAL412      0.0266
     41  CG1      166.8450  133.7310  130.0180 C.3   412  VAL412      0.0020
     42  CG2      168.3960  133.3390  131.7910 C.3   412  VAL412      0.0020
     43  N        169.2270  135.8990  128.2770 N.am  413  PHE413     -0.1976
     44  CA       168.7960  136.8670  127.2780 C.3   413  PHE413      0.1639
     45  C        169.9610  137.4770  126.5230 C.2   413  PHE413      0.2290
     46  O        170.0220  138.6930  126.4030 O.2   413  PHE413     -0.2864
     47  CB       168.0490  138.0270  127.9120 C.3   413  PHE413      0.0560
     48  CG       166.7940  137.6750  128.6050 C.ar  413  PHE413     -0.0200
     49  CD1      165.6600  137.4790  127.9040 C.ar  413  PHE413     -0.0042
     50  CD2      166.7260  137.6690  129.9570 C.ar  413  PHE413     -0.0042
     51  CE1      164.5000  137.2140  128.5420 C.ar  413  PHE413     -0.0003
     52  CE2      165.5560  137.3990  130.5870 C.ar  413  PHE413     -0.0003
     53  CZ       164.4530  137.1750  129.8920 C.ar  413  PHE413     -0.0000
     54  N        162.7920  136.2140  122.7380 N.3   469  THR469     -0.1218
     55  CA       163.0070  134.8410  123.1530 C.3   469  THR469      0.1862
     56  C        161.8800  133.9450  122.6890 C.2   469  THR469      0.2287
     57  O        162.0430  132.7300  122.6330 O.2   469  THR469     -0.2866
     58  CB       163.1340  134.7450  124.6630 C.3   469  THR469      0.1770
     59  OG1      161.8720  135.0270  125.2540 O.3   469  THR469     -0.2211
     60  CG2      164.1360  135.7240  125.1790 C.3   469  THR469      0.0375
     61  N        159.2200  132.9450  124.0790 N.3   471  THR471     -0.1218
     62  CA       158.4540  132.2720  125.1030 C.3   471  THR471      0.1862
     63  C        157.7110  133.2910  125.9290 C.2   471  THR471      0.2287
     64  O        158.0460  134.4650  125.9380 O.2   471  THR471     -0.2866
     65  CB       159.3550  131.4870  126.0430 C.3   471  THR471      0.1770
     66  OG1      160.0610  132.4160  126.8610 O.3   471  THR471     -0.2211
     67  CG2      160.3650  130.6750  125.2630 C.3   471  THR471      0.0375
     68  N        158.0470  132.5850  128.9910 N.3   473  TRP473     -0.1227
     69  CA       158.7990  132.3690  130.2130 C.3   473  TRP473      0.1737
     70  C        159.7750  133.4900  130.4810 C.2   473  TRP473      0.2596
     71  O        160.3460  133.5480  131.5680 O.2   473  TRP473     -0.2718
     72  CB       159.5040  131.0040  130.1700 C.3   473  TRP473      0.0564
     73  CG       158.5040  129.9430  130.3000 C.ar  473  TRP473      0.0003
     74  CD1      157.9740  129.2020  129.3120 C.ar  473  TRP473      0.0946
     75  CD2      157.8330  129.5620  131.4930 C.ar  473  TRP473      0.0152
     76  NE1      157.0240  128.3700  129.8110 N.ar  473  TRP473     -0.2442
     77  CE2      156.9140  128.5820  131.1530 C.ar  473  TRP473      0.0810
     78  CE3      157.9190  129.9660  132.8200 C.ar  473  TRP473      0.0012
     79  CZ2      156.1070  127.9710  132.0840 C.ar  473  TRP473      0.0191
     80  CZ3      157.1110  129.3660  133.7400 C.ar  473  TRP473      0.0001
     81  CH2      156.2150  128.3850  133.3710 C.ar  473  TRP473      0.0015
     82  N        159.9510  134.3900  129.5290 N.am  474  SER474     -0.1952
     83  CA       160.7620  135.5640  129.7590 C.3   474  SER474      0.1924
     84  C        160.0750  136.5460  130.6760 C.2   474  SER474      0.2314
     85  O        160.7480  137.3630  131.3050 O.2   474  SER474     -0.2863
     86  CB       161.0470  136.2260  128.4330 C.3   474  SER474      0.2116
     87  OG       161.6470  135.3020  127.5630 O.3   474  SER474     -0.2180
     88  N        158.6430  135.9110  133.4050 N.3   476  THR476     -0.1203
     89  CA       158.9650  135.5900  134.7840 C.3   476  THR476      0.1994
     90  C        160.3360  136.1290  135.1780 C.2   476  THR476      0.2617
     91  O        160.6190  136.2790  136.3650 O.2   476  THR476     -0.2717
     92  CB       158.7620  134.0660  134.9490 C.3   476  THR476      0.1784
     93  OG1      157.3600  133.7510  134.7390 O.3   476  THR476     -0.2211
     94  CG2      159.1550  133.5230  136.3090 C.3   476  THR476      0.0376
     95  N        161.1500  136.5410  134.2280 N.am  477  TYR477     -0.1975
     96  CA       162.3550  137.2550  134.6100 C.3   477  TYR477      0.1639
     97  C        162.0460  138.6370  135.1400 C.2   477  TYR477      0.2290
     98  O        162.7010  139.0990  136.0760 O.2   477  TYR477     -0.2864
     99  CB       163.2820  137.3700  133.4270 C.3   477  TYR477      0.0560
    100  CG       164.5330  138.0860  133.7790 C.ar  477  TYR477     -0.0198
    101  CD1      165.4740  137.4810  134.5640 C.ar  477  TYR477     -0.0009
    102  CD2      164.7780  139.3630  133.3330 C.ar  477  TYR477     -0.0009
    103  CE1      166.5990  138.1080  134.8780 C.ar  477  TYR477      0.0417
    104  CE2      165.9060  139.9990  133.6590 C.ar  477  TYR477      0.0417
    105  CZ       166.7960  139.3590  134.4300 C.ar  477  TYR477      0.1957
    106  OH       167.9260  139.9680  134.7630 O.3   477  TYR477     -0.2866
    107  N        159.7010  138.6620  138.5110 N.3   480  SER480     -0.1217
    108  CA       160.5050  138.4430  139.7000 C.3   480  SER480      0.1889
    109  C        161.4190  139.6000  140.0220 C.2   480  SER480      0.2288
    110  O        161.8620  139.7040  141.1590 O.2   480  SER480     -0.2866
    111  CB       161.3550  137.2030  139.5400 C.3   480  SER480      0.2089
    112  OG       162.2180  137.3550  138.4310 O.3   480  SER480     -0.2183
    113  N        160.6650  141.0460  143.9350 N.3   484  ILE484     -0.1245
    114  CA       161.7960  141.0720  144.8460 C.3   484  ILE484      0.1561
    115  C        162.2510  142.4940  145.1180 C.2   484  ILE484      0.2260
    116  O        162.7740  142.7820  146.1910 O.2   484  ILE484     -0.2867
    117  CB       162.8810  140.1610  144.2520 C.3   484  ILE484      0.0252
    118  CG1      162.4280  138.7370  144.4090 C.3   484  ILE484      0.0019
    119  CG2      164.2280  140.3180  144.8460 C.3   484  ILE484      0.0019
    120  CD1      163.2180  137.8360  143.6280 C.3   484  ILE484      0.0001
@<TRIPOS>BOND
     1    57    56    2
     2    56    55    1
     3    54    55    1
     4    55    58    1
     5    61    62    1
     6    58    60    1
     7    58    59    1
     8    62    63    1
     9    62    65    1
    10    67    65    1
    11    63    64    2
    12    65    66    1
    13    46    45    2
    14    45    44    1
    15    39    38    2
    16    44    47    1
    17    44    43    1
    18    87    86    1
    19    49    51   ar
    20    49    48   ar
    21    47    48    1
    22    38    43   am
    23    38    37    1
    24    86    83    1
    25    51    53   ar
    26    48    50   ar
    27    68    69    1
    28    74    76   ar
    29    74    73   ar
    30    37    36    1
    31    37    40    1
    32    82    83    1
    33    82    70   am
    34    83    84    1
    35    76    77   ar
    36    53    52   ar
    37    50    52   ar
    38    41    40    1
    39    72    69    1
    40    72    73    1
    41    69    70    1
    42    73    75   ar
    43    70    71    2
    44    40    42    1
    45    84    85    2
    46    77    75   ar
    47    77    79   ar
    48    75    78   ar
    49    79    81   ar
    50    31    30    2
    51    78    80   ar
    52   102   104   ar
    53   102   100   ar
    54    81    80   ar
    55    88    89    1
    56    99   100    1
    57    99    96    1
    58    30    29    1
    59   104   105   ar
    60   100   101   ar
    61    95    96    1
    62    95    90   am
    63   105   106    1
    64   105   103   ar
    65   101   103   ar
    66    96    97    1
    67    93    92    1
    68    89    92    1
    69    89    90    1
    70    92    94    1
    71    29    28    1
    72    29    32    1
    73    97    98    2
    74    90    91    2
    75    34    32    1
    76    19    18    2
    77    32    33    1
    78    18    17    1
    79    33    35    1
    80    17    20    1
    81    17    16    1
    82    20    21    1
    83    11    10    2
    84    22    21   ar
    85    22    24   ar
    86   112   111    1
    87   107   108    1
    88    21    23   ar
    89    16    10   am
    90    10     9    1
    91    24    26   ar
    92   111   108    1
    93   108   109    1
    94    23    25   ar
    95     9     8    1
    96     9    12    1
    97   109   110    2
    98    26    25   ar
    99    26    27    1
   100    14    12    1
   101    12    13    1
   102     4     3    2
   103     3     2    1
   104    15    13    1
   105     6     5    1
   106     2     5    1
   107     2     1    1
   108   120   118    1
   109   113   114    1
   110     5     7    1
   111   117   118    1
   112   117   114    1
   113   117   119    1
   114   114   115    1
   115   115   116    2
