@<TRIPOS>MOLECULE
tmp/6e1mA06.pdb
 90 88 0 0 0
SMALL
GASTEIGER

@<TRIPOS>ATOM
      1  N        152.8100  138.9850  149.5760 N.3   187  LEU187     -0.1245
      2  CA       152.8500  138.6590  148.1670 C.3   187  LEU187      0.1561
      3  C        151.6680  137.7780  147.8030 C.2   187  LEU187      0.2260
      4  O        151.1040  137.8990  146.7120 O.2   187  LEU187     -0.2867
      5  CB       154.1520  137.9670  147.8220 C.3   187  LEU187      0.0270
      6  CG       154.2990  137.8630  146.3200 C.3   187  LEU187      0.0019
      7  CD1      154.5020  139.2510  145.8180 C.3   187  LEU187      0.0001
      8  CD2      155.4090  136.9410  145.9210 C.3   187  LEU187      0.0001
      9  N        148.9730  138.5850  144.7490 N.3   191  MET191     -0.1245
     10  CA       148.6420  137.7800  143.5800 C.3   191  MET191      0.1570
     11  C        147.1700  137.4890  143.5230 C.2   191  MET191      0.2261
     12  O        146.6150  137.3700  142.4400 O.2   191  MET191     -0.2867
     13  CB       149.4010  136.4680  143.5920 C.3   191  MET191      0.0387
     14  CG       150.8690  136.6070  143.3740 C.3   191  MET191      0.0595
     15  SD       151.7410  135.0360  143.4250 S.3   191  MET191     -0.1393
     16  CE       151.8230  134.7670  145.1890 C.3   191  MET191      0.0692
     17  N        160.7330  134.5100  122.3750 N.3   470  GLY470     -0.1210
     18  CA       159.6530  133.7390  121.8250 C.3   470  GLY470      0.1956
     19  C        158.7790  133.0560  122.8410 C.2   470  GLY470      0.2613
     20  O        157.6770  132.6300  122.4950 O.2   470  GLY470     -0.2717
     21  N        159.2200  132.9450  124.0790 N.am  471  THR471     -0.1938
     22  CA       158.4540  132.2720  125.1030 C.3   471  THR471      0.2028
     23  C        157.7110  133.2910  125.9290 C.2   471  THR471      0.2642
     24  O        158.0460  134.4650  125.9380 O.2   471  THR471     -0.2714
     25  CB       159.3550  131.4870  126.0430 C.3   471  THR471      0.1808
     26  OG1      160.0610  132.4160  126.8610 O.3   471  THR471     -0.2208
     27  CG2      160.3650  130.6750  125.2630 C.3   471  THR471      0.0379
     28  N        156.7170  132.8230  126.6500 N.am  472  TRP472     -0.1959
     29  CA       156.2180  133.6110  127.7560 C.3   472  TRP472      0.1771
     30  C        156.9960  133.3810  129.0240 C.2   472  TRP472      0.2619
     31  O        156.5950  133.8660  130.0710 O.2   472  TRP472     -0.2715
     32  CB       154.7760  133.2820  128.0250 C.3   472  TRP472      0.0590
     33  CG       153.8790  133.8360  127.0680 C.ar  472  TRP472      0.0006
     34  CD1      153.4610  133.2650  125.9220 C.ar  472  TRP472      0.0946
     35  CD2      153.2020  135.0800  127.1710 C.ar  472  TRP472      0.0152
     36  NE1      152.5830  134.0850  125.2770 N.ar  472  TRP472     -0.2442
     37  CE2      152.4060  135.2100  126.0350 C.ar  472  TRP472      0.0810
     38  CE3      153.2100  136.1060  128.1070 C.ar  472  TRP472      0.0012
     39  CZ2      151.6200  136.3150  125.8160 C.ar  472  TRP472      0.0191
     40  CZ3      152.4380  137.1900  127.8860 C.ar  472  TRP472      0.0001
     41  CH2      151.6510  137.2950  126.7560 C.ar  472  TRP472      0.0015
     42  N        158.0470  132.5850  128.9910 N.am  473  TRP473     -0.1974
     43  CA       158.7990  132.3690  130.2130 C.3   473  TRP473      0.1640
     44  C        159.7750  133.4900  130.4810 C.2   473  TRP473      0.2290
     45  O        160.3460  133.5480  131.5680 O.2   473  TRP473     -0.2864
     46  CB       159.5040  131.0040  130.1700 C.3   473  TRP473      0.0576
     47  CG       158.5040  129.9430  130.3000 C.ar  473  TRP473      0.0006
     48  CD1      157.9740  129.2020  129.3120 C.ar  473  TRP473      0.0946
     49  CD2      157.8330  129.5620  131.4930 C.ar  473  TRP473      0.0152
     50  NE1      157.0240  128.3700  129.8110 N.ar  473  TRP473     -0.2442
     51  CE2      156.9140  128.5820  131.1530 C.ar  473  TRP473      0.0810
     52  CE3      157.9190  129.9660  132.8200 C.ar  473  TRP473      0.0012
     53  CZ2      156.1070  127.9710  132.0840 C.ar  473  TRP473      0.0191
     54  CZ3      157.1110  129.3660  133.7400 C.ar  473  TRP473      0.0001
     55  CH2      156.2150  128.3850  133.3710 C.ar  473  TRP473      0.0015
     56  N        158.7480  136.4740  130.7510 N.3   475  ILE475     -0.1231
     57  CA       157.9400  137.3300  131.5950 C.3   475  ILE475      0.1692
     58  C        158.3090  137.1320  133.0380 C.2   475  ILE475      0.2592
     59  O        158.3840  138.0810  133.8100 O.2   475  ILE475     -0.2718
     60  CB       156.4660  137.0030  131.3320 C.3   475  ILE475      0.0266
     61  CG1      156.0970  137.3430  129.9070 C.3   475  ILE475      0.0019
     62  CG2      155.5520  137.5670  132.3280 C.3   475  ILE475      0.0020
     63  CD1      156.4650  138.6950  129.5230 C.3   475  ILE475      0.0001
     64  N        158.6430  135.9110  133.4050 N.am  476  THR476     -0.1953
     65  CA       158.9650  135.5900  134.7840 C.3   476  THR476      0.1897
     66  C        160.3360  136.1290  135.1780 C.2   476  THR476      0.2313
     67  O        160.6190  136.2790  136.3650 O.2   476  THR476     -0.2863
     68  CB       158.7620  134.0660  134.9490 C.3   476  THR476      0.1794
     69  OG1      157.3600  133.7510  134.7390 O.3   476  THR476     -0.2208
     70  CG2      159.1550  133.5230  136.3090 C.3   476  THR476      0.0378
     71  N        158.8880  139.8100  136.1140 N.3   479  VAL479     -0.1231
     72  CA       157.9810  139.8290  137.2400 C.3   479  VAL479      0.1692
     73  C        158.7230  139.5530  138.5290 C.2   479  VAL479      0.2592
     74  O        158.4350  140.1490  139.5570 O.2   479  VAL479     -0.2718
     75  CB       156.8700  138.8150  136.9780 C.3   479  VAL479      0.0266
     76  CG1      155.9600  138.6970  138.1350 C.3   479  VAL479      0.0020
     77  CG2      156.1060  139.2830  135.8340 C.3   479  VAL479      0.0020
     78  N        159.7010  138.6620  138.5110 N.am  480  SER480     -0.1952
     79  CA       160.5050  138.4430  139.7000 C.3   480  SER480      0.1924
     80  C        161.4190  139.6000  140.0220 C.2   480  SER480      0.2314
     81  O        161.8620  139.7040  141.1590 O.2   480  SER480     -0.2863
     82  CB       161.3550  137.2030  139.5400 C.3   480  SER480      0.2116
     83  OG       162.2180  137.3550  138.4310 O.3   480  SER480     -0.2180
     84  N        158.7320  141.8990  142.0100 N.3   483  VAL483     -0.1245
     85  CA       158.3440  141.3360  143.3000 C.3   483  VAL483      0.1561
     86  C        159.4660  141.4510  144.3160 C.2   483  VAL483      0.2260
     87  O        159.2680  141.9260  145.4320 O.2   483  VAL483     -0.2867
     88  CB       157.9480  139.8730  143.0900 C.3   483  VAL483      0.0252
     89  CG1      157.8470  139.1770  144.3520 C.3   483  VAL483      0.0019
     90  CG2      156.6700  139.8090  142.3460 C.3   483  VAL483      0.0019
@<TRIPOS>BOND
     1    18    17    1
     2    18    19    1
     3    20    19    2
     4    19    21   am
     5    21    22    1
     6    22    23    1
     7    22    25    1
     8    27    25    1
     9    36    34   ar
    10    36    37   ar
    11    39    37   ar
    12    39    41   ar
    13    34    33   ar
    14    23    24    2
    15    23    28   am
    16    37    35   ar
    17    25    26    1
    18    28    29    1
    19    41    40   ar
    20    33    35   ar
    21    33    32    1
    22    35    38   ar
    23    29    32    1
    24    29    30    1
    25    40    38   ar
    26    42    30   am
    27    42    43    1
    28    30    31    2
    29    48    50   ar
    30    48    47   ar
    31    63    61    1
    32    50    51   ar
    33    61    60    1
    34    46    43    1
    35    46    47    1
    36    43    44    1
    37    47    49   ar
    38    44    45    2
    39    56    57    1
    40    51    49   ar
    41    51    53   ar
    42    60    57    1
    43    60    62    1
    44    49    52   ar
    45    57    58    1
    46    53    55   ar
    47    52    54   ar
    48    58    64   am
    49    58    59    2
    50    55    54   ar
    51    64    65    1
    52    69    68    1
    53    65    68    1
    54    65    66    1
    55    68    70    1
    56    66    67    2
    57    77    75    1
    58    71    72    1
    59    75    72    1
    60    75    76    1
    61    72    73    1
    62    83    82    1
    63    78    73   am
    64    78    79    1
    65    73    74    2
    66    82    79    1
    67    79    80    1
    68    80    81    2
    69    84    85    1
    70    90    88    1
    71    12    11    2
    72    88    85    1
    73    88    89    1
    74    85    86    1
    75    14    15    1
    76    14    13    1
    77    15    16    1
    78    11    10    1
    79    10    13    1
    80    10     9    1
    81    86    87    2
    82     7     6    1
    83     8     6    1
    84     6     5    1
    85     4     3    2
    86     3     2    1
    87     5     2    1
    88     2     1    1
