@<TRIPOS>MOLECULE
tmp/6e1mA08.pdb
 101 95 0 0 0
SMALL
GASTEIGER

@<TRIPOS>ATOM
      1  N        181.1490  150.1620  125.6350 N.3    87  GLU87      -0.1231
      2  CA       182.4910  150.6080  125.3090 C.3    87  GLU87       0.1699
      3  C        183.5610  150.0610  126.2580 C.2    87  GLU87       0.2592
      4  O        184.7520  150.2090  125.9670 O.2    87  GLU87      -0.2718
      5  CB       182.4840  152.1470  125.2680 C.3    87  GLU87       0.0402
      6  CG       183.7120  152.8830  124.6970 C.3    87  GLU87       0.1161
      7  CD       183.9900  152.5850  123.2230 C.2    87  GLU87       0.3649
      8  OE1      183.0600  152.1780  122.4890 O.co2  87  GLU87      -0.2457
      9  OE2      185.1470  152.7860  122.7940 O.co2  87  GLU87      -0.2457
     10  N        183.1780  149.3940  127.3460 N.am   88  LEU88      -0.1980
     11  CA       184.1560  148.7520  128.2250 C.3    88  LEU88       0.1596
     12  C        184.9370  147.6650  127.4890 C.2    88  LEU88       0.2287
     13  O        184.4140  147.0380  126.5700 O.2    88  LEU88      -0.2864
     14  CB       183.4730  148.1370  129.4320 C.3    88  LEU88       0.0297
     15  CG       183.0500  149.0920  130.5210 C.3    88  LEU88       0.0022
     16  CD1      182.3270  148.3300  131.5680 C.3    88  LEU88       0.0001
     17  CD2      184.2820  149.6920  131.0980 C.3    88  LEU88       0.0001
     18  N        171.1720  150.1180  150.0310 N.3   395  LEU395     -0.1245
     19  CA       171.3580  150.2650  148.6070 C.3   395  LEU395      0.1561
     20  C        172.5770  149.5180  148.1300 C.2   395  LEU395      0.2260
     21  O        172.9140  149.6070  146.9530 O.2   395  LEU395     -0.2867
     22  CB       171.4890  151.7330  148.2170 C.3   395  LEU395      0.0270
     23  CG       170.2860  152.6470  148.3580 C.3   395  LEU395      0.0019
     24  CD1      170.7790  154.0200  148.1600 C.3   395  LEU395      0.0001
     25  CD2      169.2450  152.3330  147.3230 C.3   395  LEU395      0.0001
     26  N        170.7530  145.9710  147.0990 N.3   398  ILE398     -0.1231
     27  CA       170.0580  146.0680  145.8350 C.3   398  ILE398      0.1692
     28  C        171.0420  146.1150  144.6870 C.2   398  ILE398      0.2592
     29  O        170.8000  145.5180  143.6450 O.2   398  ILE398     -0.2718
     30  CB       169.1420  147.2880  145.8410 C.3   398  ILE398      0.0266
     31  CG1      168.1700  147.1880  146.9890 C.3   398  ILE398      0.0019
     32  CG2      168.3380  147.3420  144.6030 C.3   398  ILE398      0.0020
     33  CD1      167.4590  148.4540  147.1930 C.3   398  ILE398      0.0001
     34  N        172.1740  146.7890  144.8540 N.am  399  PHE399     -0.1976
     35  CA       173.2100  146.6920  143.8360 C.3   399  PHE399      0.1639
     36  C        173.7570  145.2810  143.7010 C.2   399  PHE399      0.2290
     37  O        174.2640  144.9310  142.6430 O.2   399  PHE399     -0.2864
     38  CB       174.3480  147.6290  144.1550 C.3   399  PHE399      0.0560
     39  CG       175.3820  147.6960  143.0960 C.ar  399  PHE399     -0.0200
     40  CD1      175.1420  148.3850  141.9390 C.ar  399  PHE399     -0.0042
     41  CD2      176.6040  147.0760  143.2460 C.ar  399  PHE399     -0.0042
     42  CE1      176.1050  148.4620  140.9540 C.ar  399  PHE399     -0.0003
     43  CE2      177.5570  147.1500  142.2530 C.ar  399  PHE399     -0.0003
     44  CZ       177.3060  147.8380  141.1100 C.ar  399  PHE399     -0.0000
     45  N        171.0030  143.4380  141.6940 N.3   402  LEU402     -0.1245
     46  CA       171.0640  143.6840  140.2610 C.3   402  LEU402      0.1561
     47  C        172.2780  143.0470  139.6370 C.2   402  LEU402      0.2260
     48  O        172.2890  142.8160  138.4300 O.2   402  LEU402     -0.2867
     49  CB       171.1090  145.1560  139.9210 C.3   402  LEU402      0.0270
     50  CG       170.1980  146.1860  140.5470 C.3   402  LEU402      0.0019
     51  CD1      170.2670  147.3560  139.6430 C.3   402  LEU402      0.0001
     52  CD2      168.7920  145.7800  140.8870 C.3   402  LEU402      0.0001
     53  N        177.6940  145.2800  131.3500 N.3   443  PRO443     -0.2116
     54  CA       177.2830  146.6130  131.7980 C.3   443  PRO443      0.1372
     55  C        176.1290  147.1880  131.0140 C.2   443  PRO443      0.2244
     56  O        175.4770  148.1000  131.5220 O.2   443  PRO443     -0.2868
     57  CB       178.5360  147.4460  131.6000 C.3   443  PRO443      0.0268
     58  CG       179.1250  146.8860  130.4970 C.3   443  PRO443      0.0207
     59  CD       178.9480  145.4100  130.5920 C.3   443  PRO443      0.0892
     60  N        173.5430  146.1060  133.2290 N.3   446  MET446     -0.1230
     61  CA       173.5550  146.7160  134.5510 C.3   446  MET446      0.1702
     62  C        172.7440  147.9960  134.5760 C.2   446  MET446      0.2592
     63  O        172.1290  148.3310  135.5820 O.2   446  MET446     -0.2718
     64  CB       174.9850  146.9940  134.9380 C.3   446  MET446      0.0401
     65  CG       175.1540  147.2300  136.3500 C.3   446  MET446      0.0596
     66  SD       174.8580  145.6900  137.1340 S.3   446  MET446     -0.1393
     67  CE       174.3860  146.2920  138.7260 C.3   446  MET446      0.0692
     68  N        172.7550  148.7300  133.4750 N.am  447  VAL447     -0.1980
     69  CA       171.9560  149.9310  133.3110 C.3   447  VAL447      0.1595
     70  C        170.5090  149.5750  133.0980 C.2   447  VAL447      0.2287
     71  O        169.6170  150.2760  133.5660 O.2   447  VAL447     -0.2864
     72  CB       172.5150  150.7160  132.1170 C.3   447  VAL447      0.0276
     73  CG1      171.7450  151.9720  131.8370 C.3   447  VAL447      0.0022
     74  CG2      173.9500  150.9800  132.3430 C.3   447  VAL447      0.0022
     75  N        168.5540  149.0610  135.9440 N.3   450  PHE450     -0.1241
     76  CA       168.2480  150.3010  136.6260 C.3   450  PHE450      0.1605
     77  C        166.9950  150.9520  136.0800 C.2   450  PHE450      0.2264
     78  O        166.2030  151.4790  136.8560 O.2   450  PHE450     -0.2867
     79  CB       169.3930  151.2750  136.5510 C.3   450  PHE450      0.0534
     80  CG       169.1260  152.5020  137.2980 C.ar  450  PHE450     -0.0203
     81  CD1      169.1840  152.4910  138.6660 C.ar  450  PHE450     -0.0042
     82  CD2      168.7800  153.6700  136.6570 C.ar  450  PHE450     -0.0042
     83  CE1      168.9130  153.6280  139.3900 C.ar  450  PHE450     -0.0003
     84  CE2      168.4870  154.7840  137.3760 C.ar  450  PHE450     -0.0003
     85  CZ       168.5690  154.7630  138.7470 C.ar  450  PHE450     -0.0000
     86  N        164.2640  149.3980  137.4020 N.3   453  LEU453     -0.1245
     87  CA       164.1730  149.6250  138.8330 C.3   453  LEU453      0.1561
     88  C        163.4630  150.9270  139.1480 C.2   453  LEU453      0.2260
     89  O        162.8000  151.0450  140.1780 O.2   453  LEU453     -0.2867
     90  CB       165.5680  149.6450  139.4150 C.3   453  LEU453      0.0270
     91  CG       165.7990  149.7270  140.8820 C.3   453  LEU453      0.0019
     92  CD1      165.2450  148.5030  141.3220 C.3   453  LEU453      0.0001
     93  CD2      167.2510  149.7110  141.1120 C.3   453  LEU453      0.0001
     94  N        162.8610  147.8820  147.4220 N.3   489  LEU489     -0.1245
     95  CA       162.6970  149.3150  147.2770 C.3   489  LEU489      0.1561
     96  C        161.6590  149.9020  148.1980 C.2   489  LEU489      0.2260
     97  O        161.4890  151.1140  148.1880 O.2   489  LEU489     -0.2867
     98  CB       162.3350  149.6920  145.8630 C.3   489  LEU489      0.0270
     99  CG       163.4780  149.6820  144.8850 C.3   489  LEU489      0.0019
    100  CD1      162.8870  150.1360  143.6130 C.3   489  LEU489      0.0001
    101  CD2      164.4920  150.6580  145.3480 C.3   489  LEU489      0.0001
@<TRIPOS>BOND
     1     8     7   ar
     2     9     7   ar
     3     7     6    1
     4     6     5    1
     5     5     2    1
     6     2     1    1
     7     2     3    1
     8     4     3    2
     9     3    10   am
    10    13    12    2
    11    10    11    1
    12    12    11    1
    13    11    14    1
    14    14    15    1
    15    58    59    1
    16    58    57    1
    17    15    17    1
    18    15    16    1
    19    59    53    1
    20    55    56    2
    21    55    54    1
    22    53    54    1
    23    57    54    1
    24    73    72    1
    25    72    74    1
    26    72    69    1
    27    70    69    1
    28    70    71    2
    29    60    61    1
    30    69    68    1
    31    68    62   am
    32    61    62    1
    33    61    64    1
    34    62    63    2
    35    64    65    1
    36    75    76    1
    37    77    76    1
    38    77    78    2
    39    65    66    1
    40    79    76    1
    41    79    80    1
    42    82    80   ar
    43    82    84   ar
    44    66    67    1
    45    80    81   ar
    46    84    85   ar
    47    86    87    1
    48    48    47    2
    49    81    83   ar
    50    85    83   ar
    51    87    88    1
    52    87    90    1
    53    88    89    2
    54    90    91    1
    55    47    46    1
    56    51    50    1
    57    49    46    1
    58    49    50    1
    59    46    45    1
    60    50    52    1
    61    91    93    1
    62    91    92    1
    63    42    44   ar
    64    42    40   ar
    65    44    43   ar
    66    40    39   ar
    67    43    41   ar
    68    37    36    2
    69    39    41   ar
    70    39    38    1
    71   100    99    1
    72    29    28    2
    73    36    35    1
    74    35    38    1
    75    35    34    1
    76    32    30    1
    77    28    34   am
    78    28    27    1
    79    99   101    1
    80    99    98    1
    81    27    30    1
    82    27    26    1
    83    30    31    1
    84    98    95    1
    85    21    20    2
    86    31    33    1
    87    95    94    1
    88    95    96    1
    89    25    23    1
    90    20    19    1
    91    24    23    1
    92    97    96    2
    93    22    23    1
    94    22    19    1
    95    19    18    1
