@<TRIPOS>MOLECULE
tmp/6e1mA01.pdb
 120 117 0 0 0
SMALL
GASTEIGER

@<TRIPOS>ATOM
      1  N        148.6840  139.7100  147.3360 N.3   190  TRP190     -0.1227
      2  CA       148.8350  140.5550  146.1720 C.3   190  TRP190      0.1737
      3  C        148.4870  139.8220  144.8980 C.2   190  TRP190      0.2595
      4  O        147.8270  140.3890  144.0290 O.2   190  TRP190     -0.2718
      5  CB       150.2610  141.0110  146.0810 C.3   190  TRP190      0.0564
      6  CG       150.5320  141.7230  144.8930 C.ar  190  TRP190      0.0003
      7  CD1      150.1240  142.9400  144.6120 C.ar  190  TRP190      0.0946
      8  CD2      151.2660  141.2600  143.7690 C.ar  190  TRP190      0.0152
      9  NE1      150.5720  143.3060  143.3950 N.ar  190  TRP190     -0.2442
     10  CE2      151.2810  142.2820  142.8550 C.ar  190  TRP190      0.0810
     11  CE3      151.9300  140.0850  143.4660 C.ar  190  TRP190      0.0012
     12  CZ2      151.9190  142.1870  141.6570 C.ar  190  TRP190      0.0191
     13  CZ3      152.5640  139.9800  142.2670 C.ar  190  TRP190      0.0001
     14  CH2      152.5520  141.0200  141.3720 C.ar  190  TRP190      0.0015
     15  N        148.9730  138.5850  144.7490 N.am  191  MET191     -0.1979
     16  CA       148.6420  137.7800  143.5800 C.3   191  MET191      0.1605
     17  C        147.1700  137.4890  143.5230 C.2   191  MET191      0.2287
     18  O        146.6150  137.3700  142.4400 O.2   191  MET191     -0.2864
     19  CB       149.4010  136.4680  143.5920 C.3   191  MET191      0.0413
     20  CG       150.8690  136.6070  143.3740 C.3   191  MET191      0.0598
     21  SD       151.7410  135.0360  143.4250 S.3   191  MET191     -0.1393
     22  CE       151.8230  134.7670  145.1890 C.3   191  MET191      0.0692
     23  N        145.5700  140.5950  141.7950 N.3   194  LEU194     -0.1231
     24  CA       145.6700  140.6080  140.3440 C.3   194  LEU194      0.1693
     25  C        144.8380  139.5170  139.7120 C.2   194  LEU194      0.2591
     26  O        144.4310  139.6590  138.5660 O.2   194  LEU194     -0.2718
     27  CB       147.0880  140.4150  139.8840 C.3   194  LEU194      0.0284
     28  CG       148.0990  141.4160  140.2950 C.3   194  LEU194      0.0019
     29  CD1      149.2990  140.9710  139.6200 C.3   194  LEU194      0.0001
     30  CD2      147.6580  142.6780  139.7510 C.3   194  LEU194      0.0001
     31  N        144.6470  138.3870  140.4000 N.am  195  LEU195     -0.1980
     32  CA       143.9240  137.2730  139.7910 C.3   195  LEU195      0.1596
     33  C        142.4260  137.4830  139.8430 C.2   195  LEU195      0.2287
     34  O        141.7200  137.2120  138.8720 O.2   195  LEU195     -0.2864
     35  CB       144.2940  135.9670  140.4710 C.3   195  LEU195      0.0297
     36  CG       145.6500  135.3960  140.0950 C.3   195  LEU195      0.0022
     37  CD1      145.9500  134.2820  141.0250 C.3   195  LEU195      0.0001
     38  CD2      145.6310  134.9010  138.6940 C.3   195  LEU195      0.0001
     39  N        143.1540  136.2240  125.6140 N.3   217  SER217     -0.1217
     40  CA       143.1810  135.0930  126.5150 C.3   217  SER217      0.1889
     41  C        143.2850  135.6000  127.9330 C.2   217  SER217      0.2288
     42  O        143.7420  136.7120  128.1670 O.2   217  SER217     -0.2866
     43  CB       144.3660  134.1980  126.1980 C.3   217  SER217      0.2089
     44  OG       144.4670  133.1690  127.1490 O.3   217  SER217     -0.2183
     45  N        145.3580  134.5880  130.0640 N.3   219  GLY219     -0.1210
     46  CA       146.7340  134.8200  130.3790 C.3   219  GLY219      0.1956
     47  C        147.2620  136.1210  129.8660 C.2   219  GLY219      0.2611
     48  O        148.3410  136.5290  130.2870 O.2   219  GLY219     -0.2717
     49  N        146.5630  136.7610  128.9390 N.am  220  ALA220     -0.1979
     50  CA       146.8770  138.1260  128.5710 C.3   220  ALA220      0.1597
     51  C        145.9100  139.1150  129.1630 C.2   220  ALA220      0.2287
     52  O        145.7660  140.1950  128.6210 O.2   220  ALA220     -0.2864
     53  CB       146.9070  138.2950  127.0590 C.3   220  ALA220      0.0319
     54  N        145.7240  138.5740  132.9330 N.3   222  LEU222     -0.1231
     55  CA       146.5680  138.6130  134.1090 C.3   222  LEU222      0.1693
     56  C        147.7970  139.4250  133.8260 C.2   222  LEU222      0.2592
     57  O        148.2910  140.1310  134.6910 O.2   222  LEU222     -0.2718
     58  CB       146.9500  137.2040  134.5210 C.3   222  LEU222      0.0284
     59  CG       147.8180  137.1010  135.7460 C.3   222  LEU222      0.0019
     60  CD1      147.0670  137.7210  136.8540 C.3   222  LEU222      0.0001
     61  CD2      148.0920  135.6740  136.0280 C.3   222  LEU222      0.0001
     62  N        148.2650  139.3520  132.6020 N.am  223  TYR223     -0.1976
     63  CA       149.5010  139.9690  132.2100 C.3   223  TYR223      0.1639
     64  C        149.3480  141.4650  132.0400 C.2   223  TYR223      0.2290
     65  O        150.1740  142.2350  132.5280 O.2   223  TYR223     -0.2864
     66  CB       149.9300  139.3070  130.9390 C.3   223  TYR223      0.0560
     67  CG       151.0290  139.9650  130.2750 C.ar  223  TYR223     -0.0198
     68  CD1      152.2100  140.1420  130.9140 C.ar  223  TYR223     -0.0009
     69  CD2      150.9330  140.3270  128.9640 C.ar  223  TYR223     -0.0009
     70  CE1      153.2260  140.7480  130.2990 C.ar  223  TYR223      0.0417
     71  CE2      151.9650  140.9200  128.3400 C.ar  223  TYR223      0.0417
     72  CZ       153.1090  141.1080  129.0170 C.ar  223  TYR223      0.1957
     73  OH       154.1740  141.6930  128.4470 O.3   223  TYR223     -0.2866
     74  N        148.4470  143.1000  135.3570 N.3   226  PHE226     -0.1241
     75  CA       149.6480  143.2230  136.1570 C.3   226  PHE226      0.1605
     76  C        150.3490  144.5170  135.8540 C.2   226  PHE226      0.2264
     77  O        150.7530  145.2280  136.7730 O.2   226  PHE226     -0.2867
     78  CB       150.5680  142.0440  135.8970 C.3   226  PHE226      0.0534
     79  CG       151.9150  142.2090  136.4210 C.ar  226  PHE226     -0.0203
     80  CD1      152.1220  142.2830  137.7620 C.ar  226  PHE226     -0.0042
     81  CD2      152.9860  142.2160  135.5860 C.ar  226  PHE226     -0.0042
     82  CE1      153.3630  142.4080  138.2570 C.ar  226  PHE226     -0.0003
     83  CE2      154.2220  142.3420  136.0750 C.ar  226  PHE226     -0.0003
     84  CZ       154.4130  142.4340  137.4160 C.ar  226  PHE226     -0.0000
     85  N        156.7170  132.8230  126.6500 N.3   472  TRP472     -0.1241
     86  CA       156.2180  133.6110  127.7560 C.3   472  TRP472      0.1605
     87  C        156.9960  133.3810  129.0240 C.2   472  TRP472      0.2264
     88  O        156.5950  133.8660  130.0710 O.2   472  TRP472     -0.2867
     89  CB       154.7760  133.2820  128.0250 C.3   472  TRP472      0.0550
     90  CG       153.8790  133.8360  127.0680 C.ar  472  TRP472      0.0003
     91  CD1      153.4610  133.2650  125.9220 C.ar  472  TRP472      0.0946
     92  CD2      153.2020  135.0800  127.1710 C.ar  472  TRP472      0.0152
     93  NE1      152.5830  134.0850  125.2770 N.ar  472  TRP472     -0.2442
     94  CE2      152.4060  135.2100  126.0350 C.ar  472  TRP472      0.0810
     95  CE3      153.2100  136.1060  128.1070 C.ar  472  TRP472      0.0012
     96  CZ2      151.6200  136.3150  125.8160 C.ar  472  TRP472      0.0191
     97  CZ3      152.4380  137.1900  127.8860 C.ar  472  TRP472      0.0001
     98  CH2      151.6510  137.2950  126.7560 C.ar  472  TRP472      0.0015
     99  N        158.7480  136.4740  130.7510 N.3   475  ILE475     -0.1231
    100  CA       157.9400  137.3300  131.5950 C.3   475  ILE475      0.1692
    101  C        158.3090  137.1320  133.0380 C.2   475  ILE475      0.2592
    102  O        158.3840  138.0810  133.8100 O.2   475  ILE475     -0.2718
    103  CB       156.4660  137.0030  131.3320 C.3   475  ILE475      0.0266
    104  CG1      156.0970  137.3430  129.9070 C.3   475  ILE475      0.0019
    105  CG2      155.5520  137.5670  132.3280 C.3   475  ILE475      0.0020
    106  CD1      156.4650  138.6950  129.5230 C.3   475  ILE475      0.0001
    107  N        158.6430  135.9110  133.4050 N.am  476  THR476     -0.1953
    108  CA       158.9650  135.5900  134.7840 C.3   476  THR476      0.1897
    109  C        160.3360  136.1290  135.1780 C.2   476  THR476      0.2313
    110  O        160.6190  136.2790  136.3650 O.2   476  THR476     -0.2863
    111  CB       158.7620  134.0660  134.9490 C.3   476  THR476      0.1794
    112  OG1      157.3600  133.7510  134.7390 O.3   476  THR476     -0.2208
    113  CG2      159.1550  133.5230  136.3090 C.3   476  THR476      0.0378
    114  N        158.8880  139.8100  136.1140 N.3   479  VAL479     -0.1245
    115  CA       157.9810  139.8290  137.2400 C.3   479  VAL479      0.1561
    116  C        158.7230  139.5530  138.5290 C.2   479  VAL479      0.2260
    117  O        158.4350  140.1490  139.5570 O.2   479  VAL479     -0.2867
    118  CB       156.8700  138.8150  136.9780 C.3   479  VAL479      0.0252
    119  CG1      155.9600  138.6970  138.1350 C.3   479  VAL479      0.0019
    120  CG2      156.1060  139.2830  135.8340 C.3   479  VAL479      0.0019
@<TRIPOS>BOND
     1    93    91   ar
     2    93    94   ar
     3    39    40    1
     4    96    94   ar
     5    96    98   ar
     6    91    90   ar
     7    94    92   ar
     8    43    40    1
     9    43    44    1
    10    40    41    1
    11    85    86    1
    12    98    97   ar
    13    53    50    1
    14    90    92   ar
    15    90    89    1
    16    92    95   ar
    17    86    89    1
    18    86    87    1
    19    97    95   ar
    20    41    42    2
    21    71    69   ar
    22    71    72   ar
    23    73    72    1
    24    50    49    1
    25    50    51    1
    26    52    51    2
    27    49    47   am
    28    69    67   ar
    29    72    70   ar
    30    87    88    2
    31   106   104    1
    32    47    48    2
    33    47    46    1
    34   104   103    1
    35    45    46    1
    36    67    68   ar
    37    67    66    1
    38    70    68   ar
    39    99   100    1
    40    66    63    1
    41   103   100    1
    42   103   105    1
    43   100   101    1
    44    64    63    1
    45    64    65    2
    46    63    62    1
    47    62    56   am
    48    54    55    1
    49   101   107   am
    50   101   102    2
    51   107   108    1
    52    56    55    1
    53    56    57    2
    54    55    58    1
    55    58    59    1
    56   112   111    1
    57   108   111    1
    58   108   109    1
    59   111   113    1
    60   109   110    2
    61    74    75    1
    62    81    83   ar
    63    81    79   ar
    64    59    61    1
    65    59    60    1
    66   120   118    1
    67    76    75    1
    68    76    77    2
    69    78    75    1
    70    78    79    1
    71    83    84   ar
    72   114   115    1
    73    79    80   ar
    74   118   115    1
    75   118   119    1
    76   115   116    1
    77    84    82   ar
    78    80    82   ar
    79   116   117    2
    80    26    25    2
    81    38    36    1
    82    34    33    2
    83    29    28    1
    84    25    24    1
    85    25    31   am
    86    30    28    1
    87    32    33    1
    88    32    31    1
    89    32    35    1
    90    27    28    1
    91    27    24    1
    92    36    35    1
    93    36    37    1
    94    24    23    1
    95    14    12   ar
    96    14    13   ar
    97    12    10   ar
    98    13    11   ar
    99    18    17    2
   100    10     9   ar
   101    10     8   ar
   102    20    21    1
   103    20    19    1
   104     9     7   ar
   105    21    22    1
   106    11     8   ar
   107    17    16    1
   108    16    19    1
   109    16    15    1
   110     8     6   ar
   111     4     3    2
   112     7     6   ar
   113    15     3   am
   114     6     5    1
   115     3     2    1
   116     5     2    1
   117     2     1    1
