@<TRIPOS>MOLECULE
tmp/6e1nB00.pdb
 210 208 0 0 0
SMALL
GASTEIGER

@<TRIPOS>ATOM
      1  N        119.7080  163.7240  155.0390 N.3    52  LEU52      -0.1245
      2  CA       120.0040  162.9980  153.8090 C.3    52  LEU52       0.1561
      3  C        119.1780  163.5400  152.6530 C.2    52  LEU52       0.2260
      4  O        119.3380  163.1190  151.5070 O.2    52  LEU52      -0.2867
      5  CB       119.7580  161.5070  154.0150 C.3    52  LEU52       0.0270
      6  CG       120.4270  160.5140  153.0670 C.3    52  LEU52       0.0019
      7  CD1      121.9240  160.4920  153.2920 C.3    52  LEU52       0.0001
      8  CD2      119.8580  159.1510  153.2470 C.3    52  LEU52       0.0001
      9  N        121.9020  165.4260  150.5990 N.3    55  PHE55      -0.1241
     10  CA       122.8690  164.7810  149.7270 C.3    55  PHE55       0.1605
     11  C        122.2340  164.4610  148.3980 C.2    55  PHE55       0.2264
     12  O        122.9210  164.1680  147.4180 O.2    55  PHE55      -0.2867
     13  CB       123.4530  163.5370  150.3690 C.3    55  PHE55       0.0534
     14  CG       124.4230  163.8210  151.4750 C.ar   55  PHE55      -0.0203
     15  CD1      124.7030  165.1160  151.8870 C.ar   55  PHE55      -0.0042
     16  CD2      125.1460  162.7840  152.0200 C.ar   55  PHE55      -0.0042
     17  CE1      125.5720  165.3530  152.8700 C.ar   55  PHE55      -0.0003
     18  CE2      126.0650  163.0200  152.9940 C.ar   55  PHE55      -0.0003
     19  CZ       126.2540  164.3210  153.4170 C.ar   55  PHE55      -0.0000
     20  N        125.3930  166.2080  146.4050 N.3    59  PHE59      -0.1241
     21  CA       125.8610  165.4500  145.2600 C.3    59  PHE59       0.1605
     22  C        125.1310  165.8840  144.0040 C.2    59  PHE59       0.2264
     23  O        125.6640  165.7670  142.8990 O.2    59  PHE59      -0.2867
     24  CB       125.6600  163.9560  145.4740 C.3    59  PHE59       0.0534
     25  CG       126.5290  163.3580  146.5270 C.ar   59  PHE59      -0.0203
     26  CD1      127.6030  164.0330  147.0410 C.ar   59  PHE59      -0.0042
     27  CD2      126.2730  162.0810  146.9770 C.ar   59  PHE59      -0.0042
     28  CE1      128.3730  163.4660  148.0050 C.ar   59  PHE59      -0.0003
     29  CE2      127.0510  161.5090  147.9320 C.ar   59  PHE59      -0.0003
     30  CZ       128.1000  162.2040  148.4480 C.ar   59  PHE59      -0.0000
     31  N        126.8650  168.9050  142.6920 N.3    62  PHE62      -0.1227
     32  CA       128.2740  168.7220  142.4100 C.3    62  PHE62       0.1736
     33  C        128.4710  167.9190  141.1460 C.2    62  PHE62       0.2595
     34  O        129.5350  167.9710  140.5270 O.2    62  PHE62      -0.2718
     35  CB       128.8880  168.0100  143.5910 C.3    62  PHE62       0.0547
     36  CG       130.3330  167.9830  143.5890 C.ar   62  PHE62      -0.0202
     37  CD1      131.0350  169.1180  143.8400 C.ar   62  PHE62      -0.0042
     38  CD2      130.9980  166.8070  143.4370 C.ar   62  PHE62      -0.0042
     39  CE1      132.3800  169.0970  143.8980 C.ar   62  PHE62      -0.0003
     40  CE2      132.3400  166.7710  143.4930 C.ar   62  PHE62      -0.0003
     41  CZ       133.0360  167.9210  143.7220 C.ar   62  PHE62      -0.0000
     42  N        127.4690  167.1440  140.7760 N.am   63  PHE63      -0.1976
     43  CA       127.5410  166.2790  139.6150 C.3    63  PHE63       0.1639
     44  C        126.7810  166.8830  138.4730 C.2    63  PHE63       0.2290
     45  O        126.5580  166.2210  137.4600 O.2    63  PHE63      -0.2864
     46  CB       126.9540  164.8990  139.9010 C.3    63  PHE63       0.0560
     47  CG       127.6070  164.1650  141.0270 C.ar   63  PHE63      -0.0200
     48  CD1      128.8680  164.5030  141.4930 C.ar   63  PHE63      -0.0042
     49  CD2      126.9320  163.1270  141.6350 C.ar   63  PHE63      -0.0042
     50  CE1      129.4270  163.8450  142.5420 C.ar   63  PHE63      -0.0003
     51  CE2      127.4980  162.4550  142.6800 C.ar   63  PHE63      -0.0003
     52  CZ       128.7570  162.8170  143.1320 C.ar   63  PHE63      -0.0000
     53  N        130.3030  172.5940  148.0630 N.3   162  PHE162     -0.1241
     54  CA       130.2650  171.1810  148.3600 C.3   162  PHE162      0.1605
     55  C        131.4060  170.7670  149.2860 C.2   162  PHE162      0.2264
     56  O        131.2880  169.7810  150.0170 O.2   162  PHE162     -0.2867
     57  CB       130.3000  170.3990  147.0590 C.3   162  PHE162      0.0534
     58  CG       130.2850  168.9540  147.2670 C.ar  162  PHE162     -0.0203
     59  CD1      129.1220  168.3330  147.6260 C.ar  162  PHE162     -0.0042
     60  CD2      131.4510  168.2140  147.1990 C.ar  162  PHE162     -0.0042
     61  CE1      129.1050  167.0030  147.8630 C.ar  162  PHE162     -0.0003
     62  CE2      131.4400  166.8830  147.4590 C.ar  162  PHE162     -0.0003
     63  CZ       130.2690  166.2770  147.7930 C.ar  162  PHE162     -0.0000
     64  N        130.0080  169.4180  153.6950 N.3   166  ILE166     -0.1231
     65  CA       130.0930  168.1360  154.3740 C.3   166  ILE166      0.1692
     66  C        131.2630  168.1420  155.3370 C.2   166  ILE166      0.2592
     67  O        132.3880  168.4920  154.9680 O.2   166  ILE166     -0.2718
     68  CB       130.2060  166.9900  153.3780 C.3   166  ILE166      0.0266
     69  CG1      129.1280  167.1600  152.3450 C.3   166  ILE166      0.0019
     70  CG2      129.9510  165.6770  154.1010 C.3   166  ILE166      0.0020
     71  CD1      129.2820  166.2280  151.2580 C.3   166  ILE166      0.0001
     72  N        130.9950  167.7070  156.5650 N.am  167  ARG167     -0.1966
     73  CA       131.8920  167.9580  157.6800 C.3   167  ARG167      0.1729
     74  C        133.1820  167.1750  157.5460 C.2   167  ARG167      0.2616
     75  O        134.2180  167.6050  158.0480 O.2   167  ARG167     -0.2715
     76  CB       131.1550  167.6360  158.9760 C.3   167  ARG167      0.0348
     77  CG       131.8980  167.9310  160.2510 C.3   167  ARG167      0.0492
     78  CD       130.9670  167.8490  161.4560 C.3   167  ARG167      0.2205
     79  NE       130.3720  166.5340  161.6720 N.pl3 167  ARG167     -0.0865
     80  CZ       130.9490  165.5560  162.3600 C.cat 167  ARG167      0.5346
     81  NH1      132.1460  165.7390  162.9020 N.pl3 167  ARG167      0.1354
     82  NH2      130.3200  164.3970  162.5110 N.pl3 167  ARG167      0.1354
     83  N        133.1500  166.0560  156.8240 N.am  168  GLU168     -0.1963
     84  CA       134.3780  165.3350  156.5080 C.3   168  GLU168      0.1733
     85  C        135.3320  166.1770  155.6780 C.2   168  GLU168      0.2616
     86  O        136.5240  166.2730  155.9930 O.2   168  GLU168     -0.2715
     87  CB       134.0700  164.0580  155.7410 C.3   168  GLU168      0.0429
     88  CG       133.6330  162.8950  156.5570 C.3   168  GLU168      0.1163
     89  CD       133.4370  161.6650  155.6890 C.2   168  GLU168      0.3649
     90  OE1      133.3760  161.8070  154.4510 O.co2 168  GLU168     -0.2457
     91  OE2      133.3960  160.5500  156.2380 O.co2 168  GLU168     -0.2457
     92  N        134.8290  166.7920  154.6140 N.am  169  LEU169     -0.1977
     93  CA       135.7010  167.5550  153.7370 C.3   169  LEU169      0.1596
     94  C        136.1150  168.8650  154.3710 C.2   169  LEU169      0.2287
     95  O        137.1660  169.4180  154.0370 O.2   169  LEU169     -0.2864
     96  CB       134.9900  167.7930  152.4250 C.3   169  LEU169      0.0297
     97  CG       134.7610  166.4340  151.8150 C.3   169  LEU169      0.0022
     98  CD1      133.8270  166.5410  150.6530 C.3   169  LEU169      0.0001
     99  CD2      136.0810  165.9340  151.3610 C.3   169  LEU169      0.0001
    100  N        121.9760  152.4230  159.1230 N.3   450  TRP450     -0.1241
    101  CA       122.9940  153.3690  158.6730 C.3   450  TRP450      0.1605
    102  C        124.2370  153.3010  159.5430 C.2   450  TRP450      0.2264
    103  O        125.3140  153.7280  159.1220 O.2   450  TRP450     -0.2867
    104  CB       122.4690  154.8100  158.6530 C.3   450  TRP450      0.0550
    105  CG       121.5110  155.1400  157.5490 C.ar  450  TRP450      0.0003
    106  CD1      120.1780  155.3500  157.6580 C.ar  450  TRP450      0.0946
    107  CD2      121.8240  155.2810  156.1680 C.ar  450  TRP450      0.0152
    108  NE1      119.6370  155.6160  156.4310 N.ar  450  TRP450     -0.2442
    109  CE2      120.6350  155.5770  155.4970 C.ar  450  TRP450      0.0810
    110  CE3      122.9990  155.1900  155.4360 C.ar  450  TRP450      0.0012
    111  CZ2      120.5870  155.7720  154.1280 C.ar  450  TRP450      0.0191
    112  CZ3      122.9550  155.3830  154.0790 C.ar  450  TRP450      0.0001
    113  CH2      121.7600  155.6770  153.4380 C.ar  450  TRP450      0.0015
    114  N        125.5810  149.9000  155.0150 N.3   456  ARG456     -0.1231
    115  CA       125.2490  151.2780  154.6850 C.3   456  ARG456      0.1694
    116  C        125.4730  151.5780  153.2140 C.2   456  ARG456      0.2592
    117  O        124.5990  152.1310  152.5390 O.2   456  ARG456     -0.2718
    118  CB       126.1050  152.1920  155.5470 C.3   456  ARG456      0.0321
    119  CG       126.0550  153.6170  155.1600 C.3   456  ARG456      0.0489
    120  CD       126.6220  154.4050  156.2750 C.3   456  ARG456      0.2205
    121  NE       126.5470  155.8430  156.0990 N.pl3 456  ARG456     -0.0865
    122  CZ       126.8630  156.6870  157.0680 C.cat 456  ARG456      0.5346
    123  NH1      126.7980  157.9960  156.8810 N.pl3 456  ARG456      0.1354
    124  NH2      127.2320  156.1980  158.2420 N.pl3 456  ARG456      0.1354
    125  N        126.6330  151.1860  152.6960 N.am  457  PHE457     -0.1976
    126  CA       126.9570  151.4710  151.3060 C.3   457  PHE457      0.1639
    127  C        126.1420  150.5900  150.3740 C.2   457  PHE457      0.2290
    128  O        125.9420  150.9340  149.2080 O.2   457  PHE457     -0.2864
    129  CB       128.4480  151.2500  151.0660 C.3   457  PHE457      0.0560
    130  CG       129.3540  152.1420  151.8840 C.ar  457  PHE457     -0.0200
    131  CD1      128.9380  153.3840  152.3520 C.ar  457  PHE457     -0.0042
    132  CD2      130.6220  151.7060  152.2160 C.ar  457  PHE457     -0.0042
    133  CE1      129.7900  154.1790  153.1090 C.ar  457  PHE457     -0.0003
    134  CE2      131.4620  152.4900  152.9710 C.ar  457  PHE457     -0.0003
    135  CZ       131.0480  153.7290  153.4140 C.ar  457  PHE457     -0.0000
    136  N        122.7690  152.0550  149.3330 N.3   460  LEU460     -0.1245
    137  CA       123.0890  153.0910  148.3620 C.3   460  LEU460      0.1561
    138  C        123.2290  152.5090  146.9630 C.2   460  LEU460      0.2260
    139  O        122.7640  153.1010  145.9830 O.2   460  LEU460     -0.2867
    140  CB       124.3860  153.7770  148.7850 C.3   460  LEU460      0.0270
    141  CG       125.0500  154.8590  147.9300 C.3   460  LEU460      0.0019
    142  CD1      124.2410  156.1540  147.8780 C.3   460  LEU460      0.0001
    143  CD2      126.4770  155.1060  148.4140 C.3   460  LEU460      0.0001
    144  N        138.0090  151.7300  153.9770 N.3   506  ILE506     -0.1231
    145  CA       137.0310  152.1770  153.0060 C.3   506  ILE506      0.1678
    146  C        136.1970  153.3300  153.5420 C.2   506  ILE506      0.2434
    147  O        136.0170  154.3090  152.8110 O.2   506  ILE506     -0.2733
    148  CB       136.2150  150.9890  152.4860 C.3   506  ILE506      0.0265
    149  CG1      137.1700  150.0380  151.7990 C.3   506  ILE506      0.0019
    150  CG2      135.2420  151.4510  151.4650 C.3   506  ILE506      0.0020
    151  CD1      136.5560  148.7130  151.4370 C.3   506  ILE506      0.0001
    152  N        135.7080  153.3390  154.7910 N.am  507  PRO507     -0.2729
    153  CA       135.1120  154.5950  155.2660 C.3   507  PRO507      0.1401
    154  C        136.1450  155.6080  155.6890 C.2   507  PRO507      0.2269
    155  O        135.8250  156.7890  155.8410 O.2   507  PRO507     -0.2865
    156  CB       134.2550  154.1640  156.4540 C.3   507  PRO507      0.0296
    157  CG       134.0790  152.7490  156.2990 C.3   507  PRO507      0.0237
    158  CD       135.3340  152.2530  155.7100 C.3   507  PRO507      0.0939
    159  N        138.7650  156.5920  154.0920 N.3   509  LEU509     -0.1231
    160  CA       139.1840  157.4290  152.9890 C.3   509  LEU509      0.1693
    161  C        138.0540  157.8050  152.0660 C.2   509  LEU509      0.2592
    162  O        138.2370  157.8270  150.8510 O.2   509  LEU509     -0.2718
    163  CB       140.2830  156.7710  152.1740 C.3   509  LEU509      0.0284
    164  CG       141.5870  156.7430  152.9320 C.3   509  LEU509      0.0019
    165  CD1      142.6450  156.2290  152.0440 C.3   509  LEU509      0.0001
    166  CD2      141.9410  158.0930  153.3530 C.3   509  LEU509      0.0001
    167  N        136.8810  158.0550  152.5880 N.am  510  MET510     -0.1966
    168  CA       135.9790  158.9200  151.8540 C.3   510  MET510      0.1721
    169  C        136.2810  160.4050  152.0030 C.2   510  MET510      0.2458
    170  O        136.0840  161.1260  151.0140 O.2   510  MET510     -0.2730
    171  CB       134.5410  158.5660  152.2050 C.3   510  MET510      0.0427
    172  CG       134.1070  157.2770  151.5490 C.3   510  MET510      0.0599
    173  SD       134.1820  157.3930  149.7540 S.3   510  MET510     -0.1393
    174  CE       135.5580  156.3220  149.3880 C.3   510  MET510      0.0692
    175  N        136.7230  160.9450  153.1490 N.am  511  PRO511     -0.2727
    176  CA       137.1680  162.3380  153.1000 C.3   511  PRO511      0.1402
    177  C        138.4160  162.5520  152.2880 C.2   511  PRO511      0.2269
    178  O        138.4000  163.3680  151.3670 O.2   511  PRO511     -0.2865
    179  CB       137.3780  162.6990  154.5700 C.3   511  PRO511      0.0296
    180  CG       137.4960  161.4810  155.2460 C.3   511  PRO511      0.0237
    181  CD       136.5990  160.5330  154.5540 C.3   511  PRO511      0.0939
    182  N        139.9610  160.9960  150.0490 N.3   513  LEU513     -0.1231
    183  CA       139.8030  160.8030  148.6180 C.3   513  LEU513      0.1693
    184  C        138.6220  161.5890  148.0990 C.2   513  LEU513      0.2592
    185  O        138.4070  161.6670  146.8890 O.2   513  LEU513     -0.2718
    186  CB       139.6560  159.3290  148.2960 C.3   513  LEU513      0.0284
    187  CG       141.0130  158.6760  148.3350 C.3   513  LEU513      0.0019
    188  CD1      140.8850  157.2020  148.3470 C.3   513  LEU513      0.0001
    189  CD2      141.7030  159.1000  147.0810 C.3   513  LEU513      0.0001
    190  N        137.8360  162.1710  148.9850 N.am  514  GLY514     -0.1957
    191  CA       136.8250  163.0850  148.5090 C.3   514  GLY514      0.1869
    192  C        137.4250  164.4140  148.1160 C.2   514  GLY514      0.2309
    193  O        137.0190  165.0140  147.1200 O.2   514  GLY514     -0.2863
    194  N        138.9790  164.2410  144.8490 N.3   517  PHE517     -0.1227
    195  CA       137.9710  164.3310  143.8020 C.3   517  PHE517      0.1736
    196  C        137.5480  165.7700  143.5860 C.2   517  PHE517      0.2595
    197  O        137.1790  166.1540  142.4750 O.2   517  PHE517     -0.2718
    198  CB       136.7490  163.5070  144.1500 C.3   517  PHE517      0.0547
    199  CG       135.7600  163.3970  143.0310 C.ar  517  PHE517     -0.0202
    200  CD1      135.9060  162.4310  142.0700 C.ar  517  PHE517     -0.0042
    201  CD2      134.6850  164.2620  142.9260 C.ar  517  PHE517     -0.0042
    202  CE1      134.9860  162.3120  141.0360 C.ar  517  PHE517     -0.0003
    203  CE2      133.7910  164.1630  141.8850 C.ar  517  PHE517     -0.0003
    204  CZ       133.9380  163.1860  140.9430 C.ar  517  PHE517     -0.0000
    205  N        137.5900  166.5850  144.6370 N.am  518  CYS518     -0.1970
    206  CA       137.1770  167.9700  144.4780 C.3   518  CYS518      0.1712
    207  C        138.2530  168.7880  143.7890 C.2   518  CYS518      0.2296
    208  O        137.9430  169.6950  143.0150 O.2   518  CYS518     -0.2864
    209  CB       136.8160  168.5790  145.8290 C.3   518  CYS518      0.0983
    210  SG       135.3320  167.8710  146.5430 S.3   518  CYS518     -0.0798
@<TRIPOS>BOND
     1    45    44    2
     2    44    43    1
     3    43    46    1
     4    43    42    1
     5    46    47    1
     6    34    33    2
     7    42    33   am
     8   204   202   ar
     9   204   203   ar
    10    47    48   ar
    11    47    49   ar
    12   202   200   ar
    13    33    32    1
    14    48    50   ar
    15    49    51   ar
    16   203   201   ar
    17   200   199   ar
    18    32    31    1
    19    32    35    1
    20   197   196    2
    21    50    52   ar
    22    51    52   ar
    23    23    22    2
    24   201   199   ar
    25   208   207    2
    26   199   198    1
    27    38    40   ar
    28    38    36   ar
    29    40    41   ar
    30   196   195    1
    31   196   205   am
    32    36    35    1
    33    36    37   ar
    34    41    39   ar
    35   207   206    1
    36   195   198    1
    37   195   194    1
    38    37    39   ar
    39    22    21    1
    40   206   205    1
    41   206   209    1
    42    21    24    1
    43    21    20    1
    44    24    25    1
    45   209   210    1
    46   139   138    2
    47    25    27   ar
    48    25    26   ar
    49   185   184    2
    50   138   137    1
    51    27    29   ar
    52    26    28   ar
    53    57    58    1
    54    57    54    1
    55   189   187    1
    56   193   192    2
    57    60    58   ar
    58    60    62   ar
    59    58    59   ar
    60    12    11    2
    61    62    63   ar
    62    59    61   ar
    63    63    61   ar
    64   142   141    1
    65   141   143    1
    66   141   140    1
    67    29    30   ar
    68    28    30   ar
    69    53    54    1
    70   184   183    1
    71   184   190   am
    72   192   191    1
    73   186   187    1
    74   186   183    1
    75   187   188    1
    76    54    55    1
    77   137   140    1
    78   137   136    1
    79    11    10    1
    80   191   190    1
    81   183   182    1
    82   128   127    2
    83    55    56    2
    84   174   173    1
    85    10    13    1
    86    10     9    1
    87   173   172    1
    88    13    14    1
    89   127   126    1
    90    98    97    1
    91   162   161    2
    92   170   169    2
    93   129   126    1
    94   129   130    1
    95    71    69    1
    96   126   125    1
    97    99    97    1
    98   178   177    2
    99   151   149    1
   100   150   148    1
   101    14    15   ar
   102    14    16   ar
   103     4     3    2
   104   172   171    1
   105   149   148    1
   106    97    96    1
   107   168   169    1
   108   168   171    1
   109   168   167    1
   110   130   132   ar
   111   130   131   ar
   112    15    17   ar
   113   169   175   am
   114    16    18   ar
   115   165   164    1
   116   161   167   am
   117   161   160    1
   118   163   164    1
   119   163   160    1
   120   132   134   ar
   121   177   176    1
   122    69    68    1
   123   131   133   ar
   124    96    93    1
   125   148   145    1
   126   117   116    2
   127     3     2    1
   128   125   116   am
   129   147   146    2
   130    17    19   ar
   131   164   166    1
   132   134   135   ar
   133   160   159    1
   134    18    19   ar
   135   145   146    1
   136   145   144    1
   137     6     8    1
   138     6     7    1
   139     6     5    1
   140   176   175    1
   141   176   179    1
   142   133   135   ar
   143   175   181    1
   144   116   115    1
   145    68    70    1
   146    68    65    1
   147   113   112   ar
   148   113   111   ar
   149   146   152   am
   150    64    65    1
   151    93    94    1
   152    93    92    1
   153     2     5    1
   154     2     1    1
   155    95    94    2
   156   112   110   ar
   157   111   109   ar
   158    65    66    1
   159    90    89   ar
   160   181   180    1
   161   179   180    1
   162    92    85   am
   163   115   114    1
   164   115   118    1
   165   152   153    1
   166   152   158    1
   167    67    66    2
   168   119   118    1
   169   119   120    1
   170   153   154    1
   171   153   156    1
   172    66    72   am
   173   110   107   ar
   174   109   107   ar
   175   109   108   ar
   176    85    86    2
   177    85    84    1
   178    89    91   ar
   179    89    88    1
   180   154   155    2
   181   158   157    1
   182    87    84    1
   183    87    88    1
   184   121   120    1
   185   121   122    2
   186   107   105   ar
   187   157   156    1
   188   108   106   ar
   189    84    83    1
   190    72    73    1
   191    83    74   am
   192   123   122    1
   193   122   124    1
   194    74    73    1
   195    74    75    2
   196   105   106   ar
   197   105   104    1
   198    73    76    1
   199   104   101    1
   200   101   100    1
   201   101   102    1
   202    76    77    1
   203   103   102    2
   204    77    78    1
   205    78    79    1
   206    79    80    2
   207    80    82    1
   208    80    81    1
