@<TRIPOS>MOLECULE
tmp/6e1nB06.pdb
 120 115 0 0 0
SMALL
GASTEIGER

@<TRIPOS>ATOM
      1  N        139.5170  168.4690  144.0470 N.3   519  VAL519     -0.1245
      2  CA       140.6110  169.1870  143.4150 C.3   519  VAL519      0.1561
      3  C        140.5870  168.9680  141.9130 C.2   519  VAL519      0.2260
      4  O        140.8950  169.8760  141.1400 O.2   519  VAL519     -0.2867
      5  CB       141.9470  168.7670  144.0480 C.3   519  VAL519      0.0252
      6  CG1      143.1080  169.3460  143.3370 C.3   519  VAL519      0.0019
      7  CG2      141.9880  169.2000  145.4650 C.3   519  VAL519      0.0019
      8  N        138.0070  171.2220  140.3290 N.3   522  ILE522     -0.1231
      9  CA       138.5670  172.5420  140.1130 C.3   522  ILE522      0.1692
     10  C        139.4560  172.5440  138.8910 C.2   522  ILE522      0.2592
     11  O        139.3750  173.4380  138.0450 O.2   522  ILE522     -0.2718
     12  CB       139.3500  172.9540  141.3530 C.3   522  ILE522      0.0266
     13  CG1      138.4160  172.9470  142.5450 C.3   522  ILE522      0.0019
     14  CG2      139.9790  174.2570  141.1330 C.3   522  ILE522      0.0020
     15  CD1      137.2740  173.8750  142.3960 C.3   522  ILE522      0.0001
     16  N        140.3190  171.5440  138.7780 N.am  523  TYR523     -0.1976
     17  CA       141.2920  171.5410  137.7050 C.3   523  TYR523      0.1639
     18  C        140.6840  171.1820  136.3780 C.2   523  TYR523      0.2290
     19  O        141.2240  171.5580  135.3390 O.2   523  TYR523     -0.2864
     20  CB       142.3970  170.5800  138.0040 C.3   523  TYR523      0.0560
     21  CG       143.4930  171.1840  138.7380 C.ar  523  TYR523     -0.0198
     22  CD1      144.3390  172.0380  138.1030 C.ar  523  TYR523     -0.0009
     23  CD2      143.7490  170.8320  140.0230 C.ar  523  TYR523     -0.0009
     24  CE1      145.3640  172.5770  138.7210 C.ar  523  TYR523      0.0417
     25  CE2      144.7830  171.3590  140.6630 C.ar  523  TYR523      0.0417
     26  CZ       145.5990  172.2370  140.0080 C.ar  523  TYR523      0.1957
     27  OH       146.6550  172.7880  140.6300 O.3   523  TYR523     -0.2866
     28  N        139.0830  174.4360  135.2040 N.3   526  ILE526     -0.1245
     29  CA       140.0880  175.3070  134.6160 C.3   526  ILE526      0.1561
     30  C        140.4680  174.8110  133.2320 C.2   526  ILE526      0.2260
     31  O        140.5860  175.5960  132.2870 O.2   526  ILE526     -0.2867
     32  CB       141.3140  175.4220  135.5310 C.3   526  ILE526      0.0252
     33  CG1      140.9680  176.1640  136.8080 C.3   526  ILE526      0.0019
     34  CG2      142.4120  176.1780  134.8630 C.3   526  ILE526      0.0019
     35  CD1      142.1130  176.1950  137.7800 C.3   526  ILE526      0.0001
     36  N        140.3400  177.0820  130.1360 N.3   530  VAL530     -0.1231
     37  CA       141.6170  177.4760  129.5590 C.3   530  VAL530      0.1692
     38  C        141.9100  176.6950  128.2920 C.2   530  VAL530      0.2592
     39  O        142.2270  177.2760  127.2520 O.2   530  VAL530     -0.2718
     40  CB       142.7320  177.2900  130.5870 C.3   530  VAL530      0.0266
     41  CG1      144.0290  177.5830  129.9760 C.3   530  VAL530      0.0020
     42  CG2      142.5040  178.1900  131.7300 C.3   530  VAL530      0.0020
     43  N        141.7960  175.3720  128.3490 N.am  531  PHE531     -0.1976
     44  CA       142.2250  174.4840  127.2770 C.3   531  PHE531      0.1639
     45  C        141.0690  173.8800  126.4890 C.2   531  PHE531      0.2290
     46  O        141.1610  172.7210  126.0960 O.2   531  PHE531     -0.2864
     47  CB       143.0110  173.3220  127.8470 C.3   531  PHE531      0.0560
     48  CG       144.3110  173.6580  128.4440 C.ar  531  PHE531     -0.0200
     49  CD1      145.4020  173.7690  127.6480 C.ar  531  PHE531     -0.0042
     50  CD2      144.4660  173.7060  129.8030 C.ar  531  PHE531     -0.0042
     51  CE1      146.6120  173.9890  128.1870 C.ar  531  PHE531     -0.0003
     52  CE2      145.6900  173.9270  130.3460 C.ar  531  PHE531     -0.0003
     53  CZ       146.7530  174.0710  129.5430 C.ar  531  PHE531     -0.0000
     54  N        148.3820  175.0770  122.7820 N.3   587  THR587     -0.1218
     55  CA       148.3060  176.5000  123.0650 C.3   587  THR587      0.1862
     56  C        149.5260  177.2110  122.5150 C.2   587  THR587      0.2287
     57  O        149.4820  178.4080  122.2330 O.2   587  THR587     -0.2866
     58  CB       148.2030  176.7710  124.5550 C.3   587  THR587      0.1770
     59  OG1      149.4120  176.3530  125.1820 O.3   587  THR587     -0.2211
     60  CG2      147.0420  176.0480  125.1760 C.3   587  THR587      0.0375
     61  N        152.3710  178.1860  123.6430 N.3   589  THR589     -0.1218
     62  CA       153.3220  178.8930  124.4690 C.3   589  THR589      0.1862
     63  C        153.4300  178.2370  125.8280 C.2   589  THR589      0.2287
     64  O        152.5440  177.5020  126.2610 O.2   589  THR589     -0.2866
     65  CB       152.9640  180.3640  124.6140 C.3   589  THR589      0.1770
     66  OG1      154.0400  181.0520  125.2690 O.3   589  THR589     -0.2211
     67  CG2      151.6710  180.5360  125.4060 C.3   589  THR589      0.0375
     68  N        153.1840  178.8190  128.9010 N.3   591  TRP591     -0.1227
     69  CA       152.4970  179.0430  130.1640 C.3   591  TRP591      0.1737
     70  C        151.5310  177.9200  130.4580 C.2   591  TRP591      0.2596
     71  O        150.9890  177.8300  131.5630 O.2   591  TRP591     -0.2718
     72  CB       151.7920  180.3940  130.1560 C.3   591  TRP591      0.0564
     73  CG       152.7760  181.4670  130.1430 C.ar  591  TRP591      0.0003
     74  CD1      153.1710  182.1860  129.0720 C.ar  591  TRP591      0.0946
     75  CD2      153.5660  181.9090  131.2450 C.ar  591  TRP591      0.0152
     76  NE1      154.1420  183.0720  129.4380 N.ar  591  TRP591     -0.2442
     77  CE2      154.4080  182.9130  130.7700 C.ar  591  TRP591      0.0810
     78  CE3      153.6380  181.5530  132.5880 C.ar  591  TRP591      0.0012
     79  CZ2      155.3030  183.5740  131.5850 C.ar  591  TRP591      0.0191
     80  CZ3      154.5220  182.2080  133.3930 C.ar  591  TRP591      0.0001
     81  CH2      155.3470  183.2030  132.8930 C.ar  591  TRP591      0.0015
     82  N        151.3220  177.0440  129.4850 N.am  592  SER592     -0.1952
     83  CA       150.4790  175.8820  129.7040 C.3   592  SER592      0.1924
     84  C        151.1920  174.8430  130.5500 C.2   592  SER592      0.2314
     85  O        150.5520  173.9740  131.1480 O.2   592  SER592     -0.2863
     86  CB       150.0870  175.2970  128.3590 C.3   592  SER592      0.2116
     87  OG       149.4660  176.3000  127.5910 O.3   592  SER592     -0.2180
     88  N        152.7360  175.4080  133.2510 N.3   594  THR594     -0.1203
     89  CA       152.4770  175.7070  134.6520 C.3   594  THR594      0.1994
     90  C        151.0830  175.2210  135.0770 C.2   594  THR594      0.2617
     91  O        150.7770  175.1470  136.2700 O.2   594  THR594     -0.2717
     92  CB       152.7580  177.2160  134.8480 C.3   594  THR594      0.1784
     93  OG1      154.1790  177.4570  134.6880 O.3   594  THR594     -0.2211
     94  CG2      152.3140  177.8360  136.1940 C.3   594  THR594      0.0376
     95  N        150.2630  174.7700  134.1330 N.am  595  TYR595     -0.1975
     96  CA       149.0910  174.0100  134.5440 C.3   595  TYR595      0.1639
     97  C        149.4790  172.7060  135.2020 C.2   595  TYR595      0.2290
     98  O        149.1050  172.4560  136.3480 O.2   595  TYR595     -0.2864
     99  CB       148.1780  173.7190  133.3690 C.3   595  TYR595      0.0560
    100  CG       146.9340  172.9780  133.7880 C.ar  595  TYR595     -0.0198
    101  CD1      145.9900  173.5990  134.5570 C.ar  595  TYR595     -0.0009
    102  CD2      146.6940  171.6840  133.4000 C.ar  595  TYR595     -0.0009
    103  CE1      144.8630  172.9730  134.9200 C.ar  595  TYR595      0.0417
    104  CE2      145.5480  171.0460  133.7820 C.ar  595  TYR595      0.0417
    105  CZ       144.6530  171.7110  134.5550 C.ar  595  TYR595      0.1957
    106  OH       143.4950  171.1630  134.9740 O.3   595  TYR595     -0.2866
    107  N        151.4530  172.6510  138.4350 N.3   598  SER598     -0.1217
    108  CA       150.5360  172.9770  139.5160 C.3   598  SER598      0.1889
    109  C        149.6800  171.7890  139.8690 C.2   598  SER598      0.2288
    110  O        149.2200  171.6620  141.0050 O.2   598  SER598     -0.2866
    111  CB       149.6310  174.1300  139.1180 C.3   598  SER598      0.2089
    112  OG       150.3770  175.2940  138.8370 O.3   598  SER598     -0.2183
    113  N        150.4580  170.1290  143.9100 N.3   602  ILE602     -0.1245
    114  CA       149.2960  170.1110  144.7800 C.3   602  ILE602      0.1561
    115  C        148.8330  168.6880  145.0330 C.2   602  ILE602      0.2260
    116  O        148.4850  168.3260  146.1590 O.2   602  ILE602     -0.2867
    117  CB       148.2020  170.9880  144.1650 C.3   602  ILE602      0.0252
    118  CG1      148.6620  172.4160  144.2300 C.3   602  ILE602      0.0019
    119  CG2      146.9330  170.8670  144.8940 C.3   602  ILE602      0.0019
    120  CD1      147.8240  173.3220  143.5290 C.3   602  ILE602      0.0001
@<TRIPOS>BOND
     1    57    56    2
     2    56    55    1
     3    54    55    1
     4    55    58    1
     5    61    62    1
     6    62    65    1
     7    62    63    1
     8    58    60    1
     9    58    59    1
    10    65    66    1
    11    65    67    1
    12    63    64    2
    13    46    45    2
    14    45    44    1
    15    39    38    2
    16    44    47    1
    17    44    43    1
    18    87    86    1
    19    49    51   ar
    20    49    48   ar
    21    47    48    1
    22    51    53   ar
    23    38    43   am
    24    38    37    1
    25    86    83    1
    26    48    50   ar
    27    68    69    1
    28    74    76   ar
    29    74    73   ar
    30    76    77   ar
    31    82    83    1
    32    82    70   am
    33    53    52   ar
    34    37    36    1
    35    37    40    1
    36    83    84    1
    37    50    52   ar
    38    41    40    1
    39    73    72    1
    40    73    75   ar
    41    72    69    1
    42    69    70    1
    43    70    71    2
    44    84    85    2
    45    40    42    1
    46    77    75   ar
    47    77    79   ar
    48    75    78   ar
    49    79    81   ar
    50    31    30    2
    51    78    80   ar
    52    81    80   ar
    53    30    29    1
    54    88    89    1
    55    99   100    1
    56    99    96    1
    57   102   104   ar
    58   102   100   ar
    59   104   105   ar
    60   100   101   ar
    61    95    96    1
    62    95    90   am
    63    96    97    1
    64   105   103   ar
    65   105   106    1
    66   101   103   ar
    67    29    28    1
    68    29    32    1
    69    89    92    1
    70    89    90    1
    71    93    92    1
    72    92    94    1
    73    34    32    1
    74    90    91    2
    75    97    98    2
    76    19    18    2
    77    32    33    1
    78    18    17    1
    79    33    35    1
    80    17    20    1
    81    17    16    1
    82    20    21    1
    83    11    10    2
    84    22    24   ar
    85    22    21   ar
    86   107   108    1
    87    24    26   ar
    88    21    23   ar
    89    16    10   am
    90   112   111    1
    91    10     9    1
    92   111   108    1
    93   108   109    1
    94   109   110    2
    95    26    27    1
    96    26    25   ar
    97    23    25   ar
    98     9     8    1
    99     9    12    1
   100    14    12    1
   101     4     3    2
   102    12    13    1
   103     3     2    1
   104    15    13    1
   105     6     5    1
   106     2     1    1
   107     2     5    1
   108   120   118    1
   109   113   114    1
   110     5     7    1
   111   117   118    1
   112   117   114    1
   113   117   119    1
   114   114   115    1
   115   115   116    2
