@<TRIPOS>MOLECULE
tmp/6e1oB06.pdb
 104 100 0 0 0
SMALL
GASTEIGER

@<TRIPOS>ATOM
      1  N        131.8940  151.2000  118.5740 N.3   507  TYR507     -0.1227
      2  CA       132.6060  150.9410  117.2930 C.3   507  TYR507      0.1736
      3  C        131.6560  150.6370  116.1270 C.2   507  TYR507      0.2595
      4  O        131.8560  151.2540  115.0660 O.2   507  TYR507     -0.2718
      5  CB       133.5860  149.7780  117.4460 C.3   507  TYR507      0.0548
      6  CG       134.1620  149.3030  116.1380 C.ar  507  TYR507     -0.0200
      7  CD1      135.2090  149.9770  115.5350 C.ar  507  TYR507     -0.0009
      8  CD2      133.6480  148.1940  115.4910 C.ar  507  TYR507     -0.0009
      9  CE1      135.7410  149.5540  114.3290 C.ar  507  TYR507      0.0417
     10  CE2      134.1680  147.7570  114.2850 C.ar  507  TYR507      0.0417
     11  CZ       135.2180  148.4390  113.7020 C.ar  507  TYR507      0.1957
     12  OH       135.7370  148.0170  112.5130 O.3   507  TYR507     -0.2866
     13  N        130.6470  149.7880  116.2850 N.am  508  MET508     -0.1979
     14  CA       129.7810  149.4930  115.1490 C.3   508  MET508      0.1605
     15  C        128.7230  150.5590  114.9040 C.2   508  MET508      0.2287
     16  O        127.9750  150.4400  113.9270 O.2   508  MET508     -0.2864
     17  CB       129.0970  148.1380  115.3190 C.3   508  MET508      0.0413
     18  CG       128.1210  148.0570  116.4610 C.3   508  MET508      0.0598
     19  SD       127.3230  146.4440  116.4850 S.3   508  MET508     -0.1393
     20  CE       128.7030  145.4110  116.9420 C.3   508  MET508      0.0692
     21  N        129.6730  153.8840  114.5840 N.3   510  SER510     -0.1217
     22  CA       130.4490  155.0440  114.1500 C.3   510  SER510      0.1889
     23  C        129.8190  155.6110  112.8770 C.2   510  SER510      0.2288
     24  O        130.3170  155.4400  111.7620 O.2   510  SER510     -0.2866
     25  CB       131.9050  154.6570  113.9360 C.3   510  SER510      0.2089
     26  OG       132.6700  155.7580  113.4700 O.3   510  SER510     -0.2183
     27  N        127.2550  154.6790  111.2720 N.3   512  GLY512     -0.1225
     28  CA       126.5810  153.7670  110.3680 C.3   512  GLY512      0.1811
     29  C        126.3830  152.3710  110.9200 C.2   512  GLY512      0.2280
     30  O        127.3410  151.7250  111.3510 O.2   512  GLY512     -0.2866
     31  N        131.3820  146.5120  108.6180 N.3   518  THR518     -0.1203
     32  CA       132.4400  146.9750  109.4990 C.3   518  THR518      0.1994
     33  C        133.5730  145.9640  109.5600 C.2   518  THR518      0.2617
     34  O        133.3440  144.7520  109.6050 O.2   518  THR518     -0.2717
     35  CB       131.9000  147.2130  110.9050 C.3   518  THR518      0.1784
     36  OG1      131.4320  145.9730  111.4510 O.3   518  THR518     -0.2211
     37  CG2      130.7540  148.2050  110.8620 C.3   518  THR518      0.0376
     38  N        134.8020  146.4790  109.5520 N.am  519  ILE519     -0.1979
     39  CA       135.9800  145.6490  109.7540 C.3   519  ILE519      0.1595
     40  C        135.9580  145.1120  111.1760 C.2   519  ILE519      0.2287
     41  O        135.5820  145.8200  112.1170 O.2   519  ILE519     -0.2864
     42  CB       137.2530  146.4700  109.4780 C.3   519  ILE519      0.0276
     43  CG1      137.2290  147.0360  108.0600 C.3   519  ILE519      0.0022
     44  CG2      138.5010  145.6290  109.6330 C.3   519  ILE519      0.0022
     45  CD1      138.3120  148.0580  107.8010 C.3   519  ILE519      0.0001
     46  N        141.2440  144.3240  112.6660 N.3   522  TRP522     -0.1227
     47  CA       141.9950  145.2510  113.4900 C.3   522  TRP522      0.1737
     48  C        141.0980  146.2020  114.2460 C.2   522  TRP522      0.2595
     49  O        141.5950  147.1430  114.8680 O.2   522  TRP522     -0.2718
     50  CB       142.9780  146.0450  112.6290 C.3   522  TRP522      0.0564
     51  CG       143.7680  147.0650  113.3880 C.ar  522  TRP522      0.0003
     52  CD1      143.5790  148.4140  113.3700 C.ar  522  TRP522      0.0946
     53  CD2      144.9050  146.8330  114.2340 C.ar  522  TRP522      0.0152
     54  NE1      144.5070  149.0370  114.1690 N.ar  522  TRP522     -0.2442
     55  CE2      145.3340  148.0880  114.7090 C.ar  522  TRP522      0.0810
     56  CE3      145.5950  145.6860  114.6440 C.ar  522  TRP522      0.0012
     57  CZ2      146.4220  148.2300  115.5740 C.ar  522  TRP522      0.0191
     58  CZ3      146.6760  145.8290  115.5210 C.ar  522  TRP522      0.0001
     59  CH2      147.0830  147.0970  115.9570 C.ar  522  TRP522      0.0015
     60  N        139.7900  145.9960  114.1980 N.am  523  ALA523     -0.1980
     61  CA       138.8810  147.0000  114.7220 C.3   523  ALA523      0.1597
     62  C        138.0470  146.5070  115.8920 C.2   523  ALA523      0.2287
     63  O        138.1410  147.0730  116.9830 O.2   523  ALA523     -0.2864
     64  CB       137.9870  147.4800  113.5840 C.3   523  ALA523      0.0319
     65  N        139.8890  144.2410  118.5690 N.3   526  LEU526     -0.1231
     66  CA       140.9890  144.9890  119.1560 C.3   526  LEU526      0.1693
     67  C        140.4850  146.0200  120.1550 C.2   526  LEU526      0.2592
     68  O        141.0870  146.1990  121.2170 O.2   526  LEU526     -0.2718
     69  CB       141.8130  145.6580  118.0620 C.3   526  LEU526      0.0284
     70  CG       143.0930  146.3200  118.5590 C.3   526  LEU526      0.0019
     71  CD1      144.0010  145.2710  119.1520 C.3   526  LEU526      0.0001
     72  CD2      143.7910  147.0380  117.4320 C.3   526  LEU526      0.0001
     73  N        139.3730  146.6880  119.8550 N.am  527  THR527     -0.1953
     74  CA       138.8490  147.6730  120.7890 C.3   527  THR527      0.1897
     75  C        138.1190  147.0420  121.9630 C.2   527  THR527      0.2313
     76  O        137.7950  147.7510  122.9180 O.2   527  THR527     -0.2863
     77  CB       137.9130  148.6500  120.0860 C.3   527  THR527      0.1794
     78  OG1      137.6270  149.7360  120.9700 O.3   527  THR527     -0.2208
     79  CG2      136.6140  147.9810  119.7320 C.3   527  THR527      0.0378
     80  N        141.5630  146.0390  124.1460 N.3   530  PHE530     -0.1227
     81  CA       142.1760  147.2700  124.7170 C.3   530  PHE530      0.1736
     82  C        141.2590  147.9990  125.7090 C.2   530  PHE530      0.2596
     83  O        141.7480  148.3650  126.7910 O.2   530  PHE530     -0.2718
     84  CB       142.6420  148.2050  123.5990 C.3   530  PHE530      0.0547
     85  CG       144.0550  147.9570  123.1370 C.ar  530  PHE530     -0.0202
     86  CD1      145.1330  148.3680  123.9040 C.ar  530  PHE530     -0.0042
     87  CD2      144.3100  147.3090  121.9400 C.ar  530  PHE530     -0.0042
     88  CE1      146.4320  148.1390  123.4820 C.ar  530  PHE530     -0.0003
     89  CE2      145.6100  147.0810  121.5180 C.ar  530  PHE530     -0.0003
     90  CZ       146.6690  147.4960  122.2910 C.ar  530  PHE530     -0.0000
     91  N        139.9840  148.1780  125.3930 N.am  531  SER531     -0.1952
     92  CA       139.0720  148.9390  126.2900 C.3   531  SER531      0.1924
     93  C        138.8900  148.2250  127.6320 C.2   531  SER531      0.2314
     94  O        138.9440  148.9000  128.6730 O.2   531  SER531     -0.2863
     95  CB       137.7450  149.1650  125.6230 C.3   531  SER531      0.2116
     96  OG       136.9840  147.9680  125.6080 O.3   531  SER531     -0.2180
     97  N        141.9560  148.2440  129.7330 N.3   534  LEU534     -0.1245
     98  CA       142.0740  149.5460  130.3650 C.3   534  LEU534      0.1561
     99  C        141.0580  149.7130  131.4810 C.2   534  LEU534      0.2260
    100  O        141.2670  150.5380  132.3730 O.2   534  LEU534     -0.2867
    101  CB       141.9330  150.6480  129.3150 C.3   534  LEU534      0.0270
    102  CG       142.2780  152.0900  129.6790 C.3   534  LEU534      0.0019
    103  CD1      142.9580  152.7440  128.5060 C.3   534  LEU534      0.0001
    104  CD2      141.0280  152.8710  130.0180 C.3   534  LEU534      0.0001
@<TRIPOS>BOND
     1    45    43    1
     2    43    42    1
     3    31    32    1
     4    42    44    1
     5    42    39    1
     6    32    33    1
     7    32    35    1
     8    38    33   am
     9    38    39    1
    10    33    34    2
    11    39    40    1
    12    28    29    1
    13    28    27    1
    14    37    35    1
    15    35    36    1
    16    29    30    2
    17    40    41    2
    18    24    23    2
    19    12    11    1
    20    50    51    1
    21    50    47    1
    22    46    47    1
    23    23    22    1
    24    52    51   ar
    25    52    54   ar
    26    51    53   ar
    27    26    25    1
    28    47    48    1
    29    64    61    1
    30    11    10   ar
    31    11     9   ar
    32    16    15    2
    33    25    22    1
    34    22    21    1
    35    54    55   ar
    36    60    48   am
    37    60    61    1
    38    53    56   ar
    39    53    55   ar
    40    48    49    2
    41    10     8   ar
    42     9     7   ar
    43    56    58   ar
    44    55    57   ar
    45    61    62    1
    46    15    14    1
    47     4     3    2
    48    14    17    1
    49    14    13    1
    50    17    18    1
    51     8     6   ar
    52    58    59   ar
    53     7     6   ar
    54    57    59   ar
    55    62    63    2
    56     3    13   am
    57     3     2    1
    58     6     5    1
    59    18    19    1
    60    19    20    1
    61     2     5    1
    62     2     1    1
    63    72    70    1
    64    69    70    1
    65    69    66    1
    66    70    71    1
    67    65    66    1
    68    66    67    1
    69    79    77    1
    70    73    67   am
    71    73    74    1
    72    77    74    1
    73    77    78    1
    74    67    68    2
    75    74    75    1
    76    89    87   ar
    77    89    90   ar
    78    87    85   ar
    79    75    76    2
    80    90    88   ar
    81    85    84    1
    82    85    86   ar
    83    88    86   ar
    84    84    81    1
    85    80    81    1
    86    81    82    1
    87    91    82   am
    88    91    92    1
    89    96    95    1
    90    95    92    1
    91    82    83    2
    92    92    93    1
    93    93    94    2
    94   103   102    1
    95   101   102    1
    96   101    98    1
    97   102   104    1
    98    97    98    1
    99    98    99    1
   100    99   100    2
