@<TRIPOS>MOLECULE
tmp/6e1oB05.pdb
 81 77 0 0 0
SMALL
GASTEIGER

@<TRIPOS>ATOM
      1  N        123.2470  125.9120  135.0170 N.3   254  ALA254     -0.1245
      2  CA       123.3530  127.1970  134.3380 C.3   254  ALA254      0.1562
      3  C        123.3570  127.0310  132.8280 C.2   254  ALA254      0.2260
      4  O        122.9110  127.9270  132.1050 O.2   254  ALA254     -0.2867
      5  CB       124.6090  127.9320  134.7930 C.3   254  ALA254      0.0290
      6  N        120.3000  128.6780  130.3260 N.3   258  ALA258     -0.1245
      7  CA       120.6360  129.4700  129.1570 C.3   258  ALA258      0.1562
      8  C        120.1550  128.8320  127.8690 C.2   258  ALA258      0.2260
      9  O        120.0990  129.5140  126.8430 O.2   258  ALA258     -0.2867
     10  CB       122.1440  129.6900  129.0820 C.3   258  ALA258      0.0290
     11  N        122.3030  133.2430  144.0580 N.3   328  GLN328     -0.1245
     12  CA       123.2870  133.1470  142.9900 C.3   328  GLN328      0.1566
     13  C        122.8620  132.1910  141.8880 C.2   328  GLN328      0.2260
     14  O        123.4020  132.2650  140.7830 O.2   328  GLN328     -0.2867
     15  CB       124.6290  132.7050  143.5540 C.3   328  GLN328      0.0367
     16  CG       125.2790  133.7120  144.4560 C.3   328  GLN328      0.0905
     17  CD       126.5820  133.2060  145.0070 C.2   328  GLN328      0.2608
     18  OE1      126.9600  132.0620  144.7710 O.2   328  GLN328     -0.2717
     19  NE2      127.2820  134.0510  145.7440 N.am  328  GLN328     -0.0878
     20  N        120.3090  134.5530  139.6320 N.3   331  PHE331     -0.1227
     21  CA       120.8360  135.6510  138.8300 C.3   331  PHE331      0.1736
     22  C        121.1780  135.2250  137.4080 C.2   331  PHE331      0.2595
     23  O        121.1220  136.0560  136.5000 O.2   331  PHE331     -0.2718
     24  CB       122.0620  136.2720  139.4970 C.3   331  PHE331      0.0547
     25  CG       122.5830  137.4760  138.7740 C.ar  331  PHE331     -0.0202
     26  CD1      121.9020  138.6800  138.8350 C.ar  331  PHE331     -0.0042
     27  CD2      123.7320  137.4020  138.0090 C.ar  331  PHE331     -0.0042
     28  CE1      122.3640  139.7900  138.1560 C.ar  331  PHE331     -0.0003
     29  CE2      124.1960  138.5070  137.3260 C.ar  331  PHE331     -0.0003
     30  CZ       123.5100  139.7030  137.4030 C.ar  331  PHE331     -0.0000
     31  N        121.4780  133.9460  137.1810 N.am  332  VAL332     -0.1980
     32  CA       121.6700  133.4800  135.8160 C.3   332  VAL332      0.1595
     33  C        120.3410  133.4410  135.0630 C.2   332  VAL332      0.2287
     34  O        120.3200  133.5530  133.8330 O.2   332  VAL332     -0.2864
     35  CB       122.3960  132.1180  135.8360 C.3   332  VAL332      0.0276
     36  CG1      121.5350  131.0460  136.4530 C.3   332  VAL332      0.0022
     37  CG2      122.8650  131.7110  134.4560 C.3   332  VAL332      0.0022
     38  N        119.8500  137.4730  134.6280 N.3   335  PHE335     -0.1227
     39  CA       120.7060  138.0280  133.5910 C.3   335  PHE335      0.1736
     40  C        120.1530  137.7200  132.2160 C.2   335  PHE335      0.2595
     41  O        120.3200  138.5130  131.2880 O.2   335  PHE335     -0.2718
     42  CB       122.1170  137.4600  133.7020 C.3   335  PHE335      0.0547
     43  CG       123.1100  138.1120  132.7860 C.ar  335  PHE335     -0.0202
     44  CD1      123.7370  139.2870  133.1600 C.ar  335  PHE335     -0.0042
     45  CD2      123.4160  137.5610  131.5520 C.ar  335  PHE335     -0.0042
     46  CE1      124.6500  139.8960  132.3300 C.ar  335  PHE335     -0.0003
     47  CE2      124.3220  138.1750  130.7110 C.ar  335  PHE335     -0.0003
     48  CZ       124.9400  139.3430  131.1040 C.ar  335  PHE335     -0.0000
     49  N        119.4970  136.5730  132.0670 N.am  336  ILE336     -0.1980
     50  CA       119.2020  136.0370  130.7500 C.3   336  ILE336      0.1595
     51  C        117.7800  136.3470  130.3060 C.2   336  ILE336      0.2287
     52  O        117.4760  136.2160  129.1130 O.2   336  ILE336     -0.2864
     53  CB       119.4780  134.5160  130.7250 C.3   336  ILE336      0.0276
     54  CG1      119.8780  134.0420  129.3340 C.3   336  ILE336      0.0022
     55  CG2      118.2840  133.7340  131.2050 C.3   336  ILE336      0.0022
     56  CD1      121.2460  134.5080  128.9290 C.3   336  ILE336      0.0001
     57  N        129.0210  141.3340  144.9030 N.3   489  ASP489     -0.1225
     58  CA       129.8860  140.5710  144.0180 C.3   489  ASP489      0.1805
     59  C        129.3350  140.5490  142.6050 C.2   489  ASP489      0.2598
     60  O        130.1000  140.4400  141.6430 O.2   489  ASP489     -0.2718
     61  CB       130.0460  139.1440  144.5340 C.3   489  ASP489      0.1424
     62  CG       130.7850  139.0820  145.8510 C.2   489  ASP489      0.3668
     63  OD1      131.6130  139.9800  146.1080 O.co2 489  ASP489     -0.2456
     64  OD2      130.5370  138.1400  146.6330 O.co2 489  ASP489     -0.2456
     65  N        128.0180  140.6480  142.4610 N.am  490  SER490     -0.1952
     66  CA       127.4200  140.5860  141.1380 C.3   490  SER490      0.1924
     67  C        127.1760  141.9640  140.5580 C.2   490  SER490      0.2314
     68  O        126.8200  142.0810  139.3840 O.2   490  SER490     -0.2863
     69  CB       126.1100  139.8130  141.1850 C.3   490  SER490      0.2116
     70  OG       125.5010  139.8200  139.9140 O.3   490  SER490     -0.2180
     71  N        130.5500  142.2940  138.5690 N.3   493  PHE493     -0.1241
     72  CA       130.5010  141.5360  137.3230 C.3   493  PHE493      0.1605
     73  C        129.6550  142.2450  136.2860 C.2   493  PHE493      0.2264
     74  O        129.9450  142.1890  135.0880 O.2   493  PHE493     -0.2867
     75  CB       129.9380  140.1400  137.5640 C.3   493  PHE493      0.0534
     76  CG       129.6710  139.3780  136.3010 C.ar  493  PHE493     -0.0203
     77  CD1      130.7110  138.8530  135.5670 C.ar  493  PHE493     -0.0042
     78  CD2      128.3780  139.1920  135.8460 C.ar  493  PHE493     -0.0042
     79  CE1      130.4660  138.1560  134.4060 C.ar  493  PHE493     -0.0003
     80  CE2      128.1320  138.5040  134.6870 C.ar  493  PHE493     -0.0003
     81  CZ       129.1750  137.9830  133.9690 C.ar  493  PHE493     -0.0000
@<TRIPOS>BOND
     1     9     8    2
     2     8     7    1
     3    56    54    1
     4    10     7    1
     5    52    51    2
     6     7     6    1
     7    54    53    1
     8    51    50    1
     9    47    48   ar
    10    47    45   ar
    11    53    50    1
    12    53    55    1
    13    50    49    1
    14    48    46   ar
    15    41    40    2
    16    45    43   ar
    17    49    40   am
    18     4     3    2
    19    40    39    1
    20    46    44   ar
    21    43    44   ar
    22    43    42    1
    23     3     2    1
    24    39    42    1
    25    39    38    1
    26    34    33    2
    27    81    79   ar
    28    81    80   ar
    29     2     5    1
    30     2     1    1
    31    79    77   ar
    32    37    35    1
    33    80    78   ar
    34    33    32    1
    35    74    73    2
    36    77    76   ar
    37    32    35    1
    38    32    31    1
    39    35    36    1
    40    78    76   ar
    41    73    72    1
    42    76    75    1
    43    23    22    2
    44    31    22   am
    45    72    75    1
    46    72    71    1
    47    29    30   ar
    48    29    27   ar
    49    30    28   ar
    50    22    21    1
    51    27    25   ar
    52    28    26   ar
    53    25    26   ar
    54    25    24    1
    55    21    24    1
    56    21    20    1
    57    68    67    2
    58    70    69    1
    59    67    66    1
    60    14    13    2
    61    66    69    1
    62    66    65    1
    63    60    59    2
    64    13    12    1
    65    65    59   am
    66    59    58    1
    67    12    15    1
    68    12    11    1
    69    15    16    1
    70    58    61    1
    71    58    57    1
    72    16    17    1
    73    61    62    1
    74    18    17    2
    75    17    19   am
    76    62    63   ar
    77    62    64   ar
