@<TRIPOS>MOLECULE
tmp/6e1oB02.pdb
 113 104 0 0 0
SMALL
GASTEIGER

@<TRIPOS>ATOM
      1  N        132.0990  159.1900  122.0890 N.3   187  ILE187     -0.1245
      2  CA       133.2250  158.4890  122.6760 C.3   187  ILE187      0.1561
      3  C        133.5970  159.0700  124.0340 C.2   187  ILE187      0.2260
      4  O        134.2410  158.3950  124.8410 O.2   187  ILE187     -0.2867
      5  CB       134.3850  158.5120  121.6590 C.3   187  ILE187      0.0252
      6  CG1      135.4670  157.5110  122.0340 C.3   187  ILE187      0.0019
      7  CG2      134.9510  159.9110  121.5080 C.3   187  ILE187      0.0019
      8  CD1      134.9620  156.1220  122.0370 C.3   187  ILE187      0.0001
      9  N        130.8410  157.3800  126.8790 N.3   190  THR190     -0.1203
     10  CA       131.0430  155.9860  127.2380 C.3   190  THR190      0.1994
     11  C        132.3180  155.7500  128.0360 C.2   190  THR190      0.2617
     12  O        132.4740  154.6630  128.5980 O.2   190  THR190     -0.2717
     13  CB       131.0550  155.1190  125.9890 C.3   190  THR190      0.1784
     14  OG1      131.1970  153.7490  126.3710 O.3   190  THR190     -0.2211
     15  CG2      132.1970  155.5080  125.0920 C.3   190  THR190      0.0376
     16  N        133.2210  156.7280  128.1070 N.am  191  VAL191     -0.1979
     17  CA       134.4060  156.5960  128.9440 C.3   191  VAL191      0.1595
     18  C        134.1220  157.0860  130.3550 C.2   191  VAL191      0.2287
     19  O        134.5110  156.4420  131.3350 O.2   191  VAL191     -0.2864
     20  CB       135.5830  157.3470  128.3010 C.3   191  VAL191      0.0276
     21  CG1      136.7660  157.3910  129.2270 C.3   191  VAL191      0.0022
     22  CG2      135.9860  156.6610  127.0300 C.3   191  VAL191      0.0022
     23  N        131.9230  154.4180  132.2600 N.3   194  CYS194     -0.1221
     24  CA       132.6450  153.2820  132.8170 C.3   194  CYS194      0.1808
     25  C        133.5840  153.7120  133.9290 C.2   194  CYS194      0.2601
     26  O        133.8810  152.9210  134.8260 O.2   194  CYS194     -0.2717
     27  CB       133.4200  152.5620  131.7230 C.3   194  CYS194      0.0970
     28  SG       132.3800  151.8050  130.4730 S.3   194  CYS194     -0.0800
     29  N        134.0510  154.9540  133.8970 N.am  195  LEU195     -0.1979
     30  CA       134.8110  155.4670  135.0240 C.3   195  LEU195      0.1596
     31  C        133.9020  155.7710  136.1990 C.2   195  LEU195      0.2287
     32  O        134.3430  155.7060  137.3480 O.2   195  LEU195     -0.2864
     33  CB       135.5900  156.7110  134.6010 C.3   195  LEU195      0.0297
     34  CG       136.6770  157.3070  135.4970 C.3   195  LEU195      0.0022
     35  CD1      137.7600  157.8800  134.6150 C.3   195  LEU195      0.0001
     36  CD2      136.1490  158.4050  136.4040 C.3   195  LEU195      0.0001
     37  N        131.7520  147.1780  130.3030 N.3   499  SER499     -0.1217
     38  CA       132.8930  147.7640  129.6190 C.3   499  SER499      0.1889
     39  C        133.1520  147.0900  128.2820 C.2   499  SER499      0.2288
     40  O        133.7070  147.7150  127.3740 O.2   499  SER499     -0.2866
     41  CB       134.1290  147.6800  130.5060 C.3   499  SER499      0.2089
     42  OG       134.4460  146.3320  130.7880 O.3   499  SER499     -0.2183
     43  N        131.8970  149.5030  124.6880 N.3   503  SER503     -0.1217
     44  CA       132.9660  149.8430  123.7640 C.3   503  SER503      0.1889
     45  C        132.8920  149.0560  122.4680 C.2   503  SER503      0.2288
     46  O        133.4480  149.4970  121.4620 O.2   503  SER503     -0.2866
     47  CB       134.3140  149.6220  124.4320 C.3   503  SER503      0.2089
     48  OG       134.4870  148.2610  124.7690 O.3   503  SER503     -0.2183
     49  N        130.0100  151.1620  120.6590 N.3   506  VAL506     -0.1231
     50  CA       130.4480  152.4740  120.1010 C.3   506  VAL506      0.1692
     51  C        131.0870  152.2450  118.7260 C.2   506  VAL506      0.2592
     52  O        130.8040  153.0370  117.8100 O.2   506  VAL506     -0.2718
     53  CB       131.4240  153.1880  121.0510 C.3   506  VAL506      0.0266
     54  CG1      132.1110  154.3550  120.3640 C.3   506  VAL506      0.0020
     55  CG2      130.7290  153.6470  122.3220 C.3   506  VAL506      0.0020
     56  N        131.8940  151.2000  118.5740 N.am  507  TYR507     -0.1976
     57  CA       132.6060  150.9410  117.2930 C.3   507  TYR507      0.1639
     58  C        131.6560  150.6370  116.1270 C.2   507  TYR507      0.2290
     59  O        131.8560  151.2540  115.0660 O.2   507  TYR507     -0.2864
     60  CB       133.5860  149.7780  117.4460 C.3   507  TYR507      0.0560
     61  CG       134.1620  149.3030  116.1380 C.ar  507  TYR507     -0.0198
     62  CD1      135.2090  149.9770  115.5350 C.ar  507  TYR507     -0.0009
     63  CD2      133.6480  148.1940  115.4910 C.ar  507  TYR507     -0.0009
     64  CE1      135.7410  149.5540  114.3290 C.ar  507  TYR507      0.0417
     65  CE2      134.1680  147.7570  114.2850 C.ar  507  TYR507      0.0417
     66  CZ       135.2180  148.4390  113.7020 C.ar  507  TYR507      0.1957
     67  OH       135.7370  148.0170  112.5130 O.3   507  TYR507     -0.2866
     68  N        129.6730  153.8840  114.5840 N.3   510  SER510     -0.1217
     69  CA       130.4490  155.0440  114.1500 C.3   510  SER510      0.1889
     70  C        129.8190  155.6110  112.8770 C.2   510  SER510      0.2288
     71  O        130.3170  155.4400  111.7620 O.2   510  SER510     -0.2866
     72  CB       131.9050  154.6570  113.9360 C.3   510  SER510      0.2089
     73  OG       132.6700  155.7580  113.4700 O.3   510  SER510     -0.2183
     74  N        139.3730  146.6880  119.8550 N.3   527  THR527     -0.1218
     75  CA       138.8490  147.6730  120.7890 C.3   527  THR527      0.1862
     76  C        138.1190  147.0420  121.9630 C.2   527  THR527      0.2287
     77  O        137.7950  147.7510  122.9180 O.2   527  THR527     -0.2866
     78  CB       137.9130  148.6500  120.0860 C.3   527  THR527      0.1770
     79  OG1      137.6270  149.7360  120.9700 O.3   527  THR527     -0.2211
     80  CG2      136.6140  147.9810  119.7320 C.3   527  THR527      0.0375
     81  N        139.9840  148.1780  125.3930 N.3   531  SER531     -0.1217
     82  CA       139.0720  148.9390  126.2900 C.3   531  SER531      0.1889
     83  C        138.8900  148.2250  127.6320 C.2   531  SER531      0.2288
     84  O        138.9440  148.9000  128.6730 O.2   531  SER531     -0.2866
     85  CB       137.7450  149.1650  125.6230 C.3   531  SER531      0.2089
     86  OG       136.9840  147.9680  125.6080 O.3   531  SER531     -0.2183
     87  N        141.9560  148.2440  129.7330 N.3   534  LEU534     -0.1231
     88  CA       142.0740  149.5460  130.3650 C.3   534  LEU534      0.1693
     89  C        141.0580  149.7130  131.4810 C.2   534  LEU534      0.2592
     90  O        141.2670  150.5380  132.3730 O.2   534  LEU534     -0.2718
     91  CB       141.9330  150.6480  129.3150 C.3   534  LEU534      0.0284
     92  CG       142.2780  152.0900  129.6790 C.3   534  LEU534      0.0019
     93  CD1      142.9580  152.7440  128.5060 C.3   534  LEU534      0.0001
     94  CD2      141.0280  152.8710  130.0180 C.3   534  LEU534      0.0001
     95  N        139.9740  148.9400  131.4540 N.am  535  TYR535     -0.1976
     96  CA       139.0450  148.9310  132.5740 C.3   535  TYR535      0.1639
     97  C        139.6910  148.3340  133.8090 C.2   535  TYR535      0.2290
     98  O        139.4410  148.7920  134.9270 O.2   535  TYR535     -0.2864
     99  CB       137.7950  148.1420  132.2080 C.3   535  TYR535      0.0560
    100  CG       136.7770  147.9950  133.3100 C.ar  535  TYR535     -0.0198
    101  CD1      135.9020  149.0190  133.6050 C.ar  535  TYR535     -0.0009
    102  CD2      136.6800  146.8180  134.0420 C.ar  535  TYR535     -0.0009
    103  CE1      134.9580  148.8790  134.5890 C.ar  535  TYR535      0.0417
    104  CE2      135.7460  146.6750  135.0450 C.ar  535  TYR535      0.0417
    105  CZ       134.8880  147.7130  135.3140 C.ar  535  TYR535      0.1957
    106  OH       133.9430  147.5890  136.3070 O.3   535  TYR535     -0.2866
    107  N        142.3000  150.5170  135.7310 N.3   538  VAL538     -0.1245
    108  CA       141.7120  151.6600  136.4160 C.3   538  VAL538      0.1561
    109  C        141.1030  151.2290  137.7410 C.2   538  VAL538      0.2260
    110  O        141.3490  151.8540  138.7790 O.2   538  VAL538     -0.2867
    111  CB       140.6830  152.3650  135.5180 C.3   538  VAL538      0.0252
    112  CG1      139.9010  153.3780  136.3040 C.3   538  VAL538      0.0019
    113  CG2      141.3940  153.0780  134.4070 C.3   538  VAL538      0.0019
@<TRIPOS>BOND
     1    71    70    2
     2    67    66    1
     3    70    69    1
     4    73    72    1
     5    66    65   ar
     6    66    64   ar
     7    72    69    1
     8    69    68    1
     9    65    63   ar
    10    64    62   ar
    11    59    58    2
    12    63    61   ar
    13    62    61   ar
    14    58    57    1
    15    61    60    1
    16    57    60    1
    17    57    56    1
    18    52    51    2
    19    56    51   am
    20    51    50    1
    21    80    78    1
    22    74    75    1
    23    78    75    1
    24    78    79    1
    25    50    49    1
    26    50    53    1
    27    54    53    1
    28    75    76    1
    29    53    55    1
    30    46    45    2
    31     7     5    1
    32     5     6    1
    33     5     2    1
    34    76    77    2
    35     6     8    1
    36     1     2    1
    37    45    44    1
    38     2     3    1
    39    44    47    1
    40    44    43    1
    41     3     4    2
    42    47    48    1
    43    15    13    1
    44    81    82    1
    45    86    85    1
    46    85    82    1
    47    13    14    1
    48    13    10    1
    49    82    83    1
    50     9    10    1
    51    22    20    1
    52    10    11    1
    53    40    39    2
    54    83    84    2
    55    11    16   am
    56    11    12    2
    57    16    17    1
    58    39    38    1
    59    20    17    1
    60    20    21    1
    61    93    92    1
    62    17    18    1
    63    91    92    1
    64    91    88    1
    65    38    37    1
    66    38    41    1
    67    92    94    1
    68    87    88    1
    69    18    19    2
    70    88    89    1
    71    28    27    1
    72    41    42    1
    73    95    89   am
    74    95    96    1
    75    89    90    2
    76    27    24    1
    77    99    96    1
    78    99   100    1
    79    23    24    1
    80    96    97    1
    81    24    25    1
    82   100   101   ar
    83   100   102   ar
    84   101   103   ar
    85    97    98    2
    86    29    25   am
    87    29    30    1
    88    25    26    2
    89   102   104   ar
    90   113   111    1
    91   103   105   ar
    92    33    30    1
    93    33    34    1
    94    35    34    1
    95    30    31    1
    96   104   105   ar
    97   105   106    1
    98    34    36    1
    99   111   112    1
   100   111   108    1
   101   107   108    1
   102    31    32    2
   103   108   109    1
   104   109   110    2
