@<TRIPOS>MOLECULE
tmp/6e1pB05.pdb
 93 88 0 0 0
SMALL
GASTEIGER

@<TRIPOS>ATOM
      1  N        180.8720  149.4540  125.8490 N.3    87  GLU87      -0.1231
      2  CA       182.0070  150.3450  125.6370 C.3    87  GLU87       0.1699
      3  C        183.3060  149.6900  126.0730 C.2    87  GLU87       0.2592
      4  O        184.3610  149.9280  125.4730 O.2    87  GLU87      -0.2718
      5  CB       181.7740  151.6380  126.4150 C.3    87  GLU87       0.0402
      6  CG       182.9060  152.6630  126.4820 C.3    87  GLU87       0.1161
      7  CD       183.1060  153.4400  125.1950 C.2    87  GLU87       0.3649
      8  OE1      182.1220  153.5810  124.4330 O.co2  87  GLU87      -0.2457
      9  OE2      184.2390  153.9260  124.9640 O.co2  87  GLU87      -0.2457
     10  N        183.2360  148.8420  127.0930 N.am   88  LEU88      -0.1980
     11  CA       184.4250  148.4140  127.8110 C.3    88  LEU88       0.1596
     12  C        185.2880  147.4740  126.9740 C.2    88  LEU88       0.2287
     13  O        184.7820  146.7870  126.0780 O.2    88  LEU88      -0.2864
     14  CB       184.0350  147.7160  129.1090 C.3    88  LEU88       0.0297
     15  CG       183.4750  148.6450  130.1650 C.3    88  LEU88       0.0022
     16  CD1      183.0570  147.8660  131.3790 C.3    88  LEU88       0.0001
     17  CD2      184.5290  149.6600  130.5230 C.3    88  LEU88       0.0001
     18  N        171.2800  150.1920  150.0660 N.3   519  LEU519     -0.1245
     19  CA       171.3650  150.3340  148.6200 C.3   519  LEU519      0.1561
     20  C        172.4800  149.4770  148.0600 C.2   519  LEU519      0.2260
     21  O        172.4810  149.1500  146.8690 O.2   519  LEU519     -0.2867
     22  CB       171.5900  151.7880  148.2340 C.3   519  LEU519      0.0270
     23  CG       170.4370  152.7670  148.3680 C.3   519  LEU519      0.0019
     24  CD1      170.9740  154.1610  148.2170 C.3   519  LEU519      0.0001
     25  CD2      169.4240  152.4850  147.2890 C.3   519  LEU519      0.0001
     26  N        171.0180  146.0890  147.0640 N.3   522  ILE522     -0.1231
     27  CA       170.2370  146.1520  145.8410 C.3   522  ILE522      0.1692
     28  C        171.1560  146.2550  144.6380 C.2   522  ILE522      0.2592
     29  O        170.8650  145.7150  143.5640 O.2   522  ILE522     -0.2718
     30  CB       169.2570  147.3260  145.9290 C.3   522  ILE522      0.0266
     31  CG1      168.3610  147.1240  147.1410 C.3   522  ILE522      0.0019
     32  CG2      168.4170  147.4370  144.6900 C.3   522  ILE522      0.0020
     33  CD1      167.4850  148.3040  147.4510 C.3   522  ILE522      0.0001
     34  N        172.3050  146.8960  144.8130 N.am  523  PHE523     -0.1976
     35  CA       173.3130  146.8690  143.7670 C.3   523  PHE523      0.1639
     36  C        173.8680  145.4660  143.5690 C.2   523  PHE523      0.2290
     37  O        174.2300  145.0910  142.4510 O.2   523  PHE523     -0.2864
     38  CB       174.4140  147.8660  144.0940 C.3   523  PHE523      0.0560
     39  CG       175.5760  147.7900  143.1780 C.ar  523  PHE523     -0.0200
     40  CD1      175.4120  147.9520  141.8200 C.ar  523  PHE523     -0.0042
     41  CD2      176.8500  147.6480  143.6820 C.ar  523  PHE523     -0.0042
     42  CE1      176.4880  147.8890  140.9670 C.ar  523  PHE523     -0.0003
     43  CE2      177.9350  147.6090  142.8360 C.ar  523  PHE523     -0.0003
     44  CZ       177.7520  147.7280  141.4750 C.ar  523  PHE523     -0.0000
     45  N        171.1860  143.4940  141.5220 N.3   526  LEU526     -0.1245
     46  CA       171.2900  143.7140  140.0840 C.3   526  LEU526      0.1561
     47  C        172.4160  142.8960  139.4910 C.2   526  LEU526      0.2260
     48  O        172.3300  142.4370  138.3480 O.2   526  LEU526     -0.2867
     49  CB       171.5250  145.1820  139.7780 C.3   526  LEU526      0.0270
     50  CG       170.4490  146.1580  140.1860 C.3   526  LEU526      0.0019
     51  CD1      170.9120  147.5230  139.7950 C.3   526  LEU526      0.0001
     52  CD2      169.2000  145.8270  139.4940 C.3   526  LEU526      0.0001
     53  N        177.7660  145.2980  131.3080 N.3   567  PRO567     -0.2116
     54  CA       177.4730  146.6750  131.7310 C.3   567  PRO567      0.1372
     55  C        176.3390  147.2940  130.9550 C.2   567  PRO567      0.2244
     56  O        175.7140  148.2420  131.4350 O.2   567  PRO567     -0.2868
     57  CB       178.7870  147.4050  131.4820 C.3   567  PRO567      0.0268
     58  CG       179.3410  146.7340  130.3570 C.3   567  PRO567      0.0207
     59  CD       178.9940  145.2790  130.4920 C.3   567  PRO567      0.0892
     60  N        173.5110  146.2750  133.2790 N.3   570  MET570     -0.1230
     61  CA       173.3750  146.9670  134.5560 C.3   570  MET570      0.1702
     62  C        172.6320  148.2810  134.4140 C.2   570  MET570      0.2592
     63  O        171.9020  148.6880  135.3190 O.2   570  MET570     -0.2718
     64  CB       174.7430  147.1930  135.1680 C.3   570  MET570      0.0401
     65  CG       175.2490  145.9740  135.8210 C.3   570  MET570      0.0596
     66  SD       174.0550  145.6650  137.1120 S.3   570  MET570     -0.1393
     67  CE       174.3400  147.1040  138.1350 C.3   570  MET570      0.0692
     68  N        172.7990  148.9550  133.2860 N.am  571  VAL571     -0.1980
     69  CA       171.9420  150.0910  132.9880 C.3   571  VAL571      0.1595
     70  C        170.5170  149.6190  132.7670 C.2   571  VAL571      0.2287
     71  O        169.5600  150.2640  133.2070 O.2   571  VAL571     -0.2864
     72  CB       172.4980  150.8550  131.7760 C.3   571  VAL571      0.0276
     73  CG1      171.5590  151.9580  131.3390 C.3   571  VAL571      0.0022
     74  CG2      173.8370  151.4300  132.1270 C.3   571  VAL571      0.0022
     75  N        168.5170  148.9800  135.6960 N.3   574  PHE574     -0.1241
     76  CA       168.2520  150.1870  136.4400 C.3   574  PHE574      0.1605
     77  C        166.9630  150.8360  135.9870 C.2   574  PHE574      0.2264
     78  O        166.2320  151.4030  136.8000 O.2   574  PHE574     -0.2867
     79  CB       169.3940  151.1550  136.2930 C.3   574  PHE574      0.0534
     80  CG       169.1970  152.3720  137.0770 C.ar  574  PHE574     -0.0203
     81  CD1      169.3360  152.3230  138.4370 C.ar  574  PHE574     -0.0042
     82  CD2      168.8310  153.5640  136.4770 C.ar  574  PHE574     -0.0042
     83  CE1      169.1370  153.4350  139.1910 C.ar  574  PHE574     -0.0003
     84  CE2      168.6270  154.6900  137.2370 C.ar  574  PHE574     -0.0003
     85  CZ       168.7900  154.6250  138.6010 C.ar  574  PHE574     -0.0000
     86  N        164.4010  149.0780  137.5040 N.3   577  LEU577     -0.1245
     87  CA       164.3280  149.4500  138.9080 C.3   577  LEU577      0.1561
     88  C        163.5140  150.7160  139.1030 C.2   577  LEU577      0.2260
     89  O        162.6930  150.8020  140.0190 O.2   577  LEU577     -0.2867
     90  CB       165.7330  149.6450  139.4490 C.3   577  LEU577      0.0270
     91  CG       165.8620  150.2710  140.8200 C.3   577  LEU577      0.0019
     92  CD1      165.3600  149.3180  141.8000 C.3   577  LEU577      0.0001
     93  CD2      167.2940  150.5980  141.0960 C.3   577  LEU577      0.0001
@<TRIPOS>BOND
     1     8     7   ar
     2     9     7   ar
     3     7     6    1
     4     4     3    2
     5     2     1    1
     6     2     3    1
     7     2     5    1
     8     3    10   am
     9    13    12    2
    10     5     6    1
    11    12    11    1
    12    10    11    1
    13    11    14    1
    14    14    15    1
    15    15    17    1
    16    15    16    1
    17    58    59    1
    18    58    57    1
    19    59    53    1
    20    55    56    2
    21    55    54    1
    22    53    54    1
    23    73    72    1
    24    57    54    1
    25    72    74    1
    26    72    69    1
    27    70    69    1
    28    70    71    2
    29    69    68    1
    30    60    61    1
    31    68    62   am
    32    62    61    1
    33    62    63    2
    34    61    64    1
    35    64    65    1
    36    75    76    1
    37    65    66    1
    38    77    76    1
    39    77    78    2
    40    79    76    1
    41    79    80    1
    42    82    80   ar
    43    82    84   ar
    44    80    81   ar
    45    66    67    1
    46    84    85   ar
    47    86    87    1
    48    48    47    2
    49    81    83   ar
    50    85    83   ar
    51    87    88    1
    52    87    90    1
    53    88    89    2
    54    90    91    1
    55    47    46    1
    56    52    50    1
    57    49    46    1
    58    49    50    1
    59    51    50    1
    60    46    45    1
    61    91    93    1
    62    91    92    1
    63    42    44   ar
    64    42    40   ar
    65    44    43   ar
    66    40    39   ar
    67    37    36    2
    68    43    41   ar
    69    39    41   ar
    70    39    38    1
    71    29    28    2
    72    36    35    1
    73    35    38    1
    74    35    34    1
    75    28    34   am
    76    28    27    1
    77    32    30    1
    78    27    30    1
    79    27    26    1
    80    30    31    1
    81    21    20    2
    82    31    33    1
    83    25    23    1
    84    20    19    1
    85    24    23    1
    86    22    23    1
    87    22    19    1
    88    19    18    1
