@<TRIPOS>MOLECULE
tmp/6e1pB00.pdb
 92 92 0 0 0
SMALL
GASTEIGER

@<TRIPOS>ATOM
      1  N        152.5730  138.4830  149.5390 N.3   187  LEU187     -0.1245
      2  CA       152.6300  138.3520  148.0960 C.3   187  LEU187      0.1561
      3  C        151.4670  137.5120  147.5840 C.2   187  LEU187      0.2260
      4  O        151.0160  137.6800  146.4470 O.2   187  LEU187     -0.2867
      5  CB       153.9550  137.7210  147.7010 C.3   187  LEU187      0.0270
      6  CG       154.2270  137.8560  146.2180 C.3   187  LEU187      0.0019
      7  CD1      154.4770  139.3130  145.9610 C.3   187  LEU187      0.0001
      8  CD2      155.3660  136.9860  145.7670 C.3   187  LEU187      0.0001
      9  N        148.5400  139.8320  147.6080 N.3   190  TRP190     -0.1241
     10  CA       148.7870  140.6210  146.4200 C.3   190  TRP190      0.1605
     11  C        148.3170  139.8990  145.1760 C.2   190  TRP190      0.2264
     12  O        147.6030  140.4740  144.3500 O.2   190  TRP190     -0.2867
     13  CB       150.2650  140.8890  146.2980 C.3   190  TRP190      0.0550
     14  CG       150.5940  141.5710  145.0790 C.ar  190  TRP190      0.0003
     15  CD1      150.3180  142.8430  144.7840 C.ar  190  TRP190      0.0946
     16  CD2      151.2400  141.0190  143.9370 C.ar  190  TRP190      0.0152
     17  NE1      150.7730  143.1450  143.5430 N.ar  190  TRP190     -0.2442
     18  CE2      151.3470  142.0380  142.9990 C.ar  190  TRP190      0.0810
     19  CE3      151.7540  139.7650  143.6280 C.ar  190  TRP190      0.0012
     20  CZ2      151.9430  141.8570  141.7800 C.ar  190  TRP190      0.0191
     21  CZ3      152.3440  139.5820  142.4070 C.ar  190  TRP190      0.0001
     22  CH2      152.4290  140.6180  141.4960 C.ar  190  TRP190      0.0015
     23  N        158.9830  133.4180  123.5640 N.3   595  THR595     -0.1203
     24  CA       158.3700  132.5460  124.5480 C.3   595  THR595      0.1994
     25  C        157.7940  133.3660  125.6830 C.2   595  THR595      0.2618
     26  O        158.1150  134.5400  125.8470 O.2   595  THR595     -0.2717
     27  CB       159.3690  131.5420  125.1070 C.3   595  THR595      0.1784
     28  OG1      158.6910  130.6590  126.0040 O.3   595  THR595     -0.2211
     29  CG2      160.4560  132.2510  125.8560 C.3   595  THR595      0.0376
     30  N        156.9280  132.7330  126.4620 N.am  596  TRP596     -0.1961
     31  CA       156.3340  133.4210  127.5920 C.3   596  TRP596      0.1771
     32  C        157.0780  133.1650  128.8780 C.2   596  TRP596      0.2619
     33  O        156.6480  133.6330  129.9300 O.2   596  TRP596     -0.2715
     34  CB       154.8940  132.9950  127.7430 C.3   596  TRP596      0.0590
     35  CG       154.0670  133.6040  126.7320 C.ar  596  TRP596      0.0006
     36  CD1      153.7720  133.1060  125.5050 C.ar  596  TRP596      0.0946
     37  CD2      153.3840  134.8440  126.8440 C.ar  596  TRP596      0.0152
     38  NE1      152.9500  133.9720  124.8320 N.ar  596  TRP596     -0.2442
     39  CE2      152.6970  135.0500  125.6390 C.ar  596  TRP596      0.0810
     40  CE3      153.2950  135.8080  127.8450 C.ar  596  TRP596      0.0012
     41  CZ2      151.9260  136.1770  125.4120 C.ar  596  TRP596      0.0191
     42  CZ3      152.5350  136.9180  127.6200 C.ar  596  TRP596      0.0001
     43  CH2      151.8590  137.0990  126.4140 C.ar  596  TRP596      0.0015
     44  N        158.1750  132.4260  128.8280 N.am  597  TRP597     -0.1974
     45  CA       158.9420  132.2280  130.0430 C.3   597  TRP597      0.1640
     46  C        159.9650  133.3290  130.2320 C.2   597  TRP597      0.2290
     47  O        160.6790  133.3310  131.2350 O.2   597  TRP597     -0.2864
     48  CB       159.5850  130.8410  130.0280 C.3   597  TRP597      0.0576
     49  CG       158.5430  129.7730  130.1530 C.ar  597  TRP597      0.0006
     50  CD1      157.9540  129.0740  129.1420 C.ar  597  TRP597      0.0946
     51  CD2      157.9360  129.3160  131.3590 C.ar  597  TRP597      0.0152
     52  NE1      157.0230  128.2080  129.6460 N.ar  597  TRP597     -0.2442
     53  CE2      156.9930  128.3400  131.0080 C.ar  597  TRP597      0.0810
     54  CE3      158.0990  129.6400  132.7050 C.ar  597  TRP597      0.0012
     55  CZ2      156.2270  127.6780  131.9500 C.ar  597  TRP597      0.0191
     56  CZ3      157.3350  128.9860  133.6370 C.ar  597  TRP597      0.0001
     57  CH2      156.4100  128.0170  133.2580 C.ar  597  TRP597      0.0015
     58  N        158.8150  136.3230  130.6390 N.3   599  ILE599     -0.1231
     59  CA       158.0650  137.2030  131.5250 C.3   599  ILE599      0.1692
     60  C        158.4230  136.9080  132.9740 C.2   599  ILE599      0.2592
     61  O        158.2590  137.7540  133.8570 O.2   599  ILE599     -0.2718
     62  CB       156.5590  137.0290  131.2510 C.3   599  ILE599      0.0266
     63  CG1      156.2650  137.1670  129.7600 C.3   599  ILE599      0.0019
     64  CG2      155.7090  138.0260  131.9810 C.3   599  ILE599      0.0020
     65  CD1      156.6660  138.4650  129.1690 C.3   599  ILE599      0.0001
     66  N        158.9470  135.7080  133.2290 N.am  600  THR600     -0.1953
     67  CA       159.4020  135.3120  134.5540 C.3   600  THR600      0.1897
     68  C        160.4860  136.2310  135.0690 C.2   600  THR600      0.2313
     69  O        160.4930  136.6020  136.2440 O.2   600  THR600     -0.2863
     70  CB       159.9390  133.8900  134.4910 C.3   600  THR600      0.1794
     71  OG1      158.9140  133.0270  133.9940 O.3   600  THR600     -0.2208
     72  CG2      160.3810  133.4030  135.8560 C.3   600  THR600      0.0378
     73  N        159.0990  139.8680  136.2280 N.3   603  VAL603     -0.1231
     74  CA       158.2360  139.8250  137.3970 C.3   603  VAL603      0.1692
     75  C        159.0310  139.4320  138.6280 C.2   603  VAL603      0.2592
     76  O        158.8380  139.9910  139.7120 O.2   603  VAL603     -0.2718
     77  CB       157.0710  138.8690  137.1410 C.3   603  VAL603      0.0266
     78  CG1      156.1990  138.7410  138.3620 C.3   603  VAL603      0.0020
     79  CG2      156.2940  139.3880  135.9870 C.3   603  VAL603      0.0020
     80  N        159.9550  138.4890  138.4780 N.am  604  SER604     -0.1952
     81  CA       160.7950  138.1030  139.6030 C.3   604  SER604      0.1924
     82  C        161.7110  139.2320  140.0100 C.2   604  SER604      0.2314
     83  O        162.1250  139.3130  141.1700 O.2   604  SER604     -0.2863
     84  CB       161.6360  136.8850  139.2540 C.3   604  SER604      0.2116
     85  OG       160.8250  135.7480  139.0330 O.3   604  SER604     -0.2180
     86  N        159.0010  141.7750  142.0490 N.3   607  VAL607     -0.1245
     87  CA       158.5950  141.3640  143.3820 C.3   607  VAL607      0.1561
     88  C        159.7340  141.5550  144.3660 C.2   607  VAL607      0.2260
     89  O        159.5480  142.0950  145.4610 O.2   607  VAL607     -0.2867
     90  CB       158.1120  139.9110  143.3400 C.3   607  VAL607      0.0252
     91  CG1      157.9310  139.3930  144.7110 C.3   607  VAL607      0.0019
     92  CG2      156.8180  139.8360  142.5830 C.3   607  VAL607      0.0019
@<TRIPOS>BOND
     1    23    24    1
     2    24    27    1
     3    24    25    1
     4    38    36   ar
     5    38    39   ar
     6    27    29    1
     7    27    28    1
     8    41    39   ar
     9    41    43   ar
    10    36    35   ar
    11    39    37   ar
    12    25    26    2
    13    25    30   am
    14    43    42   ar
    15    30    31    1
    16    35    37   ar
    17    35    34    1
    18    37    40   ar
    19    31    34    1
    20    31    32    1
    21    42    40   ar
    22    44    32   am
    23    44    45    1
    24    32    33    2
    25    50    52   ar
    26    50    49   ar
    27    65    63    1
    28    52    53   ar
    29    63    62    1
    30    48    45    1
    31    48    49    1
    32    45    46    1
    33    49    51   ar
    34    46    47    2
    35    58    59    1
    36    53    51   ar
    37    53    55   ar
    38    62    59    1
    39    62    64    1
    40    51    54   ar
    41    59    60    1
    42    55    57   ar
    43    54    56   ar
    44    60    66   am
    45    60    61    2
    46    66    67    1
    47    57    56   ar
    48    71    70    1
    49    70    67    1
    50    70    72    1
    51    67    68    1
    52    68    69    2
    53    79    77    1
    54    73    74    1
    55    77    74    1
    56    77    78    1
    57    74    75    1
    58    80    75   am
    59    80    81    1
    60    75    76    2
    61    85    84    1
    62    84    81    1
    63    81    82    1
    64    82    83    2
    65    22    20   ar
    66    22    21   ar
    67    20    18   ar
    68    86    87    1
    69    21    19   ar
    70    92    90    1
    71    18    17   ar
    72    18    16   ar
    73    90    87    1
    74    90    91    1
    75    87    88    1
    76    17    15   ar
    77    19    16   ar
    78    16    14   ar
    79    12    11    2
    80    88    89    2
    81    15    14   ar
    82    14    13    1
    83    11    10    1
    84     8     6    1
    85     7     6    1
    86     6     5    1
    87    13    10    1
    88    10     9    1
    89     4     3    2
    90     3     2    1
    91     5     2    1
    92     2     1    1
