@<TRIPOS>MOLECULE
tmp/6e1pB03.pdb
 92 89 0 0 0
SMALL
GASTEIGER

@<TRIPOS>ATOM
      1  N        185.9560  144.9180  145.9770 N.3    59  PHE59      -0.1241
      2  CA       185.4880  145.6110  144.7900 C.3    59  PHE59       0.1605
      3  C        186.3340  145.2570  143.5790 C.2    59  PHE59       0.2264
      4  O        185.8880  145.4260  142.4410 O.2    59  PHE59      -0.2867
      5  CB       185.4820  147.1140  145.0330 C.3    59  PHE59       0.0534
      6  CG       184.4070  147.5670  145.9720 C.ar   59  PHE59      -0.0203
      7  CD1      183.1270  147.8080  145.5090 C.ar   59  PHE59      -0.0042
      8  CD2      184.6690  147.7410  147.3190 C.ar   59  PHE59      -0.0042
      9  CE1      182.1340  148.2290  146.3650 C.ar   59  PHE59      -0.0003
     10  CE2      183.6760  148.1590  148.1840 C.ar   59  PHE59      -0.0003
     11  CZ       182.4100  148.3990  147.7060 C.ar   59  PHE59      -0.0000
     12  N        184.1740  143.9980  140.4140 N.3    63  PHE63      -0.1241
     13  CA       184.1190  144.7960  139.1960 C.3    63  PHE63       0.1605
     14  C        184.7130  144.0370  138.0280 C.2    63  PHE63       0.2264
     15  O        184.8950  144.5960  136.9420 O.2    63  PHE63      -0.2867
     16  CB       184.8610  146.1170  139.3800 C.3    63  PHE63       0.0534
     17  CG       184.2150  147.0590  140.3500 C.ar   63  PHE63      -0.0203
     18  CD1      182.9020  146.8860  140.7590 C.ar   63  PHE63      -0.0042
     19  CD2      184.9340  148.1270  140.8580 C.ar   63  PHE63      -0.0042
     20  CE1      182.3260  147.7530  141.6550 C.ar   63  PHE63      -0.0003
     21  CE2      184.3650  149.0000  141.7520 C.ar   63  PHE63      -0.0003
     22  CZ       183.0590  148.8150  142.1510 C.ar   63  PHE63      -0.0000
     23  N        181.8480  143.3460  134.9340 N.3    66  PRO66      -0.2116
     24  CA       181.7650  144.0900  133.6720 C.3    66  PRO66       0.1372
     25  C        182.8920  143.7570  132.7210 C.2    66  PRO66       0.2244
     26  O        182.6740  143.6650  131.5080 O.2    66  PRO66      -0.2868
     27  CB       181.7900  145.5530  134.1280 C.3    66  PRO66       0.0268
     28  CG       181.2230  145.5300  135.4690 C.3    66  PRO66       0.0207
     29  CD       181.7450  144.2770  136.0770 C.3    66  PRO66       0.0892
     30  N        180.8720  149.4540  125.8490 N.3    87  GLU87      -0.1231
     31  CA       182.0070  150.3450  125.6370 C.3    87  GLU87       0.1699
     32  C        183.3060  149.6900  126.0730 C.2    87  GLU87       0.2592
     33  O        184.3610  149.9280  125.4730 O.2    87  GLU87      -0.2718
     34  CB       181.7740  151.6380  126.4150 C.3    87  GLU87       0.0402
     35  CG       182.9060  152.6630  126.4820 C.3    87  GLU87       0.1161
     36  CD       183.1060  153.4400  125.1950 C.2    87  GLU87       0.3649
     37  OE1      182.1220  153.5810  124.4330 O.co2  87  GLU87      -0.2457
     38  OE2      184.2390  153.9260  124.9640 O.co2  87  GLU87      -0.2457
     39  N        183.2360  148.8420  127.0930 N.am   88  LEU88      -0.1980
     40  CA       184.4250  148.4140  127.8110 C.3    88  LEU88       0.1596
     41  C        185.2880  147.4740  126.9740 C.2    88  LEU88       0.2287
     42  O        184.7820  146.7870  126.0780 O.2    88  LEU88      -0.2864
     43  CB       184.0350  147.7160  129.1090 C.3    88  LEU88       0.0297
     44  CG       183.4750  148.6450  130.1650 C.3    88  LEU88       0.0022
     45  CD1      183.0570  147.8660  131.3790 C.3    88  LEU88       0.0001
     46  CD2      184.5290  149.6600  130.5230 C.3    88  LEU88       0.0001
     47  N        173.8850  153.2150  152.7780 N.3   516  MET516     -0.1245
     48  CA       174.9070  152.6310  151.9240 C.3   516  MET516      0.1570
     49  C        174.8720  151.1010  151.8840 C.2   516  MET516      0.2261
     50  O        175.0150  150.5550  150.7770 O.2   516  MET516     -0.2867
     51  CB       176.2780  153.1800  152.3080 C.3   516  MET516      0.0387
     52  CG       177.3050  152.8390  151.2760 C.3   516  MET516      0.0595
     53  SD       176.7060  153.3460  149.6540 S.3   516  MET516     -0.1393
     54  CE       176.8000  155.1260  149.7820 C.3   516  MET516      0.0692
     55  N        171.2800  150.1920  150.0660 N.3   519  LEU519     -0.1231
     56  CA       171.3650  150.3340  148.6200 C.3   519  LEU519      0.1693
     57  C        172.4800  149.4770  148.0600 C.2   519  LEU519      0.2592
     58  O        172.4810  149.1500  146.8690 O.2   519  LEU519     -0.2718
     59  CB       171.5900  151.7880  148.2340 C.3   519  LEU519      0.0284
     60  CG       170.4370  152.7670  148.3680 C.3   519  LEU519      0.0019
     61  CD1      170.9740  154.1610  148.2170 C.3   519  LEU519      0.0001
     62  CD2      169.4240  152.4850  147.2890 C.3   519  LEU519      0.0001
     63  N        173.4570  149.1310  148.8920 N.am  520  GLY520     -0.1957
     64  CA       174.5280  148.2740  148.4230 C.3   520  GLY520      0.1869
     65  C        174.0420  146.8750  148.1050 C.2   520  GLY520      0.2309
     66  O        174.5050  146.2520  147.1490 O.2   520  GLY520     -0.2863
     67  N        171.0180  146.0890  147.0640 N.3   522  ILE522     -0.1231
     68  CA       170.2370  146.1520  145.8410 C.3   522  ILE522      0.1692
     69  C        171.1560  146.2550  144.6380 C.2   522  ILE522      0.2592
     70  O        170.8650  145.7150  143.5640 O.2   522  ILE522     -0.2718
     71  CB       169.2570  147.3260  145.9290 C.3   522  ILE522      0.0266
     72  CG1      168.3610  147.1240  147.1410 C.3   522  ILE522      0.0019
     73  CG2      168.4170  147.4370  144.6900 C.3   522  ILE522      0.0020
     74  CD1      167.4850  148.3040  147.4510 C.3   522  ILE522      0.0001
     75  N        172.3050  146.8960  144.8130 N.am  523  PHE523     -0.1976
     76  CA       173.3130  146.8690  143.7670 C.3   523  PHE523      0.1639
     77  C        173.8680  145.4660  143.5690 C.2   523  PHE523      0.2290
     78  O        174.2300  145.0910  142.4510 O.2   523  PHE523     -0.2864
     79  CB       174.4140  147.8660  144.0940 C.3   523  PHE523      0.0560
     80  CG       175.5760  147.7900  143.1780 C.ar  523  PHE523     -0.0200
     81  CD1      175.4120  147.9520  141.8200 C.ar  523  PHE523     -0.0042
     82  CD2      176.8500  147.6480  143.6820 C.ar  523  PHE523     -0.0042
     83  CE1      176.4880  147.8890  140.9670 C.ar  523  PHE523     -0.0003
     84  CE2      177.9350  147.6090  142.8360 C.ar  523  PHE523     -0.0003
     85  CZ       177.7520  147.7280  141.4750 C.ar  523  PHE523     -0.0000
     86  N        177.7660  145.2980  131.3080 N.3   567  PRO567     -0.2116
     87  CA       177.4730  146.6750  131.7310 C.3   567  PRO567      0.1372
     88  C        176.3390  147.2940  130.9550 C.2   567  PRO567      0.2244
     89  O        175.7140  148.2420  131.4350 O.2   567  PRO567     -0.2868
     90  CB       178.7870  147.4050  131.4820 C.3   567  PRO567      0.0268
     91  CG       179.3410  146.7340  130.3570 C.3   567  PRO567      0.0207
     92  CD       178.9940  145.2790  130.4920 C.3   567  PRO567      0.0892
@<TRIPOS>BOND
     1    37    36   ar
     2    38    36   ar
     3    36    35    1
     4    33    32    2
     5    31    30    1
     6    31    32    1
     7    31    34    1
     8    32    39   am
     9    42    41    2
    10    34    35    1
    11    41    40    1
    12    39    40    1
    13    40    43    1
    14    43    44    1
    15    44    46    1
    16    44    45    1
    17    91    92    1
    18    91    90    1
    19    92    86    1
    20    88    89    2
    21    88    87    1
    22    86    87    1
    23    90    87    1
    24    26    25    2
    25    25    24    1
    26    24    27    1
    27    24    23    1
    28    27    28    1
    29    23    29    1
    30    28    29    1
    31    15    14    2
    32    14    13    1
    33    13    16    1
    34    13    12    1
    35    16    17    1
    36    17    18   ar
    37    17    19   ar
    38    18    20   ar
    39    19    21   ar
    40    83    85   ar
    41    83    81   ar
    42    85    84   ar
    43    20    22   ar
    44    21    22   ar
    45    81    80   ar
    46     4     3    2
    47    78    77    2
    48    84    82   ar
    49    80    82   ar
    50    80    79    1
    51    70    69    2
    52    77    76    1
    53     3     2    1
    54    76    79    1
    55    76    75    1
    56    69    75   am
    57    69    68    1
    58    73    71    1
    59     2     5    1
    60     2     1    1
    61     5     6    1
    62     7     6   ar
    63     7     9   ar
    64    68    71    1
    65    68    67    1
    66    71    72    1
    67     6     8   ar
    68     9    11   ar
    69    58    57    2
    70    72    74    1
    71    66    65    2
    72    62    60    1
    73     8    10   ar
    74    11    10   ar
    75    57    56    1
    76    57    63   am
    77    65    64    1
    78    61    60    1
    79    59    60    1
    80    59    56    1
    81    64    63    1
    82    56    55    1
    83    53    54    1
    84    53    52    1
    85    50    49    2
    86    52    51    1
    87    49    48    1
    88    48    51    1
    89    48    47    1
