@<TRIPOS>MOLECULE
tmp/6e1qA01.pdb
 107 100 0 0 0
SMALL
GASTEIGER

@<TRIPOS>ATOM
      1  N         14.4420  -52.6320   17.6860 N.3   122  SER122     -0.1217
      2  CA        13.9180  -51.6980   16.6960 C.3   122  SER122      0.1889
      3  C         12.9830  -50.6780   17.3370 C.2   122  SER122      0.2288
      4  O         12.9320  -49.5150   16.9230 O.2   122  SER122     -0.2866
      5  CB        13.1890  -52.4700   15.5950 C.3   122  SER122      0.2089
      6  OG        12.0760  -53.1670   16.1340 O.3   122  SER122     -0.2183
      7  N          6.2590  -48.9540    2.7060 N.3   143  ILE143     -0.1245
      8  CA         7.4230  -49.8050    2.5050 C.3   143  ILE143      0.1561
      9  C          7.2140  -50.5670    1.2110 C.2   143  ILE143      0.2260
     10  O          6.2510  -51.3280    1.0750 O.2   143  ILE143     -0.2867
     11  CB         7.6470  -50.7520    3.6970 C.3   143  ILE143      0.0252
     12  CG1        8.1730  -49.9650    4.9040 C.3   143  ILE143      0.0019
     13  CG2        8.6380  -51.8410    3.3480 C.3   143  ILE143      0.0019
     14  CD1        8.0250  -50.7010    6.2100 C.3   143  ILE143      0.0001
     15  N         14.5460  -62.1010    5.8980 N.3   162  MET162     -0.1230
     16  CA        14.5320  -61.4390    7.1990 C.3   162  MET162      0.1702
     17  C         13.4480  -60.3680    7.2650 C.2   162  MET162      0.2592
     18  O         12.7560  -60.2320    8.2890 O.2   162  MET162     -0.2718
     19  CB        15.9030  -60.8340    7.4900 C.3   162  MET162      0.0401
     20  CG        15.8920  -59.9170    8.6810 C.3   162  MET162      0.0596
     21  SD        15.9270  -60.9210   10.1710 S.3   162  MET162     -0.1393
     22  CE        14.4860  -60.3230   11.0420 C.3   162  MET162      0.0692
     23  N         13.2860  -59.5990    6.1840 N.am  163  VAL163     -0.1980
     24  CA        12.2370  -58.5800    6.1460 C.3   163  VAL163      0.1595
     25  C         10.8690  -59.2160    6.3580 C.2   163  VAL163      0.2287
     26  O         10.0790  -58.7660    7.1990 O.2   163  VAL163     -0.2864
     27  CB        12.2970  -57.8030    4.8210 C.3   163  VAL163      0.0276
     28  CG1       11.0990  -56.9030    4.7140 C.3   163  VAL163      0.0022
     29  CG2       13.6090  -57.0060    4.7440 C.3   163  VAL163      0.0022
     30  N         10.5330  -60.2710    9.8880 N.3   166  PHE166     -0.1227
     31  CA        10.3730  -59.0920   10.7300 C.3   166  PHE166      0.1736
     32  C          8.9440  -58.5590   10.6560 C.2   166  PHE166      0.2595
     33  O          8.2840  -58.3790   11.6850 O.2   166  PHE166     -0.2718
     34  CB        11.3890  -58.0290   10.3030 C.3   166  PHE166      0.0547
     35  CG        11.4470  -56.8330   11.2100 C.ar  166  PHE166     -0.0202
     36  CD1       12.2660  -56.8350   12.3320 C.ar  166  PHE166     -0.0042
     37  CD2       10.7130  -55.6900   10.9240 C.ar  166  PHE166     -0.0042
     38  CE1       12.3340  -55.7270   13.1640 C.ar  166  PHE166     -0.0003
     39  CE2       10.7720  -54.5790   11.7550 C.ar  166  PHE166     -0.0003
     40  CZ        11.5820  -54.6010   12.8750 C.ar  166  PHE166     -0.0000
     41  N          8.4410  -58.3350    9.4410 N.am  167  LEU167     -0.1980
     42  CA         7.0920  -57.7970    9.2720 C.3   167  LEU167      0.1596
     43  C          6.0370  -58.7620    9.7910 C.2   167  LEU167      0.2287
     44  O          5.1080  -58.3640   10.5090 O.2   167  LEU167     -0.2864
     45  CB         6.8360  -57.4770    7.7970 C.3   167  LEU167      0.0297
     46  CG         7.7530  -56.3900    7.2530 C.3   167  LEU167      0.0022
     47  CD1        7.4360  -56.1110    5.7900 C.3   167  LEU167      0.0001
     48  CD2        7.6160  -55.1250    8.1100 C.3   167  LEU167      0.0001
     49  N          5.8870  -58.5830   13.7560 N.3   170  ILE170     -0.1245
     50  CA         5.2540  -57.4130   14.3560 C.3   170  ILE170      0.1561
     51  C          3.7850  -57.3590   13.9700 C.2   170  ILE170      0.2260
     52  O          2.9630  -56.8550   14.7360 O.2   170  ILE170     -0.2867
     53  CB         5.9900  -56.1020   13.9970 C.3   170  ILE170      0.0252
     54  CG1        6.0500  -55.8630   12.5010 C.3   170  ILE170      0.0019
     55  CG2        7.4180  -56.1020   14.5370 C.3   170  ILE170      0.0019
     56  CD1        6.8960  -54.6450   12.1500 C.3   170  ILE170      0.0001
     57  N          2.3400  -49.0750    9.8450 N.3   176  LEU176     -0.1245
     58  CA         3.0550  -49.3900    8.6190 C.3   176  LEU176      0.1561
     59  C          2.0700  -49.5200    7.4700 C.2   176  LEU176      0.2260
     60  O          1.0020  -50.1220    7.6190 O.2   176  LEU176     -0.2867
     61  CB         3.8510  -50.6930    8.7410 C.3   176  LEU176      0.0270
     62  CG         4.9640  -50.8050    9.7820 C.3   176  LEU176      0.0019
     63  CD1        5.5920  -52.1940    9.7030 C.3   176  LEU176      0.0001
     64  CD2        6.0140  -49.7140    9.5930 C.3   176  LEU176      0.0001
     65  N          6.8510  -41.5790    5.7550 N.3   209  ARG209     -0.1245
     66  CA         8.1740  -42.0560    5.3970 C.3   209  ARG209      0.1563
     67  C          8.0290  -43.0620    4.2780 C.2   209  ARG209      0.2260
     68  O          7.0530  -43.8150    4.2380 O.2   209  ARG209     -0.2867
     69  CB         8.8830  -42.6770    6.6110 C.3   209  ARG209      0.0307
     70  CG         9.9190  -43.7570    6.3180 C.3   209  ARG209      0.0489
     71  CD        10.7020  -44.1160    7.6000 C.3   209  ARG209      0.2205
     72  NE        10.1320  -45.2890    8.2640 N.pl3 209  ARG209     -0.0865
     73  CZ        10.6840  -45.9310    9.2880 C.cat 209  ARG209      0.5346
     74  NH1       11.8430  -45.5280    9.7850 N.pl3 209  ARG209      0.1354
     75  NH2       10.0670  -46.9780    9.8170 N.pl3 209  ARG209      0.1354
     76  N         20.1550  -48.4930    9.6360 N.3   320  PHE320     -0.1241
     77  CA        20.4080  -49.8170   10.1840 C.3   320  PHE320      0.1605
     78  C         21.5380  -50.5130    9.4520 C.2   320  PHE320      0.2264
     79  O         21.6020  -50.4850    8.2200 O.2   320  PHE320     -0.2867
     80  CB        19.1650  -50.7030   10.1070 C.3   320  PHE320      0.0534
     81  CG        17.8910  -50.0180   10.5310 C.ar  320  PHE320     -0.0203
     82  CD1       17.5460  -49.9410   11.8750 C.ar  320  PHE320     -0.0042
     83  CD2       17.0210  -49.4910    9.5850 C.ar  320  PHE320     -0.0042
     84  CE1       16.3660  -49.3300   12.2740 C.ar  320  PHE320     -0.0003
     85  CE2       15.8380  -48.8780    9.9770 C.ar  320  PHE320     -0.0003
     86  CZ        15.5110  -48.7990   11.3240 C.ar  320  PHE320     -0.0000
     87  N         22.8590  -54.3750    9.3940 N.3   322  GLY322     -0.1210
     88  CA        22.5300  -55.7190    9.8360 C.3   322  GLY322      0.1956
     89  C         22.5850  -56.7190    8.7000 C.2   322  GLY322      0.2612
     90  O         22.8370  -56.3780    7.5440 O.2   322  GLY322     -0.2717
     91  N         22.3520  -57.9790    9.0500 N.am  323  SER323     -0.1952
     92  CA        22.3790  -59.0680    8.0870 C.3   323  SER323      0.1924
     93  C         21.4850  -60.1570    8.6390 C.2   323  SER323      0.2314
     94  O         21.0510  -60.0910    9.7910 O.2   323  SER323     -0.2863
     95  CB        23.8030  -59.5910    7.8450 C.3   323  SER323      0.2116
     96  OG        24.3190  -60.1630    9.0400 O.3   323  SER323     -0.2180
     97  N         21.7790  -58.5930   13.6120 N.3   327  PHE327     -0.1241
     98  CA        21.5700  -57.1470   13.5930 C.3   327  PHE327      0.1605
     99  C         22.7130  -56.4880   14.3500 C.2   327  PHE327      0.2264
    100  O         22.9840  -56.8470   15.4990 O.2   327  PHE327     -0.2867
    101  CB        20.2420  -56.7600   14.2370 C.3   327  PHE327      0.0534
    102  CG        19.9350  -55.3090   14.1160 C.ar  327  PHE327     -0.0203
    103  CD1       19.7610  -54.7290   12.8700 C.ar  327  PHE327     -0.0042
    104  CD2       19.8510  -54.5060   15.2380 C.ar  327  PHE327     -0.0042
    105  CE1       19.4900  -53.3790   12.7490 C.ar  327  PHE327     -0.0003
    106  CE2       19.5760  -53.1520   15.1170 C.ar  327  PHE327     -0.0003
    107  CZ        19.3940  -52.5940   13.8740 C.ar  327  PHE327     -0.0000
@<TRIPOS>BOND
     1    10     9    2
     2     9     8    1
     3     8     7    1
     4     8    11    1
     5    13    11    1
     6    11    12    1
     7    68    67    2
     8    67    66    1
     9    28    27    1
    10    29    27    1
    11    27    24    1
    12    12    14    1
    13    66    65    1
    14    66    69    1
    15    47    46    1
    16    15    16    1
    17    24    23    1
    18    24    25    1
    19    23    17   am
    20    70    69    1
    21    70    71    1
    22    25    26    2
    23    16    17    1
    24    16    19    1
    25    46    45    1
    26    46    48    1
    27    17    18    2
    28    59    60    2
    29    59    58    1
    30    19    20    1
    31    90    89    2
    32    71    72    1
    33    45    42    1
    34    95    92    1
    35    95    96    1
    36    92    93    1
    37    92    91    1
    38    79    78    2
    39    72    73    2
    40    58    61    1
    41    58    57    1
    42    93    94    2
    43    20    21    1
    44    89    91   am
    45    89    88    1
    46    61    62    1
    47    42    41    1
    48    42    43    1
    49    73    74    1
    50    73    75    1
    51    87    88    1
    52    41    32   am
    53    78    77    1
    54    83    85   ar
    55    83    81   ar
    56    64    62    1
    57    76    77    1
    58    63    62    1
    59    43    44    2
    60    30    31    1
    61    85    86   ar
    62    80    77    1
    63    80    81    1
    64    21    22    1
    65    34    31    1
    66    34    35    1
    67    81    82   ar
    68    32    31    1
    69    32    33    2
    70    37    35   ar
    71    37    39   ar
    72    35    36   ar
    73    86    84   ar
    74    39    40   ar
    75    82    84   ar
    76    56    54    1
    77    36    38   ar
    78    54    53    1
    79   105   103   ar
    80   105   107   ar
    81   103   102   ar
    82    40    38   ar
    83    98    97    1
    84    98   101    1
    85    98    99    1
    86    49    50    1
    87   107   106   ar
    88    51    50    1
    89    51    52    2
    90    53    50    1
    91    53    55    1
    92   102   101    1
    93   102   104   ar
    94    99   100    2
    95   106   104   ar
    96     5     6    1
    97     5     2    1
    98     2     3    1
    99     2     1    1
   100     4     3    2
