@<TRIPOS>MOLECULE
tmp/6e1qA00.pdb
 110 103 0 0 0
SMALL
GASTEIGER

@<TRIPOS>ATOM
      1  N          4.6750  -45.4800    7.5090 N.3   141  SER141     -0.1217
      2  CA         5.8230  -45.8090    6.6720 C.3   141  SER141      0.1889
      3  C          5.3280  -46.6600    5.5120 C.2   141  SER141      0.2288
      4  O          4.8640  -47.7860    5.7120 O.2   141  SER141     -0.2866
      5  CB         6.8970  -46.5500    7.4710 C.3   141  SER141      0.2089
      6  OG         7.4940  -45.7070    8.4340 O.3   141  SER141     -0.2183
      7  N          6.2590  -48.9540    2.7060 N.3   143  ILE143     -0.1245
      8  CA         7.4230  -49.8050    2.5050 C.3   143  ILE143      0.1561
      9  C          7.2140  -50.5670    1.2110 C.2   143  ILE143      0.2260
     10  O          6.2510  -51.3280    1.0750 O.2   143  ILE143     -0.2867
     11  CB         7.6470  -50.7520    3.6970 C.3   143  ILE143      0.0252
     12  CG1        8.1730  -49.9650    4.9040 C.3   143  ILE143      0.0019
     13  CG2        8.6380  -51.8410    3.3480 C.3   143  ILE143      0.0019
     14  CD1        8.0250  -50.7010    6.2100 C.3   143  ILE143      0.0001
     15  N          8.0820  -53.4030   -0.7910 N.3   145  TYR145     -0.1241
     16  CA         8.6940  -54.7000   -0.5780 C.3   145  TYR145      0.1605
     17  C          7.6470  -55.7270   -0.9220 C.2   145  TYR145      0.2264
     18  O          6.5170  -55.6250   -0.4400 O.2   145  TYR145     -0.2867
     19  CB         9.1310  -54.8960    0.8800 C.3   145  TYR145      0.0534
     20  CG         9.8730  -56.2060    1.0700 C.ar  145  TYR145     -0.0201
     21  CD1       11.2260  -56.2900    0.7890 C.ar  145  TYR145     -0.0009
     22  CD2        9.2170  -57.3620    1.4940 C.ar  145  TYR145     -0.0009
     23  CE1       11.9170  -57.4660    0.9460 C.ar  145  TYR145      0.0417
     24  CE2        9.9100  -58.5650    1.6430 C.ar  145  TYR145      0.0417
     25  CZ        11.2620  -58.6030    1.3600 C.ar  145  TYR145      0.1957
     26  OH        12.0030  -59.7580    1.4910 O.3   145  TYR145     -0.2866
     27  N         13.2860  -59.5990    6.1840 N.3   163  VAL163     -0.1245
     28  CA        12.2370  -58.5800    6.1460 C.3   163  VAL163      0.1561
     29  C         10.8690  -59.2160    6.3580 C.2   163  VAL163      0.2260
     30  O         10.0790  -58.7660    7.1990 O.2   163  VAL163     -0.2867
     31  CB        12.2970  -57.8030    4.8210 C.3   163  VAL163      0.0252
     32  CG1       11.0990  -56.9030    4.7140 C.3   163  VAL163      0.0019
     33  CG2       13.6090  -57.0060    4.7440 C.3   163  VAL163      0.0019
     34  N          8.4410  -58.3350    9.4410 N.3   167  LEU167     -0.1245
     35  CA         7.0920  -57.7970    9.2720 C.3   167  LEU167      0.1561
     36  C          6.0370  -58.7620    9.7910 C.2   167  LEU167      0.2260
     37  O          5.1080  -58.3640   10.5090 O.2   167  LEU167     -0.2867
     38  CB         6.8360  -57.4770    7.7970 C.3   167  LEU167      0.0270
     39  CG         7.7530  -56.3900    7.2530 C.3   167  LEU167      0.0019
     40  CD1        7.4360  -56.1110    5.7900 C.3   167  LEU167      0.0001
     41  CD2        7.6160  -55.1250    8.1100 C.3   167  LEU167      0.0001
     42  N          2.3400  -49.0750    9.8450 N.3   176  LEU176     -0.1245
     43  CA         3.0550  -49.3900    8.6190 C.3   176  LEU176      0.1561
     44  C          2.0700  -49.5200    7.4700 C.2   176  LEU176      0.2260
     45  O          1.0020  -50.1220    7.6190 O.2   176  LEU176     -0.2867
     46  CB         3.8510  -50.6930    8.7410 C.3   176  LEU176      0.0270
     47  CG         4.9640  -50.8050    9.7820 C.3   176  LEU176      0.0019
     48  CD1        5.5920  -52.1940    9.7030 C.3   176  LEU176      0.0001
     49  CD2        6.0140  -49.7140    9.5930 C.3   176  LEU176      0.0001
     50  N          6.8510  -41.5790    5.7550 N.3   209  ARG209     -0.1245
     51  CA         8.1740  -42.0560    5.3970 C.3   209  ARG209      0.1563
     52  C          8.0290  -43.0620    4.2780 C.2   209  ARG209      0.2260
     53  O          7.0530  -43.8150    4.2380 O.2   209  ARG209     -0.2867
     54  CB         8.8830  -42.6770    6.6110 C.3   209  ARG209      0.0307
     55  CG         9.9190  -43.7570    6.3180 C.3   209  ARG209      0.0489
     56  CD        10.7020  -44.1160    7.6000 C.3   209  ARG209      0.2205
     57  NE        10.1320  -45.2890    8.2640 N.pl3 209  ARG209     -0.0865
     58  CZ        10.6840  -45.9310    9.2880 C.cat 209  ARG209      0.5346
     59  NH1       11.8430  -45.5280    9.7850 N.pl3 209  ARG209      0.1354
     60  NH2       10.0670  -46.9780    9.8170 N.pl3 209  ARG209      0.1354
     61  N         10.0640  -46.2650    2.4400 N.3   211  GLY211     -0.1210
     62  CA        11.0970  -47.2440    2.7220 C.3   211  GLY211      0.1956
     63  C         11.1580  -48.3070    1.6490 C.2   211  GLY211      0.2612
     64  O         10.1600  -48.6320    0.9970 O.2   211  GLY211     -0.2717
     65  N         12.3550  -48.8490    1.4830 N.am  212  ALA212     -0.1966
     66  CA        12.6080  -49.9870    0.6130 C.3   212  ALA212      0.1713
     67  C         13.9440  -50.5720    1.0180 C.2   212  ALA212      0.2458
     68  O         14.7300  -49.9120    1.7020 O.2   212  ALA212     -0.2730
     69  CB        12.6130  -49.5720   -0.8670 C.3   212  ALA212      0.0333
     70  N         14.2410  -51.8040    0.6100 N.am  213  PRO213     -0.2727
     71  CA        15.5480  -52.3690    0.9880 C.3   213  PRO213      0.1402
     72  C         16.7310  -51.5190    0.5350 C.2   213  PRO213      0.2269
     73  O         17.6080  -51.1990    1.3520 O.2   213  PRO213     -0.2865
     74  CB        15.5360  -53.7540    0.3220 C.3   213  PRO213      0.0296
     75  CG        14.0700  -54.0800    0.1410 C.3   213  PRO213      0.0237
     76  CD        13.4040  -52.7640   -0.1450 C.3   213  PRO213      0.0939
     77  N         14.0240  -44.0340    3.4780 N.3   293  GLU293     -0.1231
     78  CA        14.8750  -44.9470    4.2260 C.3   293  GLU293      0.1699
     79  C         15.2300  -46.1290    3.3370 C.2   293  GLU293      0.2593
     80  O         14.3340  -46.8220    2.8370 O.2   293  GLU293     -0.2718
     81  CB        14.1610  -45.4160    5.5010 C.3   293  GLU293      0.0402
     82  CG        14.8840  -46.5470    6.2340 C.3   293  GLU293      0.1161
     83  CD        16.1090  -46.0670    7.0210 C.2   293  GLU293      0.3649
     84  OE1       16.0660  -44.9580    7.5900 O.co2 293  GLU293     -0.2457
     85  OE2       17.1250  -46.7940    7.0540 O.co2 293  GLU293     -0.2457
     86  N         16.5320  -46.3520    3.1290 N.am  294  SER294     -0.1938
     87  CA        17.0200  -47.5150    2.3860 C.3   294  SER294      0.2055
     88  C         18.5290  -47.5980    2.5390 C.2   294  SER294      0.2642
     89  O         19.1800  -46.6560    2.9950 O.2   294  SER294     -0.2714
     90  CB        16.6690  -47.4300    0.8960 C.3   294  SER294      0.2130
     91  OG        17.4470  -46.4030    0.2740 O.3   294  SER294     -0.2179
     92  N         19.0850  -48.7250    2.1070 N.am  295  ILE295     -0.1977
     93  CA        20.5370  -48.8600    2.0700 C.3   295  ILE295      0.1596
     94  C         21.0840  -47.9740    0.9530 C.2   295  ILE295      0.2287
     95  O         20.6760  -48.0890   -0.2110 O.2   295  ILE295     -0.2864
     96  CB        20.9410  -50.3270    1.8960 C.3   295  ILE295      0.0276
     97  CG1       20.5190  -51.1060    3.1470 C.3   295  ILE295      0.0022
     98  CG2       22.4490  -50.4470    1.6580 C.3   295  ILE295      0.0022
     99  CD1       20.5820  -52.6060    2.9670 C.3   295  ILE295      0.0001
    100  N         20.1550  -48.4930    9.6360 N.3   320  PHE320     -0.1241
    101  CA        20.4080  -49.8170   10.1840 C.3   320  PHE320      0.1605
    102  C         21.5380  -50.5130    9.4520 C.2   320  PHE320      0.2264
    103  O         21.6020  -50.4850    8.2200 O.2   320  PHE320     -0.2867
    104  CB        19.1650  -50.7030   10.1070 C.3   320  PHE320      0.0534
    105  CG        17.8910  -50.0180   10.5310 C.ar  320  PHE320     -0.0203
    106  CD1       17.5460  -49.9410   11.8750 C.ar  320  PHE320     -0.0042
    107  CD2       17.0210  -49.4910    9.5850 C.ar  320  PHE320     -0.0042
    108  CE1       16.3660  -49.3300   12.2740 C.ar  320  PHE320     -0.0003
    109  CE2       15.8380  -48.8780    9.9770 C.ar  320  PHE320     -0.0003
    110  CZ        15.5110  -48.7990   11.3240 C.ar  320  PHE320     -0.0000
@<TRIPOS>BOND
     1    17    16    1
     2    17    18    2
     3    69    66    1
     4    15    16    1
     5    16    19    1
     6    95    94    2
     7    76    75    1
     8    76    70    1
     9    75    74    1
    10    91    90    1
    11    74    71    1
    12    72    71    1
    13    72    73    2
    14    70    71    1
    15    70    67   am
    16    66    67    1
    17    66    65    1
    18    21    23   ar
    19    21    20   ar
    20    19    20    1
    21    90    87    1
    22    23    25   ar
    23    94    93    1
    24    64    63    2
    25    67    68    2
    26    20    22   ar
    27    10     9    2
    28     9     8    1
    29    25    26    1
    30    25    24   ar
    31    65    63   am
    32    22    24   ar
    33    63    62    1
    34    98    96    1
    35    96    93    1
    36    96    97    1
    37    93    92    1
    38    92    88   am
    39    87    88    1
    40    87    86    1
    41    61    62    1
    42     8     7    1
    43     8    11    1
    44    88    89    2
    45    80    79    2
    46    99    97    1
    47    86    79   am
    48    79    78    1
    49    13    11    1
    50    77    78    1
    51    11    12    1
    52    78    81    1
    53    53    52    2
    54    52    51    1
    55    32    31    1
    56    33    31    1
    57    31    28    1
    58    12    14    1
    59    51    50    1
    60    51    54    1
    61    81    82    1
    62     3     4    2
    63     3     2    1
    64    40    39    1
    65    28    27    1
    66    28    29    1
    67    82    83    1
    68    55    54    1
    69    55    56    1
    70    29    30    2
    71     2     5    1
    72     2     1    1
    73    83    85   ar
    74    83    84   ar
    75    39    38    1
    76    39    41    1
    77    44    45    2
    78    44    43    1
    79     5     6    1
    80    56    57    1
    81    38    35    1
    82   103   102    2
    83    57    58    2
    84    43    46    1
    85    43    42    1
    86    46    47    1
    87    35    34    1
    88    35    36    1
    89    58    59    1
    90    58    60    1
    91   102   101    1
    92   107   109   ar
    93   107   105   ar
    94    49    47    1
    95   100   101    1
    96    48    47    1
    97    36    37    2
    98   109   110   ar
    99   104   101    1
   100   104   105    1
   101   105   106   ar
   102   110   108   ar
   103   106   108   ar
