@<TRIPOS>MOLECULE
tmp/6e1yB00.pdb
 190 185 0 0 0
SMALL
GASTEIGER

@<TRIPOS>ATOM
      1  N         11.4670  -18.2850   22.8300 N.3    17  VAL17      -0.1231
      2  CA        12.4300  -18.3490   23.9190 C.3    17  VAL17       0.1692
      3  C         13.8000  -18.6030   23.3120 C.2    17  VAL17       0.2592
      4  O         13.9270  -19.2430   22.2680 O.2    17  VAL17      -0.2718
      5  CB        12.0270  -19.4230   24.9510 C.3    17  VAL17       0.0266
      6  CG1       13.0000  -19.4120   26.1480 C.3    17  VAL17       0.0020
      7  CG2       10.5940  -19.1940   25.4150 C.3    17  VAL17       0.0020
      8  N         14.8470  -18.0920   23.9560 N.am   18  SER18      -0.1952
      9  CA        16.2100  -18.3060   23.4830 C.3    18  SER18       0.1924
     10  C         17.0630  -19.1470   24.4200 C.2    18  SER18       0.2314
     11  O         17.8670  -19.9430   23.9480 O.2    18  SER18      -0.2863
     12  CB        16.9290  -16.9720   23.2480 C.3    18  SER18       0.2116
     13  OG        16.8280  -16.1060   24.3650 O.3    18  SER18      -0.2180
     14  N         13.4730  -13.5560   22.4930 N.3    34  ALA34      -0.1245
     15  CA        13.4330  -12.5730   21.4260 C.3    34  ALA34       0.1562
     16  C         12.4880  -11.4270   21.7350 C.2    34  ALA34       0.2260
     17  O         12.5680  -10.3930   21.0620 O.2    34  ALA34      -0.2867
     18  CB        13.0110  -13.2560   20.1210 C.3    34  ALA34       0.0290
     19  N         19.4860  -13.3070   23.3690 N.3    60  SER60      -0.1202
     20  CA        19.8290  -14.6370   22.9050 C.3    60  SER60       0.2020
     21  C         20.3820  -15.5470   24.0020 C.2    60  SER60       0.2618
     22  O         20.4740  -16.7610   23.7770 O.2    60  SER60      -0.2717
     23  CB        20.8660  -14.5550   21.7820 C.3    60  SER60       0.2103
     24  OG        20.3400  -13.9350   20.6310 O.3    60  SER60      -0.2182
     25  N         20.7860  -15.0150   25.1630 N.am   61  ASP61      -0.1973
     26  CA        21.3630  -15.8410   26.2240 C.3    61  ASP61       0.1709
     27  C         21.2710  -15.0830   27.5290 C.2    61  ASP61       0.2293
     28  O         21.1990  -13.8540   27.5590 O.2    61  ASP61      -0.2864
     29  CB        22.8100  -16.1930   25.8880 C.3    61  ASP61       0.1436
     30  CG        23.3320  -17.4510   26.5890 C.2    61  ASP61       0.3671
     31  OD1       22.5760  -18.1410   27.3160 O.co2  61  ASP61      -0.2456
     32  OD2       24.5410  -17.7250   26.3860 O.co2  61  ASP61      -0.2456
     33  N         25.6160  -12.7680   21.4510 N.3   102  PHE102     -0.1227
     34  CA        24.8800  -14.0170   21.2620 C.3   102  PHE102      0.1736
     35  C         24.9590  -14.9690   22.4450 C.2   102  PHE102      0.2595
     36  O         24.0340  -15.7510   22.6730 O.2   102  PHE102     -0.2718
     37  CB        25.4140  -14.7250   20.0060 C.3   102  PHE102      0.0547
     38  CG        24.6000  -15.8860   19.5740 C.ar  102  PHE102     -0.0202
     39  CD1       23.2850  -15.7120   19.1480 C.ar  102  PHE102     -0.0042
     40  CD2       25.1350  -17.1460   19.5420 C.ar  102  PHE102     -0.0042
     41  CE1       22.5240  -16.8050   18.7280 C.ar  102  PHE102     -0.0003
     42  CE2       24.3770  -18.2310   19.1390 C.ar  102  PHE102     -0.0003
     43  CZ        23.0770  -18.0460   18.6840 C.ar  102  PHE102     -0.0000
     44  N         26.0750  -14.9920   23.1680 N.am  103  CYS103     -0.1970
     45  CA        26.3470  -15.9690   24.2170 C.3   103  CYS103      0.1712
     46  C         27.0830  -15.2990   25.3580 C.2   103  CYS103      0.2296
     47  O         27.8440  -14.3510   25.1590 O.2   103  CYS103     -0.2864
     48  CB        27.1240  -17.1660   23.6610 C.3   103  CYS103      0.0983
     49  SG        28.6040  -16.7420   22.7040 S.3   103  CYS103     -0.0798
     50  N         28.3180  -11.8120   17.1250 N.3   118  PHE118     -0.1241
     51  CA        28.3490  -11.8170   15.6630 C.3   118  PHE118      0.1605
     52  C         29.5250  -11.0260   15.1300 C.2   118  PHE118      0.2264
     53  O         29.8810  -11.1790   13.9560 O.2   118  PHE118     -0.2867
     54  CB        27.0130  -11.2930   15.1090 C.3   118  PHE118      0.0534
     55  CG        25.9670  -12.3370   15.0550 C.ar  118  PHE118     -0.0203
     56  CD1       25.3760  -12.8280   16.1960 C.ar  118  PHE118     -0.0042
     57  CD2       25.5650  -12.8470   13.8240 C.ar  118  PHE118     -0.0042
     58  CE1       24.4120  -13.8140   16.1220 C.ar  118  PHE118     -0.0003
     59  CE2       24.6030  -13.8450   13.7530 C.ar  118  PHE118     -0.0003
     60  CZ        24.0260  -14.3170   14.9050 C.ar  118  PHE118     -0.0000
     61  N         30.5070  -15.6410   13.2590 N.3   142  PRO142     -0.2102
     62  CA        29.8390  -15.4710   14.5620 C.3   142  PRO142      0.1504
     63  C         30.2050  -16.5270   15.5980 C.2   142  PRO142      0.2576
     64  O         30.4050  -17.6980   15.2780 O.2   142  PRO142     -0.2718
     65  CB        28.3520  -15.5030   14.2220 C.3   142  PRO142      0.0282
     66  CG        28.3310  -14.8880   12.8110 C.3   142  PRO142      0.0208
     67  CD        29.5530  -15.4990   12.1500 C.3   142  PRO142      0.0893
     68  N         30.3380  -16.0720   16.8470 N.am  143  VAL143     -0.1966
     69  CA        30.6720  -16.9140   17.9940 C.3   143  VAL143      0.1727
     70  C         29.3910  -17.4920   18.5730 C.2   143  VAL143      0.2617
     71  O         28.5250  -16.7440   19.0280 O.2   143  VAL143     -0.2715
     72  CB        31.4660  -16.1170   19.0420 C.3   143  VAL143      0.0290
     73  CG1       31.8110  -16.9910   20.2110 C.3   143  VAL143      0.0023
     74  CG2       32.7100  -15.4850   18.4040 C.3   143  VAL143      0.0023
     75  N         29.2730  -18.8110   18.5390 N.am  144  SER144     -0.1936
     76  CA        28.0460  -19.4740   18.9460 C.3   144  SER144      0.2055
     77  C         27.9760  -19.7980   20.4330 C.2   144  SER144      0.2642
     78  O         26.8630  -19.9310   20.9500 O.2   144  SER144     -0.2714
     79  CB        27.8750  -20.7780   18.1620 C.3   144  SER144      0.2130
     80  OG        29.0490  -21.5710   18.2360 O.3   144  SER144     -0.2179
     81  N         29.1030  -19.9210   21.1390 N.am  145  ALA145     -0.1977
     82  CA        29.0740  -20.2700   22.5510 C.3   145  ALA145      0.1597
     83  C         30.3930  -19.8900   23.1810 C.2   145  ALA145      0.2287
     84  O         31.4370  -19.8770   22.5270 O.2   145  ALA145     -0.2864
     85  CB        28.7810  -21.7530   22.7390 C.3   145  ALA145      0.0319
     86  N         30.6560  -20.5000   13.9760 N.3   160  TYR160     -0.1241
     87  CA        30.2910  -20.8720   12.6080 C.3   160  TYR160      0.1605
     88  C         31.5050  -21.0540   11.7090 C.2   160  TYR160      0.2264
     89  O         31.3720  -21.7020   10.6580 O.2   160  TYR160     -0.2867
     90  CB        29.3410  -19.8080   12.0590 C.3   160  TYR160      0.0534
     91  CG        28.7480  -20.1060   10.7020 C.ar  160  TYR160     -0.0201
     92  CD1       29.4100  -19.7430    9.5280 C.ar  160  TYR160     -0.0009
     93  CD2       27.5190  -20.7340   10.5920 C.ar  160  TYR160     -0.0009
     94  CE1       28.8660  -20.0080    8.2880 C.ar  160  TYR160      0.0417
     95  CE2       26.9580  -20.9990    9.3440 C.ar  160  TYR160      0.0417
     96  CZ        27.6380  -20.6360    8.2020 C.ar  160  TYR160      0.1957
     97  OH        27.0880  -20.9010    6.9670 O.3   160  TYR160     -0.2866
     98  N         29.8850  -25.8070   10.7420 N.3   183  PRO183     -0.2102
     99  CA        29.7310  -24.8100   11.8140 C.3   183  PRO183      0.1504
    100  C         29.5970  -25.4970   13.1620 C.2   183  PRO183      0.2576
    101  O         28.8800  -26.4840   13.2910 O.2   183  PRO183     -0.2718
    102  CB        28.4320  -24.1010   11.4420 C.3   183  PRO183      0.0282
    103  CG        28.3330  -24.2550    9.9320 C.3   183  PRO183      0.0208
    104  CD        28.9160  -25.6150    9.6470 C.3   183  PRO183      0.0893
    105  N         30.3070  -24.9660   14.1510 N.am  184  VAL184     -0.1966
    106  CA        30.1690  -25.4160   15.5290 C.3   184  VAL184      0.1727
    107  C         29.1470  -24.5040   16.2010 C.2   184  VAL184      0.2617
    108  O         29.3570  -23.2900   16.3220 O.2   184  VAL184     -0.2715
    109  CB        31.5120  -25.4140   16.2670 C.3   184  VAL184      0.0290
    110  CG1       31.3670  -26.0590   17.6430 C.3   184  VAL184      0.0023
    111  CG2       32.5760  -26.1420   15.4560 C.3   184  VAL184      0.0023
    112  N         28.0370  -25.0900   16.6310 N.am  185  SER185     -0.1936
    113  CA        26.8850  -24.3380   17.0910 C.3   185  SER185      0.2055
    114  C         26.7700  -24.2860   18.6120 C.2   185  SER185      0.2643
    115  O         25.9520  -23.5190   19.1180 O.2   185  SER185     -0.2714
    116  CB        25.6080  -24.9460   16.4950 C.3   185  SER185      0.2130
    117  OG        25.6060  -26.3370   16.7540 O.3   185  SER185     -0.2179
    118  N         27.5620  -25.0560   19.3280 N.am  186  PHE186     -0.1973
    119  CA        27.5320  -25.0000   20.7790 C.3   186  PHE186      0.1639
    120  C         28.7640  -25.7020   21.3150 C.2   186  PHE186      0.2290
    121  O         29.2190  -26.6870   20.7350 O.2   186  PHE186     -0.2864
    122  CB        26.2730  -25.6640   21.3460 C.3   186  PHE186      0.0560
    123  CG        26.1540  -25.4740   22.8210 C.ar  186  PHE186     -0.0200
    124  CD1       25.8280  -24.2250   23.3080 C.ar  186  PHE186     -0.0042
    125  CD2       26.4330  -26.4930   23.7240 C.ar  186  PHE186     -0.0042
    126  CE1       25.7540  -23.9940   24.6720 C.ar  186  PHE186     -0.0003
    127  CE2       26.3540  -26.2600   25.1060 C.ar  186  PHE186     -0.0003
    128  CZ        25.9980  -25.0130   25.5390 C.ar  186  PHE186     -0.0000
    129  N         26.5370  -28.3890   13.0670 N.3   201  LEU201     -0.1245
    130  CA        25.2820  -28.2970   12.3140 C.3   201  LEU201      0.1561
    131  C         25.1440  -29.3950   11.2610 C.2   201  LEU201      0.2260
    132  O         24.6960  -29.1570   10.1340 O.2   201  LEU201     -0.2867
    133  CB        25.1240  -26.9070   11.7200 C.3   201  LEU201      0.0270
    134  CG        24.9130  -25.7930   12.7580 C.3   201  LEU201      0.0019
    135  CD1       24.6640  -24.4860   12.0460 C.3   201  LEU201      0.0001
    136  CD2       23.7820  -26.1300   13.7160 C.3   201  LEU201      0.0001
    137  N         20.5560  -26.0990   11.7620 N.3   226  LYS226     -0.1231
    138  CA        20.3850  -24.6510   11.6640 C.3   226  LYS226      0.1693
    139  C         20.6700  -23.8790   12.9410 C.2   226  LYS226      0.2592
    140  O         21.3020  -22.8190   12.8690 O.2   226  LYS226     -0.2718
    141  CB        18.9240  -24.3670   11.2460 C.3   226  LYS226      0.0285
    142  CG        18.6230  -22.8900   11.1020 C.3   226  LYS226      0.0035
    143  CD        17.3000  -22.6520   10.3980 C.3   226  LYS226      0.0206
    144  CE        16.9420  -21.1770   10.4050 C.3   226  LYS226      0.1093
    145  NZ        15.5210  -20.9590   10.0080 N.3   226  LYS226     -0.1314
    146  N         20.2150  -24.3460   14.0990 N.am  227  TYR227     -0.1962
    147  CA        20.2000  -23.5320   15.3100 C.3   227  TYR227      0.1771
    148  C         21.2840  -23.8990   16.3170 C.2   227  TYR227      0.2619
    149  O         21.7640  -25.0230   16.3810 O.2   227  TYR227     -0.2715
    150  CB        18.8310  -23.6250   15.9910 C.3   227  TYR227      0.0574
    151  CG        17.7180  -22.9710   15.2140 C.ar  227  TYR227     -0.0198
    152  CD1       17.5560  -21.5960   15.2370 C.ar  227  TYR227     -0.0009
    153  CD2       16.8410  -23.7290   14.4560 C.ar  227  TYR227     -0.0009
    154  CE1       16.5580  -20.9810   14.5280 C.ar  227  TYR227      0.0417
    155  CE2       15.8330  -23.1200   13.7330 C.ar  227  TYR227      0.0417
    156  CZ        15.6920  -21.7510   13.7860 C.ar  227  TYR227      0.1957
    157  OH        14.6910  -21.1280   13.0700 O.3   227  TYR227     -0.2866
    158  N         21.6960  -22.8880   17.0900 N.am  228  CYS228     -0.1968
    159  CA        22.6610  -23.0720   18.1740 C.3   228  CYS228      0.1712
    160  C         21.8910  -23.4860   19.4180 C.2   228  CYS228      0.2296
    161  O         21.3740  -22.6600   20.1790 O.2   228  CYS228     -0.2864
    162  CB        23.4530  -21.7950   18.3880 C.3   228  CYS228      0.0983
    163  SG        24.4370  -21.3480   16.9470 S.3   228  CYS228     -0.0798
    164  N         21.3660  -25.3560   23.0050 N.3   230  PHE230     -0.1241
    165  CA        22.1170  -25.6430   24.2190 C.3   230  PHE230      0.1605
    166  C         22.0340  -27.1180   24.5830 C.2   230  PHE230      0.2264
    167  O         20.9480  -27.7040   24.5700 O.2   230  PHE230     -0.2867
    168  CB        21.5330  -24.8650   25.4020 C.3   230  PHE230      0.0534
    169  CG        21.7290  -23.3920   25.3300 C.ar  230  PHE230     -0.0203
    170  CD1       20.8290  -22.6050   24.6420 C.ar  230  PHE230     -0.0042
    171  CD2       22.7870  -22.7890   25.9780 C.ar  230  PHE230     -0.0042
    172  CE1       20.9820  -21.2640   24.5650 C.ar  230  PHE230     -0.0003
    173  CE2       22.9450  -21.4390   25.9270 C.ar  230  PHE230     -0.0003
    174  CZ        22.0530  -20.6630   25.2140 C.ar  230  PHE230     -0.0000
    175  N         15.1910  -25.0910   21.5300 N.3   272  ILE272     -0.1245
    176  CA        16.4290  -24.3310   21.3900 C.3   272  ILE272      0.1561
    177  C         17.3010  -24.4150   22.6200 C.2   272  ILE272      0.2260
    178  O         18.5170  -24.2480   22.5160 O.2   272  ILE272     -0.2867
    179  CB        16.0660  -22.8760   21.0470 C.3   272  ILE272      0.0252
    180  CG1       17.2850  -22.0720   20.5960 C.3   272  ILE272      0.0019
    181  CG2       15.4040  -22.1880   22.2230 C.3   272  ILE272      0.0019
    182  CD1       17.8410  -22.4810   19.2710 C.3   272  ILE272      0.0001
    183  N         10.9390  -22.3860   20.2140 N.3   288  LEU288     -0.1245
    184  CA        10.9010  -21.2230   19.3380 C.3   288  LEU288      0.1561
    185  C          9.4550  -20.7640   19.1200 C.2   288  LEU288      0.2260
    186  O          8.5300  -21.1950   19.8040 O.2   288  LEU288     -0.2867
    187  CB        11.6920  -21.4910   18.0590 C.3   288  LEU288      0.0270
    188  CG        13.1930  -21.7630   18.2270 C.3   288  LEU288      0.0019
    189  CD1       13.8970  -21.8890   16.8730 C.3   288  LEU288      0.0001
    190  CD2       13.8630  -20.6510   19.0490 C.3   288  LEU288      0.0001
@<TRIPOS>BOND
     1    97    96    1
     2    96    94   ar
     3    96    95   ar
     4    94    92   ar
     5    95    93   ar
     6    92    91   ar
     7   104   103    1
     8   104    98    1
     9   103   102    1
    10   145   144    1
    11   132   131    2
    12   143   144    1
    13   143   142    1
    14    93    91   ar
    15    89    88    2
    16    91    90    1
    17    98    99    1
    18   142   141    1
    19   141   138    1
    20   131   130    1
    21   102    99    1
    22   138   137    1
    23   138   139    1
    24    88    87    1
    25   133   130    1
    26   133   134    1
    27    99   100    1
    28   135   134    1
    29    90    87    1
    30    67    66    1
    31    67    61    1
    32   130   129    1
    33    87    86    1
    34   134   136    1
    35    66    65    1
    36   140   139    2
    37   139   146   am
    38   157   156    1
    39   100   101    2
    40   100   105   am
    41    61    62    1
    42   155   156   ar
    43   155   153   ar
    44    59    57   ar
    45    59    60   ar
    46   156   154   ar
    47    57    55   ar
    48    53    52    2
    49   146   147    1
    50   105   106    1
    51    65    62    1
    52   153   151   ar
    53   154   152   ar
    54    62    63    1
    55    60    58   ar
    56    55    54    1
    57    55    56   ar
    58    54    51    1
    59    52    51    1
    60   151   152   ar
    61   151   150    1
    62    64    63    2
    63   147   150    1
    64   147   148    1
    65   111   109    1
    66   106   107    1
    67   106   109    1
    68    63    68   am
    69    51    50    1
    70    58    56   ar
    71   107   108    2
    72   107   112   am
    73   109   110    1
    74   148   149    2
    75   148   158   am
    76   116   117    1
    77   116   113    1
    78   112   113    1
    79    68    69    1
    80   189   188    1
    81   163   162    1
    82   158   159    1
    83   113   114    1
    84    69    70    1
    85    69    72    1
    86   187   188    1
    87   187   184    1
    88    79    80    1
    89    79    76    1
    90   159   162    1
    91   159   160    1
    92   188   190    1
    93    74    72    1
    94    75    70   am
    95    75    76    1
    96    70    71    2
    97   114   115    2
    98   114   118   am
    99    43    41   ar
   100    43    42   ar
   101    41    39   ar
   102    76    77    1
   103    72    73    1
   104   185   184    1
   105   185   186    2
   106    42    40   ar
   107    39    38   ar
   108   182   180    1
   109   118   119    1
   110   184   183    1
   111   160   161    2
   112    40    38   ar
   113    38    37    1
   114    37    34    1
   115    18    15    1
   116    77    78    2
   117    77    81   am
   118   180   179    1
   119    24    23    1
   120   121   120    2
   121   119   120    1
   122   119   122    1
   123   179   176    1
   124   179   181    1
   125    17    16    2
   126    81    82    1
   127    34    33    1
   128    34    35    1
   129   122   123    1
   130   176   175    1
   131   176   177    1
   132    15    16    1
   133    15    14    1
   134    23    20    1
   135     4     3    2
   136    35    36    2
   137    35    44   am
   138   178   177    2
   139    84    83    2
   140    82    85    1
   141    82    83    1
   142    49    48    1
   143   123   124   ar
   144   123   125   ar
   145     1     2    1
   146    20    19    1
   147    20    21    1
   148   164   165    1
   149    44    45    1
   150    12     9    1
   151    12    13    1
   152   124   126   ar
   153     3     2    1
   154     3     8   am
   155     9     8    1
   156     9    10    1
   157    48    45    1
   158   125   127   ar
   159    22    21    2
   160     2     5    1
   161    11    10    2
   162    21    25   am
   163    45    46    1
   164   165   166    1
   165   165   168    1
   166   172   170   ar
   167   172   174   ar
   168   167   166    2
   169   170   169   ar
   170   126   128   ar
   171     5     7    1
   172     5     6    1
   173   127   128   ar
   174    47    46    2
   175    25    26    1
   176   174   173   ar
   177   169   168    1
   178   169   171   ar
   179    29    26    1
   180    29    30    1
   181   173   171   ar
   182    26    27    1
   183    32    30   ar
   184    30    31   ar
   185    27    28    2
