@<TRIPOS>MOLECULE
tmp/6e1zB00.pdb
 127 122 0 0 0
SMALL
GASTEIGER

@<TRIPOS>ATOM
      1  N        -11.1950  -16.7400  -23.8260 N.3    19  VAL19      -0.1231
      2  CA       -12.0980  -16.7780  -24.9630 C.3    19  VAL19       0.1692
      3  C        -13.4870  -17.1010  -24.4320 C.2    19  VAL19       0.2592
      4  O        -13.6400  -17.8080  -23.4210 O.2    19  VAL19      -0.2718
      5  CB       -11.5980  -17.8170  -25.9850 C.3    19  VAL19       0.0266
      6  CG1      -12.4670  -17.8270  -27.2250 C.3    19  VAL19       0.0020
      7  CG2      -10.1650  -17.5120  -26.3840 C.3    19  VAL19       0.0020
      8  N        -14.5080  -16.5330  -25.0800 N.am   20  SER20      -0.1952
      9  CA       -15.8870  -16.7760  -24.6830 C.3    20  SER20       0.1924
     10  C        -16.7100  -17.5560  -25.7000 C.2    20  SER20       0.2314
     11  O        -17.6250  -18.2760  -25.3020 O.2    20  SER20      -0.2863
     12  CB       -16.5940  -15.4520  -24.3550 C.3    20  SER20       0.2116
     13  OG       -16.4510  -14.5550  -25.4330 O.3    20  SER20      -0.2180
     14  N        -19.1910  -11.7390  -24.5720 N.3    62  SER62      -0.1202
     15  CA       -19.5660  -13.1060  -24.2510 C.3    62  SER62       0.2020
     16  C        -19.9240  -13.9590  -25.4590 C.2    62  SER62       0.2618
     17  O        -19.8530  -15.1860  -25.3590 O.2    62  SER62      -0.2717
     18  CB       -20.7560  -13.1190  -23.3020 C.3    62  SER62       0.2103
     19  OG       -20.3880  -12.6280  -22.0370 O.3    62  SER62      -0.2182
     20  N        -20.3440  -13.3630  -26.5750 N.am   63  ASP63      -0.1973
     21  CA       -20.8300  -14.1710  -27.6810 C.3    63  ASP63       0.1709
     22  C        -20.7460  -13.3650  -28.9620 C.2    63  ASP63       0.2293
     23  O        -20.7890  -12.1400  -28.9390 O.2    63  ASP63      -0.2864
     24  CB       -22.2910  -14.5170  -27.3820 C.3    63  ASP63       0.1436
     25  CG       -22.8090  -15.7040  -28.1350 C.2    63  ASP63       0.3671
     26  OD1      -22.0330  -16.4210  -28.8150 O.co2  63  ASP63      -0.2456
     27  OD2      -24.0430  -15.9290  -28.0050 O.co2  63  ASP63      -0.2456
     28  N        -25.4210  -11.4080  -22.7880 N.3   104  PHE104     -0.1227
     29  CA       -24.6960  -12.6560  -22.7070 C.3   104  PHE104      0.1736
     30  C        -24.7490  -13.4960  -23.9700 C.2   104  PHE104      0.2595
     31  O        -23.8070  -14.2630  -24.2140 O.2   104  PHE104     -0.2718
     32  CB       -25.2360  -13.5080  -21.5640 C.3   104  PHE104      0.0547
     33  CG       -24.3930  -14.6820  -21.3070 C.ar  104  PHE104     -0.0202
     34  CD1      -23.1020  -14.5340  -20.8150 C.ar  104  PHE104     -0.0042
     35  CD2      -24.8660  -15.9390  -21.6130 C.ar  104  PHE104     -0.0042
     36  CE1      -22.3100  -15.6510  -20.6040 C.ar  104  PHE104     -0.0003
     37  CE2      -24.1050  -17.0500  -21.4140 C.ar  104  PHE104     -0.0003
     38  CZ       -22.8180  -16.9180  -20.9050 C.ar  104  PHE104     -0.0000
     39  N        -25.8130  -13.3830  -24.7660 N.am  105  CYS105     -0.1970
     40  CA       -26.0090  -14.2970  -25.8810 C.3   105  CYS105      0.1712
     41  C        -26.7350  -13.5840  -27.0040 C.2   105  CYS105      0.2296
     42  O        -27.5150  -12.6530  -26.7740 O.2   105  CYS105     -0.2864
     43  CB       -26.7850  -15.5500  -25.4450 C.3   105  CYS105      0.0983
     44  SG       -28.2950  -15.2280  -24.4760 S.3   105  CYS105     -0.0798
     45  N        -29.1760  -17.3570  -20.4680 N.3   146  SER146     -0.1217
     46  CA       -27.9310  -17.9980  -20.8540 C.3   146  SER146      0.1889
     47  C        -27.8140  -18.2810  -22.3510 C.2   146  SER146      0.2288
     48  O        -26.6820  -18.4130  -22.8410 O.2   146  SER146     -0.2866
     49  CB       -27.7720  -19.2930  -20.0630 C.3   146  SER146      0.2089
     50  OG       -28.9190  -20.1000  -20.2380 O.3   146  SER146     -0.2183
     51  N        -30.6180  -19.4300  -15.9730 N.3   162  TYR162     -0.1241
     52  CA       -30.2810  -19.9460  -14.6570 C.3   162  TYR162      0.1605
     53  C        -31.5040  -20.1380  -13.7730 C.2   162  TYR162      0.2264
     54  O        -31.3860  -20.8090  -12.7380 O.2   162  TYR162     -0.2867
     55  CB       -29.3040  -18.9950  -13.9570 C.3   162  TYR162      0.0534
     56  CG       -27.9430  -18.8600  -14.6110 C.ar  162  TYR162     -0.0201
     57  CD1      -27.7600  -18.0260  -15.7050 C.ar  162  TYR162     -0.0009
     58  CD2      -26.8350  -19.5490  -14.1190 C.ar  162  TYR162     -0.0009
     59  CE1      -26.5200  -17.8860  -16.3040 C.ar  162  TYR162      0.0417
     60  CE2      -25.5870  -19.4140  -14.7150 C.ar  162  TYR162      0.0417
     61  CZ       -25.4380  -18.5790  -15.8040 C.ar  162  TYR162      0.1957
     62  OH       -24.2020  -18.4390  -16.3980 O.3   162  TYR162     -0.2866
     63  N        -27.3660  -23.5770  -21.4910 N.3   190  PHE190     -0.1241
     64  CA       -27.2870  -23.4560  -22.9360 C.3   190  PHE190      0.1605
     65  C        -28.4920  -24.1650  -23.5430 C.2   190  PHE190      0.2264
     66  O        -28.9360  -25.1880  -23.0130 O.2   190  PHE190     -0.2867
     67  CB       -25.9980  -24.0790  -23.4870 C.3   190  PHE190      0.0534
     68  CG       -25.8920  -23.9170  -24.9510 C.ar  190  PHE190     -0.0203
     69  CD1      -25.6000  -22.6630  -25.4750 C.ar  190  PHE190     -0.0042
     70  CD2      -26.1700  -24.9660  -25.8110 C.ar  190  PHE190     -0.0042
     71  CE1      -25.5720  -22.4530  -26.8260 C.ar  190  PHE190     -0.0003
     72  CE2      -26.1470  -24.7640  -27.1980 C.ar  190  PHE190     -0.0003
     73  CZ       -25.8480  -23.4990  -27.6950 C.ar  190  PHE190     -0.0000
     74  N        -20.5360  -24.8900  -13.7500 N.3   230  LYS230     -0.1231
     75  CA       -20.3450  -23.4630  -13.5310 C.3   230  LYS230      0.1693
     76  C        -20.5980  -22.5990  -14.7620 C.2   230  LYS230      0.2592
     77  O        -21.2740  -21.5710  -14.6790 O.2   230  LYS230     -0.2718
     78  CB       -18.9240  -23.2160  -13.0350 C.3   230  LYS230      0.0285
     79  CG       -18.5760  -21.7600  -12.8140 C.3   230  LYS230      0.0035
     80  CD       -17.3050  -21.6190  -12.0030 C.3   230  LYS230      0.0206
     81  CE       -16.8700  -20.1690  -11.8930 C.3   230  LYS230      0.1093
     82  NZ       -15.5100  -20.0460  -11.3020 N.3   230  LYS230     -0.1314
     83  N        -20.0540  -22.9840  -15.9010 N.am  231  TYR231     -0.1962
     84  CA       -20.0120  -22.1070  -17.0590 C.3   231  TYR231      0.1771
     85  C        -21.0920  -22.4450  -18.0780 C.2   231  TYR231      0.2619
     86  O        -21.5570  -23.5720  -18.1800 O.2   231  TYR231     -0.2715
     87  CB       -18.6390  -22.2000  -17.7180 C.3   231  TYR231      0.0574
     88  CG       -17.5530  -21.7020  -16.8200 C.ar  231  TYR231     -0.0198
     89  CD1      -17.3410  -20.3480  -16.6570 C.ar  231  TYR231     -0.0009
     90  CD2      -16.7600  -22.5860  -16.1090 C.ar  231  TYR231     -0.0009
     91  CE1      -16.3680  -19.8790  -15.8080 C.ar  231  TYR231      0.0417
     92  CE2      -15.7810  -22.1330  -15.2600 C.ar  231  TYR231      0.0417
     93  CZ       -15.5770  -20.7750  -15.1210 C.ar  231  TYR231      0.1957
     94  OH       -14.6010  -20.3080  -14.2710 O.3   231  TYR231     -0.2866
     95  N        -21.4730  -21.4430  -18.8630 N.am  232  CYS232     -0.1968
     96  CA       -22.4100  -21.6540  -19.9640 C.3   232  CYS232      0.1712
     97  C        -21.6280  -22.1410  -21.1800 C.2   232  CYS232      0.2296
     98  O        -21.3150  -21.3810  -22.0830 O.2   232  CYS232     -0.2864
     99  CB       -23.1850  -20.3730  -20.2390 C.3   232  CYS232      0.0983
    100  SG       -24.3310  -19.9300  -18.8680 S.3   232  CYS232     -0.0798
    101  N        -21.2100  -24.0580  -24.6320 N.3   234  PHE234     -0.1241
    102  CA       -22.0060  -24.3670  -25.8130 C.3   234  PHE234      0.1605
    103  C        -22.0370  -25.8800  -26.0720 C.2   234  PHE234      0.2264
    104  O        -21.1420  -26.6320  -25.6720 O.2   234  PHE234     -0.2867
    105  CB       -21.3900  -23.6980  -27.0640 C.3   234  PHE234      0.0534
    106  CG       -21.4700  -22.1630  -27.1040 C.ar  234  PHE234     -0.0203
    107  CD1      -20.4700  -21.3890  -26.5290 C.ar  234  PHE234     -0.0042
    108  CD2      -22.5060  -21.5140  -27.7520 C.ar  234  PHE234     -0.0042
    109  CE1      -20.5420  -19.9950  -26.5890 C.ar  234  PHE234     -0.0003
    110  CE2      -22.5460  -20.1270  -27.7770 C.ar  234  PHE234     -0.0003
    111  CZ       -21.5490  -19.3850  -27.2000 C.ar  234  PHE234     -0.0000
    112  N        -14.7200  -23.7020  -22.9930 N.3   276  ILE276     -0.1245
    113  CA       -15.9510  -22.9450  -22.8460 C.3   276  ILE276      0.1561
    114  C        -16.8040  -22.9770  -24.0900 C.2   276  ILE276      0.2260
    115  O        -18.0070  -22.7740  -23.9840 O.2   276  ILE276     -0.2867
    116  CB       -15.5370  -21.5040  -22.4820 C.3   276  ILE276      0.0252
    117  CG1      -16.7240  -20.6650  -22.0470 C.3   276  ILE276      0.0019
    118  CG2      -14.8090  -20.7890  -23.6400 C.3   276  ILE276      0.0019
    119  CD1      -17.2230  -21.0630  -20.7160 C.3   276  ILE276      0.0001
    120  N        -10.6160  -20.9890  -21.3950 N.3   292  LEU292     -0.1245
    121  CA       -10.5700  -19.8910  -20.4400 C.3   292  LEU292      0.1561
    122  C         -9.1300  -19.4270  -20.2040 C.2   292  LEU292      0.2260
    123  O         -8.1800  -19.8500  -20.8690 O.2   292  LEU292     -0.2867
    124  CB       -11.3210  -20.2690  -19.1620 C.3   292  LEU292      0.0270
    125  CG       -12.8170  -20.5240  -19.3950 C.3   292  LEU292      0.0019
    126  CD1      -13.5150  -20.7210  -18.0450 C.3   292  LEU292      0.0001
    127  CD2      -13.5010  -19.4140  -20.1720 C.3   292  LEU292      0.0001
@<TRIPOS>BOND
     1    22    23    2
     2    22    21    1
     3    26    25   ar
     4    25    27   ar
     5    25    24    1
     6   110   108   ar
     7   110   111   ar
     8   108   106   ar
     9    73    72   ar
    10    73    71   ar
    11    21    24    1
    12    21    20    1
    13     6     5    1
    14   111   109   ar
    15    72    70   ar
    16   106   105    1
    17   106   107   ar
    18   105   102    1
    19    41    42    2
    20    41    40    1
    21    71    69   ar
    22   109   107   ar
    23    20    16   am
    24     7     5    1
    25   103   102    1
    26   103   104    2
    27     5     2    1
    28    40    43    1
    29    40    39    1
    30   102   101    1
    31    70    68   ar
    32    10    11    2
    33    10     9    1
    34    69    68   ar
    35    16    17    2
    36    16    15    1
    37    43    44    1
    38    13    12    1
    39     8     9    1
    40     8     3   am
    41     2     3    1
    42     2     1    1
    43    68    67    1
    44    39    30   am
    45     9    12    1
    46    14    15    1
    47     3     4    2
    48    15    18    1
    49    31    30    2
    50   114   115    2
    51   114   113    1
    52    30    29    1
    53   118   116    1
    54    65    66    2
    55    65    64    1
    56    67    64    1
    57    18    19    1
    58   112   113    1
    59    64    63    1
    60   113   116    1
    61    48    47    2
    62    28    29    1
    63    29    32    1
    64   116   117    1
    65    47    46    1
    66    98    97    2
    67   117   119    1
    68    35    37   ar
    69    35    33   ar
    70    32    33    1
    71    37    38   ar
    72   120   121    1
    73    33    34   ar
    74    97    96    1
    75    38    36   ar
    76   123   122    2
    77    46    45    1
    78    46    49    1
    79    34    36   ar
    80   121   122    1
    81   121   124    1
    82    99    96    1
    83    99   100    1
    84    50    49    1
    85   127   125    1
    86    96    95    1
    87   125   124    1
    88   125   126    1
    89    95    85   am
    90    86    85    2
    91    85    84    1
    92    87    84    1
    93    87    88    1
    94    84    83    1
    95    88    89   ar
    96    88    90   ar
    97    89    91   ar
    98    62    61    1
    99    59    61   ar
   100    59    57   ar
   101    90    92   ar
   102    51    52    1
   103    83    76   am
   104    91    93   ar
   105    61    60   ar
   106    57    56   ar
   107    92    93   ar
   108    93    94    1
   109    76    77    2
   110    76    75    1
   111    60    58   ar
   112    52    55    1
   113    52    53    1
   114    56    58   ar
   115    56    55    1
   116    53    54    2
   117    74    75    1
   118    75    78    1
   119    78    79    1
   120    79    80    1
   121    80    81    1
   122    81    82    1
