@<TRIPOS>MOLECULE
tmp/6e22B00.pdb
 158 154 0 0 0
SMALL
GASTEIGER

@<TRIPOS>ATOM
      1  N         14.7170  -16.7080   25.2400 N.3    19  SER19      -0.1217
      2  CA        16.0920  -16.9080   24.8040 C.3    19  SER19       0.1889
      3  C         16.9320  -17.7010   25.7920 C.2    19  SER19       0.2288
      4  O         17.7890  -18.4750   25.3590 O.2    19  SER19      -0.2866
      5  CB        16.7860  -15.5630   24.5410 C.3    19  SER19       0.2089
      6  OG        16.7290  -14.6990   25.6700 O.3    19  SER19      -0.2183
      7  N         16.9300   -9.5440   24.2760 N.3    60  ILE60      -0.1231
      8  CA        17.9520  -10.1130   25.1480 C.3    60  ILE60       0.1692
      9  C         18.1860  -11.5540   24.7180 C.2    60  ILE60       0.2593
     10  O         17.2270  -12.3090   24.5370 O.2    60  ILE60      -0.2718
     11  CB        17.5150  -10.0490   26.6190 C.3    60  ILE60       0.0266
     12  CG1       17.1370   -8.6200   26.9960 C.3    60  ILE60       0.0019
     13  CG2       18.6280  -10.6080   27.5350 C.3    60  ILE60       0.0020
     14  CD1       16.4700   -8.5180   28.3660 C.3    60  ILE60       0.0001
     15  N         19.4560  -11.9500   24.5900 N.am   61  SER61      -0.1938
     16  CA        19.7680  -13.3180   24.1990 C.3    61  SER61       0.2055
     17  C         20.3110  -14.1750   25.3340 C.2    61  SER61       0.2643
     18  O         20.4200  -15.3920   25.1580 O.2    61  SER61      -0.2714
     19  CB        20.7750  -13.3490   23.0340 C.3    61  SER61       0.2130
     20  OG        20.2600  -12.6620   21.8950 O.3    61  SER61      -0.2179
     21  N         20.6340  -13.5920   26.4880 N.am   62  ASP62      -0.1971
     22  CA        21.1830  -14.3940   27.5730 C.3    62  ASP62       0.1709
     23  C         21.0580  -13.6100   28.8700 C.2    62  ASP62       0.2293
     24  O         20.9890  -12.3810   28.8690 O.2    62  ASP62      -0.2864
     25  CB        22.6440  -14.7620   27.2970 C.3    62  ASP62       0.1436
     26  CG        23.1250  -15.9590   28.1010 C.2    62  ASP62       0.3671
     27  OD1       22.3170  -16.6020   28.8140 O.co2  62  ASP62      -0.2456
     28  OD2       24.3360  -16.2560   28.0020 O.co2  62  ASP62      -0.2456
     29  N         25.6900  -11.5580   22.9230 N.3   103  PHE103     -0.1227
     30  CA        24.9530  -12.7980   22.7550 C.3   103  PHE103      0.1736
     31  C         24.9990  -13.7020   23.9680 C.2   103  PHE103      0.2595
     32  O         24.0490  -14.4480   24.1940 O.2   103  PHE103     -0.2718
     33  CB        25.4910  -13.5620   21.5340 C.3   103  PHE103      0.0547
     34  CG        24.6730  -14.7730   21.1570 C.ar  103  PHE103     -0.0202
     35  CD1       23.4140  -14.6240   20.5780 C.ar  103  PHE103     -0.0042
     36  CD2       25.1670  -16.0480   21.3610 C.ar  103  PHE103     -0.0042
     37  CE1       22.6600  -15.7340   20.2370 C.ar  103  PHE103     -0.0003
     38  CE2       24.4240  -17.1620   21.0160 C.ar  103  PHE103     -0.0003
     39  CZ        23.1620  -16.9960   20.4380 C.ar  103  PHE103     -0.0000
     40  N         26.0730  -13.6560   24.7560 N.am  104  CYS104     -0.1970
     41  CA        26.2390  -14.5990   25.8510 C.3   104  CYS104      0.1712
     42  C         26.9600  -13.9000   26.9930 C.2   104  CYS104      0.2296
     43  O         27.7380  -12.9710   26.7690 O.2   104  CYS104     -0.2864
     44  CB        27.0220  -15.8430   25.3880 C.3   104  CYS104      0.0983
     45  SG        28.5260  -15.4650   24.4540 S.3   104  CYS104     -0.0798
     46  N         28.4410  -10.7490   18.6430 N.3   119  PHE119     -0.1241
     47  CA        28.5190  -10.8790   17.1960 C.3   119  PHE119      0.1605
     48  C         29.7000  -10.1140   16.6110 C.2   119  PHE119      0.2264
     49  O         30.0670  -10.3640   15.4590 O.2   119  PHE119     -0.2867
     50  CB        27.2060  -10.4050   16.5710 C.3   119  PHE119      0.0534
     51  CG        26.1490  -11.4690   16.5250 C.ar  119  PHE119     -0.0203
     52  CD1       25.5310  -11.9100   17.6890 C.ar  119  PHE119     -0.0042
     53  CD2       25.7850  -12.0410   15.3160 C.ar  119  PHE119     -0.0042
     54  CE1       24.5600  -12.8940   17.6470 C.ar  119  PHE119     -0.0003
     55  CE2       24.8230  -13.0330   15.2700 C.ar  119  PHE119     -0.0003
     56  CZ        24.2070  -13.4590   16.4420 C.ar  119  PHE119     -0.0000
     57  N         30.7520  -14.7810   15.0180 N.3   143  PRO143     -0.2102
     58  CA        30.0620  -14.4920   16.2820 C.3   143  PRO143      0.1504
     59  C         30.3770  -15.5270   17.3620 C.2   143  PRO143      0.2576
     60  O         30.5410  -16.7180   17.0840 O.2   143  PRO143     -0.2718
     61  CB        28.5780  -14.5070   15.8890 C.3   143  PRO143      0.0282
     62  CG        28.5890  -13.9960   14.4740 C.3   143  PRO143      0.0208
     63  CD        29.8320  -14.6390   13.8590 C.3   143  PRO143      0.0893
     64  N         30.4640  -15.0410   18.5970 N.am  144  VAL144     -0.1966
     65  CA        30.7610  -15.8650   19.7700 C.3   144  VAL144      0.1727
     66  C         29.4540  -16.3940   20.3370 C.2   144  VAL144      0.2617
     67  O         28.5750  -15.6130   20.7210 O.2   144  VAL144     -0.2715
     68  CB        31.5180  -15.0610   20.8390 C.3   144  VAL144      0.0290
     69  CG1       31.7920  -15.9290   22.0620 C.3   144  VAL144      0.0023
     70  CG2       32.8170  -14.4760   20.2650 C.3   144  VAL144      0.0023
     71  N         29.3430  -17.7190   20.4320 N.am  145  SER145     -0.1936
     72  CA        28.0870  -18.3480   20.8270 C.3   145  SER145      0.2055
     73  C         27.9620  -18.6020   22.3230 C.2   145  SER145      0.2642
     74  O         26.8320  -18.6960   22.8180 O.2   145  SER145     -0.2714
     75  CB        27.9010  -19.6700   20.0710 C.3   145  SER145      0.2130
     76  OG        29.0540  -20.4890   20.1950 O.3   145  SER145     -0.2179
     77  N         29.0730  -18.7140   23.0570 N.am  146  ALA146     -0.1977
     78  CA        28.9920  -18.9920   24.4850 C.3   146  ALA146      0.1597
     79  C         30.2960  -18.5890   25.1570 C.2   146  ALA146      0.2287
     80  O         31.3610  -18.6370   24.5400 O.2   146  ALA146     -0.2864
     81  CB        28.6960  -20.4740   24.7460 C.3   146  ALA146      0.0319
     82  N         30.9270  -19.5150   15.8850 N.3   161  TYR161     -0.1241
     83  CA        30.6010  -19.9820   14.5460 C.3   161  TYR161      0.1605
     84  C         31.8270  -20.1690   13.6670 C.2   161  TYR161      0.2264
     85  O         31.7000  -20.7760   12.5920 O.2   161  TYR161     -0.2867
     86  CB        29.6140  -19.0160   13.8900 C.3   161  TYR161      0.0534
     87  CG        28.1860  -19.3710   14.1950 C.ar  161  TYR161     -0.0201
     88  CD1       27.7250  -19.3880   15.5140 C.ar  161  TYR161     -0.0009
     89  CD2       27.3060  -19.7270   13.1840 C.ar  161  TYR161     -0.0009
     90  CE1       26.4300  -19.7270   15.8090 C.ar  161  TYR161      0.0417
     91  CE2       25.9960  -20.0650   13.4770 C.ar  161  TYR161      0.0417
     92  CZ        25.5690  -20.0670   14.7910 C.ar  161  TYR161      0.1957
     93  OH        24.2690  -20.4090   15.1020 O.3   161  TYR161     -0.2866
     94  N         27.5850  -23.9000   21.4840 N.3   185  PHE185     -0.1241
     95  CA        27.4830  -23.7730   22.9290 C.3   185  PHE185      0.1605
     96  C         28.6670  -24.4800   23.5630 C.2   185  PHE185      0.2264
     97  O         29.0960  -25.5200   23.0680 O.2   185  PHE185     -0.2867
     98  CB        26.1830  -24.3770   23.4760 C.3   185  PHE185      0.0534
     99  CG        25.9920  -24.0940   24.9280 C.ar  185  PHE185     -0.0203
    100  CD1       25.7260  -22.8000   25.3510 C.ar  185  PHE185     -0.0042
    101  CD2       26.1450  -25.0930   25.8750 C.ar  185  PHE185     -0.0042
    102  CE1       25.5820  -22.5120   26.6910 C.ar  185  PHE185     -0.0003
    103  CE2       26.0060  -24.8110   27.2380 C.ar  185  PHE185     -0.0003
    104  CZ        25.7220  -23.5300   27.6430 C.ar  185  PHE185     -0.0000
    105  N         20.7690  -25.3220   13.7080 N.3   225  LYS225     -0.1231
    106  CA        20.4860  -23.9130   13.4440 C.3   225  LYS225      0.1693
    107  C         20.7030  -22.9940   14.6380 C.2   225  LYS225      0.2592
    108  O         21.1890  -21.8770   14.4520 O.2   225  LYS225     -0.2718
    109  CB        19.0370  -23.7270   12.9450 C.3   225  LYS225      0.0285
    110  CG        18.7180  -22.2550   12.6930 C.3   225  LYS225      0.0035
    111  CD        17.4050  -22.0340   11.9610 C.3   225  LYS225      0.0206
    112  CE        17.0720  -20.5450   11.9370 C.3   225  LYS225      0.1093
    113  NZ        15.8180  -20.2550   11.1920 N.3   225  LYS225     -0.1314
    114  N         20.3520  -23.4210   15.8500 N.am  226  TYR226     -0.1962
    115  CA        20.2930  -22.5090   16.9790 C.3   226  TYR226      0.1771
    116  C         21.3610  -22.8380   18.0110 C.2   226  TYR226      0.2619
    117  O         21.8250  -23.9750   18.1290 O.2   226  TYR226     -0.2715
    118  CB        18.9080  -22.5390   17.6420 C.3   226  TYR226      0.0574
    119  CG        17.8180  -21.9940   16.7570 C.ar  226  TYR226     -0.0198
    120  CD1       17.6130  -20.6270   16.6470 C.ar  226  TYR226     -0.0009
    121  CD2       17.0140  -22.8460   16.0080 C.ar  226  TYR226     -0.0009
    122  CE1       16.6200  -20.1180   15.8230 C.ar  226  TYR226      0.0417
    123  CE2       16.0230  -22.3490   15.1890 C.ar  226  TYR226      0.0417
    124  CZ        15.8290  -20.9840   15.1050 C.ar  226  TYR226      0.1957
    125  OH        14.8390  -20.4800   14.2850 O.3   226  TYR226     -0.2866
    126  N         21.7260  -21.8180   18.7790 N.am  227  CYS227     -0.1968
    127  CA        22.6380  -21.9830   19.9080 C.3   227  CYS227      0.1712
    128  C         21.8090  -22.3730   21.1250 C.2   227  CYS227      0.2296
    129  O         21.2950  -21.5250   21.8650 O.2   227  CYS227     -0.2864
    130  CB        23.4370  -20.7110   20.1280 C.3   227  CYS227      0.0983
    131  SG        24.5060  -20.3330   18.6940 S.3   227  CYS227     -0.0798
    132  N         21.2440  -24.1240   24.7380 N.3   229  PHE229     -0.1241
    133  CA        21.9530  -24.3960   25.9860 C.3   229  PHE229      0.1605
    134  C         21.9470  -25.8910   26.3080 C.2   229  PHE229      0.2264
    135  O         21.0120  -26.6230   25.9700 O.2   229  PHE229     -0.2867
    136  CB        21.3110  -23.6230   27.1410 C.3   229  PHE229      0.0534
    137  CG        21.4660  -22.1250   27.0440 C.ar  229  PHE229     -0.0203
    138  CD1       20.6200  -21.3770   26.2330 C.ar  229  PHE229     -0.0042
    139  CD2       22.4450  -21.4650   27.7730 C.ar  229  PHE229     -0.0042
    140  CE1       20.7480  -20.0020   26.1410 C.ar  229  PHE229     -0.0003
    141  CE2       22.5920  -20.0850   27.6810 C.ar  229  PHE229     -0.0003
    142  CZ        21.7380  -19.3490   26.8650 C.ar  229  PHE229     -0.0000
    143  N         15.0090  -23.8140   23.0960 N.3   271  ILE271     -0.1245
    144  CA        16.2370  -23.0470   22.9240 C.3   271  ILE271      0.1561
    145  C         17.1100  -23.1260   24.1720 C.2   271  ILE271      0.2260
    146  O         18.3380  -22.9950   24.0880 O.2   271  ILE271     -0.2867
    147  CB        15.8970  -21.5840   22.5630 C.3   271  ILE271      0.0252
    148  CG1       17.1360  -20.7920   22.1420 C.3   271  ILE271      0.0019
    149  CG2       15.2190  -20.8720   23.7380 C.3   271  ILE271      0.0019
    150  CD1       17.7850  -21.3120   20.8980 C.3   271  ILE271      0.0001
    151  N         10.8530  -21.2000   21.4150 N.3   287  LEU287     -0.1245
    152  CA        10.8820  -20.0660   20.4930 C.3   287  LEU287      0.1561
    153  C          9.4560  -19.5660   20.2180 C.2   287  LEU287      0.2260
    154  O          8.4960  -19.9460   20.8930 O.2   287  LEU287     -0.2867
    155  CB        11.6380  -20.4650   19.2280 C.3   287  LEU287      0.0270
    156  CG        13.1320  -20.7610   19.4350 C.3   287  LEU287      0.0019
    157  CD1       13.8620  -20.9320   18.0980 C.3   287  LEU287      0.0001
    158  CD2       13.7880  -19.6720   20.2820 C.3   287  LEU287      0.0001
@<TRIPOS>BOND
     1   113   112    1
     2   112   111    1
     3   111   110    1
     4    85    84    2
     5   110   109    1
     6   109   106    1
     7    89    91   ar
     8    89    87   ar
     9   106   105    1
    10   106   107    1
    11    91    92   ar
    12    84    83    1
    13    63    62    1
    14    63    57    1
    15    86    87    1
    16    86    83    1
    17    87    88   ar
    18   125   124    1
    19   108   107    2
    20    62    61    1
    21    83    82    1
    22   107   114   am
    23    92    93    1
    24    92    90   ar
    25    57    58    1
    26   124   123   ar
    27   124   122   ar
    28   123   121   ar
    29    55    53   ar
    30    55    56   ar
    31    53    51   ar
    32    49    48    2
    33    88    90   ar
    34   122   120   ar
    35   114   115    1
    36    61    58    1
    37   121   119   ar
    38    58    59    1
    39    56    54   ar
    40    51    50    1
    41    51    52   ar
    42    50    47    1
    43    48    47    1
    44   120   119   ar
    45   119   118    1
    46   115   118    1
    47   115   116    1
    48    60    59    2
    49    47    46    1
    50    59    64   am
    51    54    52   ar
    52   116   117    2
    53   116   126   am
    54   157   156    1
    55    64    65    1
    56   131   130    1
    57   126   127    1
    58   155   156    1
    59   155   152    1
    60   156   158    1
    61    65    66    1
    62    65    68    1
    63   127   130    1
    64   127   128    1
    65    75    76    1
    66    75    72    1
    67   153   152    1
    68   153   154    2
    69    37    39   ar
    70    37    35   ar
    71    70    68    1
    72    66    71   am
    73    66    67    2
    74    71    72    1
    75    39    38   ar
    76   152   151    1
    77    35    34   ar
    78    72    73    1
    79    68    69    1
    80   150   148    1
    81    38    36   ar
    82   128   129    2
    83    34    36   ar
    84    34    33    1
    85    94    95    1
    86    33    30    1
    87    20    19    1
    88   148   147    1
    89    73    74    2
    90    73    77   am
    91   147   144    1
    92   147   149    1
    93    30    29    1
    94    30    31    1
    95   144   143    1
    96   144   145    1
    97    95    98    1
    98    95    96    1
    99    19    16    1
   100    77    78    1
   101    97    96    2
   102    98    99    1
   103    31    32    2
   104    31    40   am
   105   146   145    2
   106    16    15    1
   107    16    17    1
   108     7     8    1
   109    45    44    1
   110    78    81    1
   111    78    79    1
   112    10     9    2
   113    80    79    2
   114     5     2    1
   115     5     6    1
   116    15     9   am
   117     9     8    1
   118   132   133    1
   119    40    41    1
   120     2     1    1
   121     2     3    1
   122    99   100   ar
   123    99   101   ar
   124     8    11    1
   125    18    17    2
   126    17    21   am
   127   100   102   ar
   128     4     3    2
   129    44    41    1
   130    41    42    1
   131   101   103   ar
   132   135   134    2
   133   133   134    1
   134   133   136    1
   135   140   138   ar
   136   140   142   ar
   137   138   137   ar
   138    21    22    1
   139    11    12    1
   140    11    13    1
   141   102   104   ar
   142    43    42    2
   143   142   141   ar
   144    12    14    1
   145   137   136    1
   146   137   139   ar
   147   103   104   ar
   148    25    22    1
   149    25    26    1
   150    22    23    1
   151   141   139   ar
   152    28    26   ar
   153    26    27   ar
   154    24    23    2
