@<TRIPOS>MOLECULE
tmp/6e2aA01.pdb
 173 166 0 0 0
SMALL
GASTEIGER

@<TRIPOS>ATOM
      1  N         47.1870  -13.3580  -31.5000 N.3    23  GLN23      -0.1231
      2  CA        48.2300  -14.0540  -32.2370 C.3    23  GLN23       0.1698
      3  C         48.3100  -15.5230  -31.8110 C.2    23  GLN23       0.2592
      4  O         48.3010  -15.8330  -30.6160 O.2    23  GLN23      -0.2718
      5  CB        49.5690  -13.3460  -32.0190 C.3    23  GLN23       0.0381
      6  CG        50.7540  -13.9630  -32.7900 C.3    23  GLN23       0.0905
      7  CD        50.6730  -13.7580  -34.2960 C.2    23  GLN23       0.2608
      8  OE1       49.9550  -12.8870  -34.7790 O.2    23  GLN23      -0.2717
      9  NE2       51.4090  -14.5740  -35.0470 N.am   23  GLN23      -0.0878
     10  N         48.3440  -16.4200  -32.8130 N.am   24  TRP24      -0.1976
     11  CA        48.4730  -17.8770  -32.6970 C.3    24  TRP24       0.1640
     12  C         47.1470  -18.5330  -32.3470 C.2    24  TRP24       0.2290
     13  O         46.8650  -19.6490  -32.7910 O.2    24  TRP24      -0.2864
     14  CB        49.5410  -18.2930  -31.6680 C.3    24  TRP24       0.0576
     15  CG        50.8940  -17.6590  -31.9050 C.ar   24  TRP24       0.0006
     16  CD1       51.6600  -16.9910  -30.9830 C.ar   24  TRP24       0.0946
     17  CD2       51.6260  -17.6070  -33.1430 C.ar   24  TRP24       0.0152
     18  NE1       52.8200  -16.5380  -31.5670 N.ar   24  TRP24      -0.2442
     19  CE2       52.8230  -16.8980  -32.8920 C.ar   24  TRP24       0.0810
     20  CE3       51.3830  -18.0840  -34.4400 C.ar   24  TRP24       0.0012
     21  CZ2       53.7780  -16.6630  -33.8850 C.ar   24  TRP24       0.0191
     22  CZ3       52.3340  -17.8480  -35.4270 C.ar   24  TRP24       0.0001
     23  CH2       53.5180  -17.1470  -35.1420 C.ar   24  TRP24       0.0015
     24  N         47.9120  -11.9660  -38.8640 N.3    46  LEU46      -0.1245
     25  CA        49.3150  -12.3530  -38.8470 C.3    46  LEU46       0.1561
     26  C         49.5530  -13.7180  -38.2170 C.2    46  LEU46       0.2260
     27  O         50.7050  -14.1470  -38.1370 O.2    46  LEU46      -0.2867
     28  CB        50.1380  -11.2940  -38.1250 C.3    46  LEU46       0.0270
     29  CG        50.1370   -9.9370  -38.8370 C.3    46  LEU46       0.0019
     30  CD1       51.3140   -9.1130  -38.3630 C.3    46  LEU46       0.0001
     31  CD2       50.1690  -10.1110  -40.3510 C.3    46  LEU46       0.0001
     32  N         47.5290   -6.5010  -37.0990 N.3    74  THR74      -0.1218
     33  CA        48.3480   -5.8780  -36.0730 C.3    74  THR74       0.1862
     34  C         49.6040   -5.2970  -36.7140 C.2    74  THR74       0.2287
     35  O         50.2360   -5.9440  -37.5570 O.2    74  THR74      -0.2866
     36  CB        48.6780   -6.8950  -34.9670 C.3    74  THR74       0.1770
     37  OG1       47.4670   -7.2390  -34.2700 O.3    74  THR74      -0.2211
     38  CG2       49.6760   -6.3190  -33.9710 C.3    74  THR74       0.0375
     39  N         52.8700   -3.8890  -35.3910 N.3    76  LEU76      -0.1231
     40  CA        53.8050   -3.7450  -34.2860 C.3    76  LEU76       0.1678
     41  C         55.2000   -4.0730  -34.7880 C.2    76  LEU76       0.2434
     42  O         55.3580   -4.6390  -35.8750 O.2    76  LEU76      -0.2733
     43  CB        53.4100   -4.6640  -33.1110 C.3    76  LEU76       0.0284
     44  CG        52.2550   -4.1560  -32.2360 C.3    76  LEU76       0.0019
     45  CD1       51.8010   -5.2110  -31.2340 C.3    76  LEU76       0.0001
     46  CD2       52.6210   -2.8570  -31.5140 C.3    76  LEU76       0.0001
     47  N         56.2400   -3.6940  -34.0380 N.am   77  PRO77      -0.2718
     48  CA        57.6080   -4.0380  -34.4440 C.3    77  PRO77       0.1535
     49  C         57.7350   -5.5150  -34.7830 C.2    77  PRO77       0.2599
     50  O         57.2960   -6.3910  -34.0300 O.2    77  PRO77      -0.2715
     51  CB        58.4500   -3.6570  -33.2180 C.3    77  PRO77       0.0310
     52  CG        57.4690   -3.3950  -32.1140 C.3    77  PRO77       0.0237
     53  CD        56.2460   -2.8940  -32.8030 C.3    77  PRO77       0.0939
     54  N         58.3190   -5.7840  -35.9460 N.am   78  THR78      -0.1937
     55  CA        58.3590   -7.1210  -36.5120 C.3    78  THR78       0.2028
     56  C         59.8020   -7.5440  -36.7440 C.2    78  THR78       0.2642
     57  O         60.6400   -6.7360  -37.1640 O.2    78  THR78      -0.2714
     58  CB        57.5520   -7.1790  -37.8250 C.3    78  THR78       0.1808
     59  OG1       57.5280   -8.5200  -38.3210 O.3    78  THR78      -0.2208
     60  CG2       58.1290   -6.2400  -38.8830 C.3    78  THR78       0.0379
     61  N         60.0900   -8.8140  -36.4490 N.am   79  GLN79      -0.1976
     62  CA        61.4230   -9.3440  -36.7060 C.3    79  GLN79       0.1601
     63  C         61.7030   -9.4060  -38.2040 C.2    79  GLN79       0.2287
     64  O         62.7290   -8.9010  -38.6720 O.2    79  GLN79      -0.2864
     65  CB        61.5790  -10.7200  -36.0540 C.3    79  GLN79       0.0394
     66  CG        62.2410  -10.6670  -34.6680 C.3    79  GLN79       0.0908
     67  CD        62.4950  -12.0490  -34.0770 C.2    79  GLN79       0.2608
     68  OE1       62.7070  -13.0150  -34.8110 O.2    79  GLN79      -0.2717
     69  NE2       62.4820  -12.1460  -32.7450 N.am   79  GLN79      -0.0878
     70  N         51.9320   -5.9800  -45.4060 N.3    84  TYR84      -0.1241
     71  CA        50.6210   -5.5930  -44.8850 C.3    84  TYR84       0.1605
     72  C         49.6180   -5.3350  -46.0050 C.2    84  TYR84       0.2264
     73  O         48.4770   -5.8150  -45.9600 O.2    84  TYR84      -0.2867
     74  CB        50.7660   -4.3530  -44.0020 C.3    84  TYR84       0.0534
     75  CG        51.5690   -4.6020  -42.7460 C.ar   84  TYR84      -0.0201
     76  CD1       51.0340   -5.3300  -41.6890 C.ar   84  TYR84      -0.0009
     77  CD2       52.8600   -4.1300  -42.6220 C.ar   84  TYR84      -0.0009
     78  CE1       51.7680   -5.5630  -40.5290 C.ar   84  TYR84       0.0417
     79  CE2       53.6030   -4.3640  -41.4690 C.ar   84  TYR84       0.0417
     80  CZ        53.0500   -5.0790  -40.4270 C.ar   84  TYR84       0.1957
     81  OH        53.7830   -5.3140  -39.2770 O.3    84  TYR84      -0.2866
     82  N         46.2230   -7.9290  -21.4390 N.3   149  ALA149     -0.1231
     83  CA        47.2140   -8.7790  -22.0790 C.3   149  ALA149      0.1694
     84  C         47.7690   -8.0570  -23.2970 C.2   149  ALA149      0.2593
     85  O         47.0500   -7.3240  -23.9800 O.2   149  ALA149     -0.2718
     86  CB        46.5930  -10.1140  -22.4960 C.3   149  ALA149      0.0304
     87  N         49.0600   -8.2320  -23.5590 N.am  150  GLY150     -0.1942
     88  CA        49.6230   -7.6400  -24.7590 C.3   150  GLY150      0.2014
     89  C         50.3380   -6.3270  -24.5480 C.2   150  GLY150      0.2638
     90  O         51.0340   -6.1590  -23.5470 O.2   150  GLY150     -0.2714
     91  N         50.1710   -5.3810  -25.4720 N.am  151  HIS151     -0.1973
     92  CA        50.9750   -4.1650  -25.4730 C.3   151  HIS151      0.1656
     93  C         50.1540   -2.9900  -24.9500 C.2   151  HIS151      0.2291
     94  O         49.3210   -2.4440  -25.6910 O.2   151  HIS151     -0.2864
     95  CB        51.4980   -3.8760  -26.8860 C.3   151  HIS151      0.0771
     96  CG        52.5630   -4.8270  -27.3380 C.ar  151  HIS151      0.0820
     97  ND1       53.9040   -4.5230  -27.2820 N.ar  151  HIS151     -0.2267
     98  CD2       52.4860   -6.0900  -27.8170 C.ar  151  HIS151      0.1154
     99  CE1       54.6080   -5.5500  -27.7200 C.ar  151  HIS151      0.1986
    100  NE2       53.7720   -6.5150  -28.0510 N.ar  151  HIS151     -0.2212
    101  N         60.1340   -6.0990  -21.6410 N.3   231  MET231     -0.1245
    102  CA        60.5830   -5.0980  -22.6150 C.3   231  MET231      0.1570
    103  C         60.2120   -3.6680  -22.2100 C.2   231  MET231      0.2261
    104  O         60.0800   -2.7900  -23.0630 O.2   231  MET231     -0.2867
    105  CB        60.0670   -5.4170  -24.0210 C.3   231  MET231      0.0387
    106  CG        60.4760   -6.8070  -24.4930 C.3   231  MET231      0.0595
    107  SD        60.0330   -7.2070  -26.1820 S.3   231  MET231     -0.1393
    108  CE        58.2540   -7.4850  -26.0870 C.3   231  MET231      0.0692
    109  N         62.9870   -1.4320  -23.3180 N.3   234  LEU234     -0.1245
    110  CA        62.9840   -1.1290  -24.7450 C.3   234  LEU234      0.1561
    111  C         61.8000   -0.2690  -25.1750 C.2   234  LEU234      0.2260
    112  O         61.6370   -0.0310  -26.3790 O.2   234  LEU234     -0.2867
    113  CB        62.9700   -2.4230  -25.5650 C.3   234  LEU234      0.0270
    114  CG        63.9370   -3.5040  -25.0910 C.3   234  LEU234      0.0019
    115  CD1       63.7860   -4.7750  -25.9220 C.3   234  LEU234      0.0001
    116  CD2       65.3540   -2.9690  -25.1480 C.3   234  LEU234      0.0001
    117  N         58.8300   -1.1770  -25.3370 N.3   236  ASN236     -0.1240
    118  CA        57.9680   -2.0560  -26.1140 C.3   236  ASN236      0.1653
    119  C         57.2450   -2.9990  -25.1630 C.2   236  ASN236      0.2266
    120  O         57.1310   -4.2070  -25.4060 O.2   236  ASN236     -0.2867
    121  CB        58.7690   -2.8040  -27.1790 C.3   236  ASN236      0.1155
    122  CG        57.8930   -3.5880  -28.1240 C.2   236  ASN236      0.2627
    123  OD1       58.2080   -4.7230  -28.4750 O.2   236  ASN236     -0.2716
    124  ND2       56.7680   -3.0040  -28.5170 N.am  236  ASN236     -0.0877
    125  N         55.1740   -5.3630  -22.9740 N.3   238  ALA238     -0.1245
    126  CA        54.1860   -6.3830  -23.2710 C.3   238  ALA238      0.1562
    127  C         53.8680   -7.0960  -21.9650 C.2   238  ALA238      0.2260
    128  O         54.7860   -7.4240  -21.2010 O.2   238  ALA238     -0.2867
    129  CB        54.7160   -7.3580  -24.3220 C.3   238  ALA238      0.0290
    130  N         67.2620   -5.2340  -27.9750 N.3   260  TYR260     -0.1241
    131  CA        66.3450   -6.2800  -28.4160 C.3   260  TYR260      0.1605
    132  C         67.0790   -7.5380  -28.8630 C.2   260  TYR260      0.2264
    133  O         66.5690   -8.6510  -28.6770 O.2   260  TYR260     -0.2867
    134  CB        65.4490   -5.7800  -29.5410 C.3   260  TYR260      0.0534
    135  CG        64.5000   -6.8580  -29.9750 C.ar  260  TYR260     -0.0201
    136  CD1       63.4240   -7.2150  -29.1710 C.ar  260  TYR260     -0.0009
    137  CD2       64.6980   -7.5570  -31.1640 C.ar  260  TYR260     -0.0009
    138  CE1       62.5520   -8.2160  -29.5450 C.ar  260  TYR260      0.0417
    139  CE2       63.8340   -8.5570  -31.5470 C.ar  260  TYR260      0.0417
    140  CZ        62.7620   -8.8800  -30.7310 C.ar  260  TYR260      0.1957
    141  OH        61.8960   -9.8730  -31.1010 O.3   260  TYR260     -0.2866
    142  N         62.0250  -14.1570  -26.7740 N.3   267  VAL267     -0.1231
    143  CA        60.6890  -13.6150  -26.9860 C.3   267  VAL267      0.1692
    144  C         60.1400  -13.9710  -28.3640 C.2   267  VAL267      0.2593
    145  O         59.0940  -13.4580  -28.7550 O.2   267  VAL267     -0.2718
    146  CB        60.6550  -12.0890  -26.7580 C.3   267  VAL267      0.0266
    147  CG1       61.1780  -11.7410  -25.3760 C.3   267  VAL267      0.0020
    148  CG2       61.4410  -11.3370  -27.8380 C.3   267  VAL267      0.0020
    149  N         60.8120  -14.8520  -29.1000 N.am  268  SER268     -0.1938
    150  CA        60.3920  -15.1460  -30.4620 C.3   268  SER268      0.2055
    151  C         59.0230  -15.8010  -30.4720 C.2   268  SER268      0.2644
    152  O         58.7220  -16.6580  -29.6390 O.2   268  SER268     -0.2714
    153  CB        61.3970  -16.0700  -31.1440 C.3   268  SER268      0.2130
    154  OG        61.1500  -17.4140  -30.7630 O.3   268  SER268     -0.2179
    155  N         58.2010  -15.4110  -31.4460 N.am  269  GLY269     -0.1939
    156  CA        56.8840  -15.9910  -31.5960 C.3   269  GLY269      0.2014
    157  C         56.9020  -17.4650  -31.9230 C.2   269  GLY269      0.2638
    158  O         55.9190  -18.1630  -31.6560 O.2   269  GLY269     -0.2714
    159  N         57.9980  -17.9680  -32.4800 N.am  270  GLN270     -0.1977
    160  CA        58.0210  -19.3900  -32.7930 C.3   270  GLN270      0.1601
    161  C         58.2600  -20.2500  -31.5550 C.2   270  GLN270      0.2287
    162  O         57.7560  -21.3720  -31.4870 O.2   270  GLN270     -0.2864
    163  CB        59.0590  -19.6730  -33.8860 C.3   270  GLN270      0.0394
    164  CG        58.8290  -18.8770  -35.2040 C.3   270  GLN270      0.0908
    165  CD        57.4420  -19.0980  -35.8720 C.2   270  GLN270      0.2608
    166  OE1       56.6040  -19.8670  -35.3920 O.2   270  GLN270     -0.2717
    167  NE2       57.2140  -18.4110  -36.9940 N.am  270  GLN270     -0.0878
    168  N         50.9550  -14.6830  -23.9540 N.3   287  SER287     -0.1217
    169  CA        50.2320  -13.5110  -23.4750 C.3   287  SER287      0.1889
    170  C         49.0850  -13.9240  -22.5730 C.2   287  SER287      0.2288
    171  O         48.3370  -14.8590  -22.8780 O.2   287  SER287     -0.2866
    172  CB        49.6870  -12.6920  -24.6440 C.3   287  SER287      0.2089
    173  OG        50.7220  -12.3220  -25.5280 O.3   287  SER287     -0.2183
@<TRIPOS>BOND
     1    72    73    2
     2    72    71    1
     3    70    71    1
     4    71    74    1
     5    74    75    1
     6    75    77   ar
     7    75    76   ar
     8    77    79   ar
     9    76    78   ar
    10    79    80   ar
    11    78    80   ar
    12    80    81    1
    13    31    29    1
    14    60    58    1
    15    24    25    1
    16    25    26    1
    17    25    28    1
    18    29    30    1
    19    29    28    1
    20    64    63    2
    21    59    58    1
    22    26    27    2
    23    63    62    1
    24    58    55    1
    25    35    34    2
    26    57    56    2
    27    32    33    1
    28   167   165   am
    29    56    55    1
    30    56    61   am
    31    34    33    1
    32    62    61    1
    33    62    65    1
    34    55    54    1
    35    33    36    1
    36    65    66    1
    37    54    49   am
    38    42    41    2
    39   165   166    2
    40   165   164    1
    41    22    23   ar
    42    22    20   ar
    43    39    40    1
    44   164   163    1
    45    23    21   ar
    46     9     7   am
    47    36    37    1
    48    36    38    1
    49    68    67    2
    50    41    40    1
    51    41    47   am
    52    49    48    1
    53    49    50    2
    54     8     7    2
    55    66    67    1
    56    48    47    1
    57    48    51    1
    58    20    17   ar
    59     7     6    1
    60    40    43    1
    61    67    69   am
    62    47    53    1
    63   163   160    1
    64    21    19   ar
    65    51    52    1
    66    17    19   ar
    67    17    15   ar
    68    43    44    1
    69    19    18   ar
    70    10    11    1
    71    10     3   am
    72    53    52    1
    73   160   159    1
    74   160   161    1
    75    13    12    2
    76     6     5    1
    77    11    12    1
    78    11    14    1
    79   159   157   am
    80     2     5    1
    81     2     3    1
    82     2     1    1
    83    44    46    1
    84    44    45    1
    85   157   158    2
    86   157   156    1
    87    15    14    1
    88    15    16   ar
    89     3     4    2
    90   156   155    1
    91    18    16   ar
    92   161   162    2
    93   139   137   ar
    94   139   140   ar
    95   155   151   am
    96   137   135   ar
    97   153   154    1
    98   153   150    1
    99   141   140    1
   100   140   138   ar
   101   151   150    1
   102   151   152    2
   103   150   149    1
   104   135   134    1
   105   135   136   ar
   106   138   136   ar
   107   134   131    1
   108   149   144   am
   109   132   133    2
   110   132   131    1
   111   145   144    2
   112   124   122   am
   113   123   122    2
   114   131   130    1
   115   144   143    1
   116   122   121    1
   117   100    98   ar
   118   100    99   ar
   119   148   146    1
   120    98    96   ar
   121    99    97   ar
   122    96    97   ar
   123    96    95    1
   124   121   118    1
   125   143   142    1
   126   143   146    1
   127    95    92    1
   128   146   147    1
   129   112   111    2
   130   107   108    1
   131   107   106    1
   132   118   117    1
   133   118   119    1
   134   115   114    1
   135    94    93    2
   136   113   114    1
   137   113   110    1
   138   173   172    1
   139    92    91    1
   140    92    93    1
   141    91    89   am
   142   120   119    2
   143   111   110    1
   144   116   114    1
   145    88    89    1
   146    88    87    1
   147   110   109    1
   148   172   169    1
   149    89    90    2
   150   106   105    1
   151   129   126    1
   152   105   102    1
   153    85    84    2
   154   168   169    1
   155    87    84   am
   156   169   170    1
   157    84    83    1
   158   126   125    1
   159   126   127    1
   160   104   103    2
   161   171   170    2
   162   102   103    1
   163   102   101    1
   164    86    83    1
   165    83    82    1
   166   127   128    2
