@<TRIPOS>MOLECULE
tmp/6e2bB00.pdb
 84 82 0 0 0
SMALL
GASTEIGER

@<TRIPOS>ATOM
      1  N         40.2790   21.8130    7.6190 N.3     6  LYS6       -0.1231
      2  CA        39.8570   22.0710    6.2560 C.3     6  LYS6        0.1693
      3  C         40.3840   21.0060    5.3040 C.2     6  LYS6        0.2593
      4  O         41.4530   20.4380    5.5190 O.2     6  LYS6       -0.2718
      5  CB        40.3760   23.4420    5.8370 C.3     6  LYS6        0.0285
      6  CG        39.8240   24.6150    6.6480 C.3     6  LYS6        0.0035
      7  CD        39.4930   25.7560    5.7090 C.3     6  LYS6        0.0206
      8  CE        39.0020   27.0050    6.4000 C.3     6  LYS6        0.1093
      9  NZ        39.6260   28.2480    5.8630 N.3     6  LYS6       -0.1314
     10  N         39.6480   20.7930    4.2120 N.am    7  THR7       -0.1939
     11  CA        39.9790   19.8830    3.1730 C.3     7  THR7        0.2028
     12  C         40.0030   20.6180    1.8070 C.2     7  THR7        0.2642
     13  O         39.4090   21.7100    1.6140 O.2     7  THR7       -0.2714
     14  CB        38.9520   18.7650    3.0870 C.3     7  THR7        0.1808
     15  OG1       37.6290   19.2820    2.9030 O.3     7  THR7       -0.2208
     16  CG2       39.0150   17.8340    4.3430 C.3     7  THR7        0.0379
     17  N         40.6370   19.9680    0.8190 N.am    8  LEU8       -0.1977
     18  CA        40.7600   20.5510   -0.5150 C.3     8  LEU8        0.1596
     19  C         39.4600   20.6300   -1.2650 C.2     8  LEU8        0.2287
     20  O         39.3410   21.4470   -2.1740 O.2     8  LEU8       -0.2864
     21  CB        41.8140   19.8030   -1.2890 C.3     8  LEU8        0.0297
     22  CG        43.2680   19.9870   -0.8460 C.3     8  LEU8        0.0022
     23  CD1       44.1670   18.9640   -1.5780 C.3     8  LEU8        0.0001
     24  CD2       43.7820   21.4300   -1.0800 C.3     8  LEU8        0.0001
     25  N         48.5220   19.2140    8.2890 N.3    44  ILE44      -0.1231
     26  CA        49.5700   20.2230    8.1970 C.3    44  ILE44       0.1692
     27  C         49.1430   21.4620    8.9960 C.2    44  ILE44       0.2592
     28  O         47.9890   21.9040    8.9260 O.2    44  ILE44      -0.2718
     29  CB        49.8640   20.5880    6.7470 C.3    44  ILE44       0.0266
     30  CG1       50.5810   19.4340    6.0580 C.3    44  ILE44       0.0019
     31  CG2       50.6960   21.8790    6.6790 C.3    44  ILE44       0.0020
     32  CD1       50.2760   19.3110    4.5890 C.3    44  ILE44       0.0001
     33  N         50.0420   21.9860    9.8170 N.am   45  PHE45      -0.1962
     34  CA        49.8260   23.2030   10.5940 C.3    45  PHE45       0.1771
     35  C         51.2120   23.8410   10.7740 C.2    45  PHE45       0.2619
     36  O         52.1730   23.1600   11.1010 O.2    45  PHE45      -0.2715
     37  CB        49.2300   22.9270   11.9700 C.3    45  PHE45       0.0574
     38  CG        49.0630   24.1860   12.8060 C.ar   45  PHE45      -0.0200
     39  CD1       47.9850   25.0370   12.5900 C.ar   45  PHE45      -0.0042
     40  CD2       49.9920   24.5190   13.7770 C.ar   45  PHE45      -0.0042
     41  CE1       47.8640   26.1810   13.3310 C.ar   45  PHE45      -0.0003
     42  CE2       49.8710   25.6830   14.5250 C.ar   45  PHE45      -0.0003
     43  CZ        48.7960   26.5200   14.2870 C.ar   45  PHE45      -0.0000
     44  N         51.2760   25.1500   10.5170 N.am   46  ALA46      -0.1963
     45  CA        52.5170   25.9190   10.6950 C.3    46  ALA46       0.1728
     46  C         53.6730   25.3490    9.8900 C.2    46  ALA46       0.2616
     47  O         54.8610   25.4120   10.3240 O.2    46  ALA46      -0.2715
     48  CB        52.9010   26.0290   12.1850 C.3    46  ALA46       0.0334
     49  N         53.3310   24.7670    8.7500 N.am   47  GLY47      -0.1955
     50  CA        54.2860   24.1820    7.8300 C.3    47  GLY47       0.1869
     51  C         54.7300   22.8050    8.2380 C.2    47  GLY47       0.2309
     52  O         55.5230   22.2290    7.5640 O.2    47  GLY47      -0.2863
     53  N         43.5920   26.5800   12.3750 N.3    66  THR66      -0.1218
     54  CA        43.0760   25.8840   11.1980 C.3    66  THR66       0.1862
     55  C         44.1140   24.8470   10.7410 C.2    66  THR66       0.2287
     56  O         45.2700   25.1790   10.4280 O.2    66  THR66      -0.2866
     57  CB        42.8130   26.8360   10.0800 C.3    66  THR66       0.1770
     58  OG1       41.7720   27.7220   10.5000 O.3    66  THR66      -0.2211
     59  CG2       42.4290   26.0590    8.8100 C.3    66  THR66       0.0375
     60  N         45.1870   21.7320    8.0220 N.3    68  HIS68      -0.1226
     61  CA        44.9380   21.3260    6.6660 C.3    68  HIS68       0.1752
     62  C         45.0460   19.8420    6.5070 C.2    68  HIS68       0.2596
     63  O         46.0920   19.2690    6.8230 O.2    68  HIS68      -0.2718
     64  CB        45.8910   22.0370    5.7140 C.3    68  HIS68       0.0759
     65  CG        45.5370   23.4480    5.4910 C.ar   68  HIS68       0.0818
     66  ND1       46.2950   24.1970    4.7560 N.ar   68  HIS68      -0.2268
     67  CD2       44.4120   24.1840    5.8460 C.ar   68  HIS68       0.1154
     68  CE1       45.7260   25.4460    4.6610 C.ar   68  HIS68       0.1986
     69  NE2       44.5520   25.4280    5.3170 N.ar   68  HIS68      -0.2212
     70  N         43.9320   19.2310    6.1400 N.am   69  LEU69      -0.1966
     71  CA        43.7560   17.7800    6.0510 C.3    69  LEU69       0.1728
     72  C         43.7640   17.3540    4.5930 C.2    69  LEU69       0.2616
     73  O         42.9490   17.8110    3.8210 O.2    69  LEU69      -0.2715
     74  CB        42.4670   17.3250    6.7200 C.3    69  LEU69       0.0311
     75  CG        41.9950   15.8670    6.5340 C.3    69  LEU69       0.0022
     76  CD1       42.9520   14.8750    7.1850 C.3    69  LEU69       0.0001
     77  CD2       40.5920   15.7080    7.1170 C.3    69  LEU69       0.0001
     78  N         44.6530   16.4280    4.2660 N.am   70  VAL70      -0.1977
     79  CA        44.7340   15.8150    2.9420 C.3    70  VAL70       0.1596
     80  C         44.8470   14.2750    3.0800 C.2    70  VAL70       0.2287
     81  O         45.3100   13.7150    4.0740 O.2    70  VAL70      -0.2864
     82  CB        45.9350   16.3690    2.1310 C.3    70  VAL70       0.0276
     83  CG1       45.7000   17.8750    1.8680 C.3    70  VAL70       0.0022
     84  CG2       47.2680   16.1680    2.8130 C.3    70  VAL70       0.0022
@<TRIPOS>BOND
     1    20    19    2
     2    23    22    1
     3    21    22    1
     4    21    18    1
     5    19    18    1
     6    24    22    1
     7    18    17    1
     8    17    12   am
     9    13    12    2
    10    12    11    1
    11    83    82    1
    12    82    84    1
    13    82    79    1
    14    15    14    1
    15    79    80    1
    16    79    78    1
    17    80    81    2
    18    14    11    1
    19    14    16    1
    20    11    10    1
    21    73    72    2
    22    10     3   am
    23    78    72   am
    24    32    30    1
    25    72    71    1
    26    68    66   ar
    27    68    69   ar
    28    66    65   ar
    29     3     4    2
    30     3     2    1
    31    69    67   ar
    32    65    64    1
    33    65    67   ar
    34     7     8    1
    35     7     6    1
    36    64    61    1
    37     5     2    1
    38     5     6    1
    39     9     8    1
    40    71    70    1
    41    71    74    1
    42    30    29    1
    43    70    62   am
    44     2     1    1
    45    62    61    1
    46    62    63    2
    47    75    74    1
    48    75    77    1
    49    75    76    1
    50    61    60    1
    51    31    29    1
    52    29    26    1
    53    52    51    2
    54    50    51    1
    55    50    49    1
    56    26    25    1
    57    26    27    1
    58    49    46   am
    59    59    57    1
    60    28    27    2
    61    27    33   am
    62    33    34    1
    63    46    47    2
    64    46    45    1
    65    57    58    1
    66    57    54    1
    67    56    55    2
    68    44    45    1
    69    44    35   am
    70    34    35    1
    71    34    37    1
    72    45    48    1
    73    55    54    1
    74    35    36    2
    75    54    53    1
    76    37    38    1
    77    39    38   ar
    78    39    41   ar
    79    38    40   ar
    80    41    43   ar
    81    40    42   ar
    82    43    42   ar
