@<TRIPOS>MOLECULE
tmp/6e2bF01.pdb
 84 82 0 0 0
SMALL
GASTEIGER

@<TRIPOS>ATOM
      1  N         61.1590   10.4360    0.3340 N.3     6  LYS6       -0.1231
      2  CA        59.8990   10.0000   -0.2340 C.3     6  LYS6        0.1693
      3  C         59.4940   10.8410   -1.3880 C.2     6  LYS6        0.2593
      4  O         59.7880   12.0300   -1.4480 O.2     6  LYS6       -0.2718
      5  CB        58.8350   10.0190    0.8240 C.3     6  LYS6        0.0285
      6  CG        59.2030    9.0170    1.9550 C.3     6  LYS6        0.0035
      7  CD        58.0040    8.7720    2.7820 C.3     6  LYS6        0.0206
      8  CE        58.3260    7.8140    3.8990 C.3     6  LYS6        0.1093
      9  NZ        57.0730    7.5620    4.6830 N.3     6  LYS6       -0.1314
     10  N         58.7790   10.2100   -2.3040 N.am    7  THR7       -0.1939
     11  CA        58.3030   10.8600   -3.5220 C.3     7  THR7        0.2028
     12  C         56.7940   10.7300   -3.7240 C.2     7  THR7        0.2642
     13  O         56.1190    9.9300   -3.0740 O.2     7  THR7       -0.2714
     14  CB        59.0200   10.2760   -4.7630 C.3     7  THR7        0.1808
     15  OG1       58.5410    8.9350   -5.0050 O.3     7  THR7       -0.2208
     16  CG2       60.5790   10.3680   -4.5840 C.3     7  THR7        0.0379
     17  N         56.2620   11.5890   -4.5900 N.am    8  LEU8       -0.1977
     18  CA        54.8220   11.6460   -4.8290 C.3     8  LEU8        0.1596
     19  C         54.3690   10.4100   -5.5670 C.2     8  LEU8        0.2287
     20  O         53.1730   10.1150   -5.6060 O.2     8  LEU8       -0.2864
     21  CB        54.4180   12.9180   -5.5480 C.3     8  LEU8        0.0297
     22  CG        54.4540   14.1670   -4.6650 C.3     8  LEU8        0.0022
     23  CD1       54.2700   15.3810   -5.5500 C.3     8  LEU8        0.0001
     24  CD2       53.4440   14.0800   -3.5340 C.3     8  LEU8        0.0001
     25  N         61.9510   18.9940    1.1190 N.3    44  ILE44      -0.1231
     26  CA        61.1980   19.6380    2.2190 C.3    44  ILE44       0.1692
     27  C         61.4120   18.8500    3.5000 C.2    44  ILE44       0.2592
     28  O         61.2730   17.6450    3.5200 O.2    44  ILE44      -0.2718
     29  CB        59.6800   19.7490    1.9130 C.3    44  ILE44       0.0266
     30  CG1       59.4010   20.4800    0.5900 C.3    44  ILE44       0.0019
     31  CG2       58.9630   20.3500    3.1180 C.3    44  ILE44       0.0020
     32  CD1       59.8770   21.8700    0.5760 C.3    44  ILE44       0.0001
     33  N         61.7550   19.5440    4.5790 N.am   45  PHE45      -0.1962
     34  CA        61.8180   18.9660    5.9230 C.3    45  PHE45       0.1771
     35  C         61.3810   20.0370    6.8950 C.2    45  PHE45       0.2619
     36  O         61.7630   21.2060    6.7410 O.2    45  PHE45      -0.2715
     37  CB        63.2060   18.4470    6.2560 C.3    45  PHE45       0.0574
     38  CG        63.3250   17.8940    7.6470 C.ar   45  PHE45      -0.0200
     39  CD1       63.0190   16.5720    7.9000 C.ar   45  PHE45      -0.0042
     40  CD2       63.7880   18.6890    8.6600 C.ar   45  PHE45      -0.0042
     41  CE1       63.1300   16.0690    9.1910 C.ar   45  PHE45      -0.0003
     42  CE2       63.9130   18.2150    9.9600 C.ar   45  PHE45      -0.0003
     43  CZ        63.5960   16.8870   10.2090 C.ar   45  PHE45      -0.0000
     44  N         60.5110   19.6950    7.8390 N.am   46  ALA46      -0.1963
     45  CA        59.9940   20.7120    8.7750 C.3    46  ALA46       0.1728
     46  C         59.3250   21.9080    8.0530 C.2    46  ALA46       0.2616
     47  O         59.2910   23.0030    8.5840 O.2    46  ALA46      -0.2715
     48  CB        61.0560   21.1640    9.7380 C.3    46  ALA46       0.0334
     49  N         58.7650   21.6770    6.8760 N.am   47  GLY47      -0.1955
     50  CA        58.1170   22.7610    6.1050 C.3    47  GLY47       0.1869
     51  C         59.0810   23.6430    5.3140 C.2    47  GLY47       0.2309
     52  O         58.6700   24.5580    4.5510 O.2    47  GLY47      -0.2863
     53  N         62.7080   11.5170    7.5840 N.3    66  THR66      -0.1218
     54  CA        62.1070   11.5120    6.2650 C.3    66  THR66       0.1862
     55  C         62.1430   12.9080    5.6140 C.2    66  THR66       0.2287
     56  O         61.8360   13.8900    6.2540 O.2    66  THR66      -0.2866
     57  CB        60.6280   11.0870    6.3240 C.3    66  THR66       0.1770
     58  OG1       60.5270    9.7070    6.7220 O.3    66  THR66      -0.2211
     59  CG2       59.9410   11.3070    4.9660 C.3    66  THR66       0.0375
     60  N         60.9310   15.0010    1.9970 N.3    68  HIS68      -0.1226
     61  CA        60.0160   14.9540    0.8470 C.3    68  HIS68       0.1752
     62  C         60.7140   15.5370   -0.3630 C.2    68  HIS68       0.2596
     63  O         61.1450   16.7130   -0.3550 O.2    68  HIS68      -0.2718
     64  CB        58.7440   15.7470    1.2210 C.3    68  HIS68       0.0759
     65  CG        57.8190   14.9910    2.1490 C.ar   68  HIS68       0.0818
     66  ND1       56.5970   15.4450    2.6170 N.ar   68  HIS68      -0.2268
     67  CD2       57.9480   13.6990    2.6280 C.ar   68  HIS68       0.1154
     68  CE1       56.0230   14.4740    3.3490 C.ar   68  HIS68       0.1986
     69  NE2       56.7830   13.3900    3.3070 N.ar   68  HIS68      -0.2212
     70  N         60.8440   14.7160   -1.4070 N.am   69  LEU69      -0.1966
     71  CA        61.4800   15.1020   -2.6520 C.3    69  LEU69       0.1728
     72  C         60.4360   15.2830   -3.7270 C.2    69  LEU69       0.2616
     73  O         59.5730   14.4200   -3.9460 O.2    69  LEU69      -0.2715
     74  CB        62.4500   14.0410   -3.1410 C.3    69  LEU69       0.0311
     75  CG        62.9760   14.1620   -4.5890 C.3    69  LEU69       0.0022
     76  CD1       63.9170   15.4070   -4.7930 C.3    69  LEU69       0.0001
     77  CD2       63.6710   12.8400   -4.9840 C.3    69  LEU69       0.0001
     78  N         60.4760   16.4490   -4.3720 N.am   70  VAL70      -0.1977
     79  CA        59.6120   16.7330   -5.5160 C.3    70  VAL70       0.1596
     80  C         60.4270   17.2590   -6.7000 C.2    70  VAL70       0.2287
     81  O         61.4480   17.9280   -6.5530 O.2    70  VAL70      -0.2864
     82  CB        58.4660   17.6930   -5.1750 C.3    70  VAL70       0.0276
     83  CG1       57.5220   17.0300   -4.1580 C.3    70  VAL70       0.0022
     84  CG2       58.9850   19.0240   -4.6520 C.3    70  VAL70       0.0022
@<TRIPOS>BOND
     1    80    81    2
     2    80    79    1
     3    20    19    2
     4    19    18    1
     5    23    22    1
     6    21    18    1
     7    21    22    1
     8    79    82    1
     9    79    78    1
    10    82    84    1
    11    82    83    1
    12    15    14    1
    13    77    75    1
    14    18    17    1
    15    76    75    1
    16    14    16    1
    17    14    11    1
    18    22    24    1
    19    17    12   am
    20    75    74    1
    21    78    72   am
    22    73    72    2
    23    72    71    1
    24    12    11    1
    25    12    13    2
    26    11    10    1
    27    74    71    1
    28    71    70    1
    29    10     3   am
    30     4     3    2
    31    70    62   am
    32     3     2    1
    33    62    63    2
    34    62    61    1
    35     2     1    1
    36     2     5    1
    37    32    30    1
    38    30    29    1
    39     5     6    1
    40    61    64    1
    41    61    60    1
    42    25    26    1
    43    64    65    1
    44    29    26    1
    45    29    31    1
    46     6     7    1
    47    65    66   ar
    48    65    67   ar
    49    26    27    1
    50    66    68   ar
    51    67    69   ar
    52     7     8    1
    53    69    68   ar
    54    27    28    2
    55    27    33   am
    56     8     9    1
    57    52    51    2
    58    33    34    1
    59    59    57    1
    60    51    50    1
    61    55    56    2
    62    55    54    1
    63    34    37    1
    64    34    35    1
    65    50    49    1
    66    37    38    1
    67    54    57    1
    68    54    53    1
    69    57    58    1
    70    36    35    2
    71    49    46   am
    72    35    44   am
    73    38    39   ar
    74    38    40   ar
    75    44    45    1
    76    39    41   ar
    77    46    47    2
    78    46    45    1
    79    40    42   ar
    80    45    48    1
    81    41    43   ar
    82    42    43   ar
