@<TRIPOS>MOLECULE
tmp/6e3lE05.pdb
 75 72 0 0 0
SMALL
GASTEIGER

@<TRIPOS>ATOM
      1  N          8.9410  -38.5850   13.7680 N.3     2  GLN2       -0.1231
      2  CA         7.5960  -38.9060   13.3110 C.3     2  GLN2        0.1698
      3  C          7.0310  -40.0770   14.1030 C.2     2  GLN2        0.2592
      4  O          7.7230  -41.0730   14.3390 O.2     2  GLN2       -0.2718
      5  CB         7.5990  -39.2440   11.8130 C.3     2  GLN2        0.0381
      6  CG         6.2320  -39.1970   11.1530 C.3     2  GLN2        0.0905
      7  CD         5.6210  -37.8120   11.1900 C.2     2  GLN2        0.2608
      8  OE1        4.7560  -37.5250   12.0170 O.2     2  GLN2       -0.2717
      9  NE2        6.0690  -36.9430   10.2900 N.am    2  GLN2       -0.0878
     10  N          5.7730  -39.9500   14.5130 N.am    3  LEU3       -0.1966
     11  CA         5.0240  -40.9820   15.2100 C.3     3  LEU3        0.1713
     12  C          3.7410  -41.2810   14.4440 C.2     3  LEU3        0.2458
     13  O          3.3020  -40.4740   13.6160 O.2     3  LEU3       -0.2730
     14  CB         4.6890  -40.5560   16.6470 C.3     3  LEU3        0.0310
     15  CG         5.8680  -40.4210   17.6130 C.3     3  LEU3        0.0022
     16  CD1        5.3910  -39.9580   18.9790 C.3     3  LEU3        0.0001
     17  CD2        6.6220  -41.7340   17.7270 C.3     3  LEU3        0.0001
     18  N          3.1140  -42.4320   14.6860 N.am    4  PRO4       -0.2727
     19  CA         1.8210  -42.7040   14.0450 C.3     4  PRO4        0.1402
     20  C          0.7110  -41.8340   14.6130 C.2     4  PRO4        0.2269
     21  O          0.5970  -41.6510   15.8280 O.2     4  PRO4       -0.2865
     22  CB         1.5750  -44.1870   14.3500 C.3     4  PRO4        0.0296
     23  CG         2.9130  -44.7420   14.7160 C.3     4  PRO4        0.0237
     24  CD         3.6510  -43.6200   15.3710 C.3     4  PRO4        0.0939
     25  N          3.1480  -48.2360   20.6040 N.3    27  LEU27      -0.1231
     26  CA         4.2960  -48.5660   19.7930 C.3    27  LEU27       0.1693
     27  C          4.7790  -49.9600   20.1670 C.2    27  LEU27       0.2593
     28  O          4.5460  -50.4500   21.2760 O.2    27  LEU27      -0.2718
     29  CB         5.4110  -47.5160   19.9740 C.3    27  LEU27       0.0284
     30  CG         5.0280  -46.0730   19.5890 C.3    27  LEU27       0.0019
     31  CD1        4.2570  -45.3860   20.6930 C.3    27  LEU27       0.0001
     32  CD2        6.2110  -45.2140   19.2120 C.3    27  LEU27       0.0001
     33  N          5.4680  -50.5900   19.2190 N.am   28  SER28      -0.1938
     34  CA         6.2080  -51.8120   19.5130 C.3    28  SER28       0.2055
     35  C          7.3050  -51.5140   20.5200 C.2    28  SER28       0.2643
     36  O          7.4390  -52.2010   21.5400 O.2    28  SER28      -0.2714
     37  CB         6.7570  -52.4570   18.2420 C.3    28  SER28       0.2130
     38  OG         5.7550  -52.5350   17.2470 O.3    28  SER28      -0.2179
     39  N          8.0890  -50.4690   20.2590 N.am   29  ASN29      -0.1957
     40  CA         9.1680  -50.0920   21.1540 C.3    29  ASN29       0.1819
     41  C          8.6540  -48.9500   22.0240 C.2    29  ASN29       0.2622
     42  O          8.9680  -47.7790   21.8200 O.2    29  ASN29      -0.2715
     43  CB        10.2910  -49.5640   20.2610 C.3    29  ASN29       0.1195
     44  CG         9.6910  -48.7310   19.0920 C.2    29  ASN29       0.2630
     45  OD1        8.5010  -48.4290   19.1520 O.2    29  ASN29      -0.2716
     46  ND2       10.4690  -48.3390   18.0800 N.am   29  ASN29      -0.0877
     47  N          7.8820  -49.3130   23.0480 N.am   30  SER30      -0.1936
     48  CA         7.2660  -48.3190   23.9170 C.3    30  SER30       0.2055
     49  C          7.9130  -48.3630   25.2940 C.2    30  SER30       0.2643
     50  O          7.8070  -49.3770   25.9950 O.2    30  SER30      -0.2714
     51  CB         5.7540  -48.5280   23.9950 C.3    30  SER30       0.2130
     52  OG         5.4190  -49.9040   23.9750 O.3    30  SER30      -0.2179
     53  N          8.5650  -47.2760   25.6910 N.am   31  THR31      -0.1950
     54  CA         9.2090  -47.2150   26.9970 C.3    31  THR31       0.1897
     55  C          8.3620  -46.4950   28.0370 C.2    31  THR31       0.2313
     56  O          8.3710  -46.8810   29.2110 O.2    31  THR31      -0.2863
     57  CB        10.6020  -46.5800   26.9310 C.3    31  THR31       0.1794
     58  OG1       11.0840  -46.3770   28.2670 O.3    31  THR31      -0.2208
     59  CG2       10.5770  -45.2620   26.1930 C.3    31  THR31       0.0378
     60  N          5.5350  -38.1290   22.0600 N.3    92  LEU92      -0.1245
     61  CA         6.3220  -38.7820   23.1100 C.3    92  LEU92       0.1561
     62  C          7.6000  -37.9610   23.2700 C.2    92  LEU92       0.2260
     63  O          8.6190  -38.2530   22.6420 O.2    92  LEU92      -0.2867
     64  CB         6.6150  -40.2440   22.7910 C.3    92  LEU92       0.0270
     65  CG         7.4070  -40.9840   23.8750 C.3    92  LEU92       0.0019
     66  CD1        6.5950  -41.0960   25.1630 C.3    92  LEU92       0.0001
     67  CD2        7.8420  -42.3540   23.3900 C.3    92  LEU92       0.0001
     68  N          9.5000  -36.2670   20.0130 N.3    95  LEU95      -0.1245
     69  CA         8.8050  -36.8110   18.8500 C.3    95  LEU95       0.1561
     70  C          7.3350  -36.4400   18.8850 C.2    95  LEU95       0.2260
     71  O          6.6940  -36.4810   19.9360 O.2    95  LEU95      -0.2867
     72  CB         9.0050  -38.3220   18.6660 C.3    95  LEU95       0.0270
     73  CG        10.4010  -38.9480   18.5530 C.3    95  LEU95       0.0019
     74  CD1       11.3420  -38.7700   19.7500 C.3    95  LEU95       0.0001
     75  CD2       10.2680  -40.4260   18.1820 C.3    95  LEU95       0.0001
@<TRIPOS>BOND
     1     9     7   am
     2     6     7    1
     3     6     5    1
     4     7     8    2
     5     5     2    1
     6     2     1    1
     7     2     3    1
     8    13    12    2
     9    19    22    1
    10    19    20    1
    11    19    18    1
    12     3     4    2
    13     3    10   am
    14    22    23    1
    15    12    18   am
    16    12    11    1
    17    10    11    1
    18    20    21    2
    19    18    24    1
    20    23    24    1
    21    11    14    1
    22    14    15    1
    23    38    37    1
    24    15    17    1
    25    15    16    1
    26    46    44   am
    27    75    73    1
    28    37    34    1
    29    73    72    1
    30    73    74    1
    31    72    69    1
    32    69    70    1
    33    69    68    1
    34    70    71    2
    35    44    45    2
    36    44    43    1
    37    32    30    1
    38    33    34    1
    39    33    27   am
    40    34    35    1
    41    30    29    1
    42    30    31    1
    43    26    29    1
    44    26    27    1
    45    26    25    1
    46    27    28    2
    47    39    35   am
    48    39    40    1
    49    43    40    1
    50    35    36    2
    51    40    41    1
    52    42    41    2
    53    41    47   am
    54    60    61    1
    55    63    62    2
    56    64    61    1
    57    64    65    1
    58    47    48    1
    59    61    62    1
    60    67    65    1
    61    65    66    1
    62    48    51    1
    63    48    49    1
    64    52    51    1
    65    49    53   am
    66    49    50    2
    67    53    54    1
    68    59    57    1
    69    57    54    1
    70    57    58    1
    71    54    55    1
    72    55    56    2
