@<TRIPOS>MOLECULE
tmp/6e3sB00.pdb
 188 174 0 0 0
SMALL
GASTEIGER

@<TRIPOS>ATOM
      1  N        176.0120 -111.2250  167.0790 N.3   174  PHE174     -0.1241
      2  CA       177.4240 -111.5030  167.2960 C.3   174  PHE174      0.1605
      3  C        177.8740 -112.5780  166.3150 C.2   174  PHE174      0.2264
      4  O        177.0590 -113.3750  165.8370 O.2   174  PHE174     -0.2867
      5  CB       177.6640 -111.9370  168.7420 C.3   174  PHE174      0.0534
      6  CG       176.9630 -113.2030  169.1030 C.ar  174  PHE174     -0.0203
      7  CD1      175.6500 -113.1790  169.5050 C.ar  174  PHE174     -0.0042
      8  CD2      177.6010 -114.4290  168.9970 C.ar  174  PHE174     -0.0042
      9  CE1      174.9930 -114.3490  169.8190 C.ar  174  PHE174     -0.0003
     10  CE2      176.9360 -115.6110  169.3250 C.ar  174  PHE174     -0.0003
     11  CZ       175.6430 -115.5660  169.7260 C.ar  174  PHE174     -0.0000
     12  N        180.4600 -115.7690  164.8070 N.3   176  SER176     -0.1217
     13  CA       181.0680 -117.0140  165.2780 C.3   176  SER176      0.1889
     14  C        181.5940 -117.7730  164.0710 C.2   176  SER176      0.2288
     15  O        181.1310 -117.5710  162.9500 O.2   176  SER176     -0.2866
     16  CB       180.0910 -117.8480  166.1460 C.3   176  SER176      0.2089
     17  OG       179.1410 -118.6200  165.4170 O.3   176  SER176     -0.2183
     18  N        183.2710 -121.5180  162.5450 N.3   178  HIS178     -0.1241
     19  CA       183.1220 -122.9200  162.8750 C.3   178  HIS178      0.1621
     20  C        183.9110 -123.7920  161.9270 C.2   178  HIS178      0.2264
     21  O        184.0300 -123.5030  160.7330 O.2   178  HIS178     -0.2867
     22  CB       181.6490 -123.3750  162.8720 C.3   178  HIS178      0.0745
     23  CG       180.8040 -122.7090  163.9100 C.ar  178  HIS178      0.0817
     24  ND1      180.2320 -123.4270  164.9420 N.ar  178  HIS178     -0.2268
     25  CD2      180.3990 -121.4240  164.0700 C.ar  178  HIS178      0.1154
     26  CE1      179.5240 -122.6100  165.7020 C.ar  178  HIS178      0.1986
     27  NE2      179.6060 -121.3900  165.1960 N.ar  178  HIS178     -0.2212
     28  N        181.2360 -128.2770  162.4990 N.3   182  MET182     -0.1245
     29  CA       180.4520 -127.2700  163.2460 C.3   182  MET182      0.1570
     30  C        180.9850 -126.9670  164.6470 C.2   182  MET182      0.2261
     31  O        180.2300 -126.5520  165.5300 O.2   182  MET182     -0.2867
     32  CB       178.9800 -127.6650  163.3240 C.3   182  MET182      0.0387
     33  CG       178.6940 -129.1200  163.5770 C.3   182  MET182      0.0595
     34  SD       177.4230 -129.8330  162.5890 S.3   182  MET182     -0.1393
     35  CE       178.4800 -130.3280  161.2480 C.3   182  MET182      0.0692
     36  N        183.5710 -124.8420  167.3430 N.3   184  PHE184     -0.1241
     37  CA       183.7010 -123.4130  167.5620 C.3   184  PHE184      0.1605
     38  C        185.1780 -123.0690  167.3990 C.2   184  PHE184      0.2264
     39  O        185.9880 -123.3550  168.2790 O.2   184  PHE184     -0.2867
     40  CB       183.1570 -123.0560  168.9410 C.3   184  PHE184      0.0534
     41  CG       181.7530 -122.4980  168.9350 C.ar  184  PHE184     -0.0203
     42  CD1      181.5030 -121.1720  168.6000 C.ar  184  PHE184     -0.0042
     43  CD2      180.6800 -123.2920  169.3320 C.ar  184  PHE184     -0.0042
     44  CE1      180.1890 -120.6470  168.6280 C.ar  184  PHE184     -0.0003
     45  CE2      179.3230 -122.7640  169.3590 C.ar  184  PHE184     -0.0003
     46  CZ       179.1020 -121.4470  169.0090 C.ar  184  PHE184     -0.0000
     47  N        179.1460 -112.3570  173.1630 N.3   191  ILE191     -0.1245
     48  CA       178.4500 -113.5900  173.5080 C.3   191  ILE191      0.1561
     49  C        178.2630 -113.7010  175.0070 C.2   191  ILE191      0.2260
     50  O        177.2640 -114.2550  175.4840 O.2   191  ILE191     -0.2867
     51  CB       179.1880 -114.8080  172.9220 C.3   191  ILE191      0.0252
     52  CG1      178.5170 -116.0970  173.4070 C.3   191  ILE191      0.0019
     53  CG2      180.6580 -114.7760  173.3010 C.3   191  ILE191      0.0019
     54  CD1      177.2270 -116.4510  172.7410 C.3   191  ILE191      0.0001
     55  N        178.6820 -127.1630  168.0850 N.3   207  ALA207     -0.1245
     56  CA       177.4920 -126.3670  168.3420 C.3   207  ALA207      0.1562
     57  C        176.3310 -127.2050  168.8190 C.2   207  ALA207      0.2260
     58  O        175.4430 -126.6690  169.4860 O.2   207  ALA207     -0.2867
     59  CB       177.0610 -125.6310  167.0920 C.3   207  ALA207      0.0290
     60  N        174.8670 -127.0200  172.4410 N.3   210  PHE210     -0.1227
     61  CA       174.1100 -125.9080  172.9790 C.3   210  PHE210      0.1736
     62  C        172.7450 -125.7720  172.3750 C.2   210  PHE210      0.2595
     63  O        171.9810 -124.8970  172.8010 O.2   210  PHE210     -0.2718
     64  CB       174.8830 -124.6090  172.7640 C.3   210  PHE210      0.0547
     65  CG       176.3040 -124.7360  173.1980 C.ar  210  PHE210     -0.0202
     66  CD1      176.6440 -124.6530  174.5420 C.ar  210  PHE210     -0.0042
     67  CD2      177.2820 -125.0900  172.2740 C.ar  210  PHE210     -0.0042
     68  CE1      177.9550 -124.8080  174.9330 C.ar  210  PHE210     -0.0003
     69  CE2      178.5600 -125.2520  172.6560 C.ar  210  PHE210     -0.0003
     70  CZ       178.9100 -125.1280  173.9920 C.ar  210  PHE210     -0.0000
     71  N        172.4090 -126.5920  171.3990 N.am  211  TYR211     -0.1976
     72  CA       171.0420 -126.5650  170.9100 C.3   211  TYR211      0.1639
     73  C        170.0800 -127.1080  171.9600 C.2   211  TYR211      0.2290
     74  O        170.3240 -128.1330  172.5960 O.2   211  TYR211     -0.2864
     75  CB       170.9310 -127.3690  169.6190 C.3   211  TYR211      0.0560
     76  CG       171.6800 -126.7490  168.4720 C.ar  211  TYR211     -0.0198
     77  CD1      171.7860 -125.3730  168.3710 C.ar  211  TYR211     -0.0009
     78  CD2      172.2720 -127.5300  167.4930 C.ar  211  TYR211     -0.0009
     79  CE1      172.4600 -124.7820  167.3270 C.ar  211  TYR211      0.0417
     80  CE2      172.9620 -126.9470  166.4390 C.ar  211  TYR211      0.0417
     81  CZ       173.0500 -125.5660  166.3650 C.ar  211  TYR211      0.1957
     82  OH       173.7280 -124.9570  165.3310 O.3   211  TYR211     -0.2866
     83  N        168.1480 -127.8460  163.0180 N.3   219  MET219     -0.1245
     84  CA       169.4790 -127.2970  162.7930 C.3   219  MET219      0.1570
     85  C        170.3040 -128.1390  161.8000 C.2   219  MET219      0.2261
     86  O        170.9250 -127.5850  160.8770 O.2   219  MET219     -0.2867
     87  CB       170.1760 -127.1790  164.1250 C.3   219  MET219      0.0387
     88  CG       169.7820 -125.9310  164.9420 C.3   219  MET219      0.0595
     89  SD       169.2570 -124.5750  163.9160 S.3   219  MET219     -0.1393
     90  CE       170.7350 -123.5780  163.7750 C.3   219  MET219      0.0692
     91  N        169.3360 -127.3720  158.2960 N.3   222  SER222     -0.1202
     92  CA       169.8580 -126.0880  157.8660 C.3   222  SER222      0.2020
     93  C        171.3070 -126.2450  157.4560 C.2   222  SER222      0.2618
     94  O        171.7170 -125.8490  156.3560 O.2   222  SER222     -0.2717
     95  CB       169.7220 -125.0830  158.9890 C.3   222  SER222      0.2103
     96  OG       168.3520 -124.8530  159.2160 O.3   222  SER222     -0.2182
     97  N        172.0620 -126.9380  158.2870 N.am  223  HIS223     -0.1975
     98  CA       173.4570 -127.1660  157.9760 C.3   223  HIS223      0.1656
     99  C        173.6200 -127.8480  156.6340 C.2   223  HIS223      0.2291
    100  O        174.4060 -127.4070  155.7800 O.2   223  HIS223     -0.2864
    101  CB       174.0830 -128.0000  159.0760 C.3   223  HIS223      0.0771
    102  CG       175.5310 -128.2670  158.8500 C.ar  223  HIS223      0.0820
    103  ND1      176.4950 -127.2830  158.9100 N.ar  223  HIS223     -0.2267
    104  CD2      176.1830 -129.4230  158.5940 C.ar  223  HIS223      0.1154
    105  CE1      177.6790 -127.8210  158.6830 C.ar  223  HIS223      0.1986
    106  NE2      177.5160 -129.1160  158.4830 N.ar  223  HIS223     -0.2212
    107  N        173.0100 -125.4400  154.0400 N.3   226  LEU226     -0.1245
    108  CA       174.2020 -124.5920  153.9840 C.3   226  LEU226      0.1561
    109  C        175.3390 -125.2260  153.2000 C.2   226  LEU226      0.2260
    110  O        176.0970 -124.5270  152.5170 O.2   226  LEU226     -0.2867
    111  CB       174.7090 -124.2870  155.3890 C.3   226  LEU226      0.0270
    112  CG       176.0710 -123.5850  155.4040 C.3   226  LEU226      0.0019
    113  CD1      176.0620 -122.2360  154.6250 C.3   226  LEU226      0.0001
    114  CD2      176.6090 -123.4570  156.8230 C.3   226  LEU226      0.0001
    115  N        172.9740 -120.0220  154.1010 N.3   232  VAL232     -0.1245
    116  CA       171.7000 -120.4760  154.6500 C.3   232  VAL232      0.1561
    117  C        171.2560 -119.4680  155.6960 C.2   232  VAL232      0.2260
    118  O        172.0820 -118.7200  156.2410 O.2   232  VAL232     -0.2867
    119  CB       171.8280 -121.9060  155.2460 C.3   232  VAL232      0.0252
    120  CG1      172.4870 -121.8630  156.5560 C.3   232  VAL232      0.0019
    121  CG2      170.4840 -122.5380  155.4050 C.3   232  VAL232      0.0019
    122  N        169.1010 -120.0220  159.2360 N.3   234  SER234     -0.1217
    123  CA       168.4380 -120.9900  160.0870 C.3   234  SER234      0.1889
    124  C        166.9940 -120.5510  160.3350 C.2   234  SER234      0.2288
    125  O        166.6270 -119.3800  160.1980 O.2   234  SER234     -0.2866
    126  CB       169.1280 -121.1020  161.4460 C.3   234  SER234      0.2089
    127  OG       169.0350 -119.8760  162.1750 O.3   234  SER234     -0.2183
    128  N        165.7700 -120.8220  166.7760 N.3   237  TYR237     -0.1241
    129  CA       166.1160 -121.9180  167.6670 C.3   237  TYR237      0.1605
    130  C        166.6570 -121.2810  168.9400 C.2   237  TYR237      0.2264
    131  O        167.0060 -120.1050  168.9520 O.2   237  TYR237     -0.2867
    132  CB       167.1460 -122.8610  167.0380 C.3   237  TYR237      0.0534
    133  CG       168.4690 -122.1990  166.8400 C.ar  237  TYR237     -0.0201
    134  CD1      168.7060 -121.3480  165.7670 C.ar  237  TYR237     -0.0009
    135  CD2      169.4410 -122.3120  167.8200 C.ar  237  TYR237     -0.0009
    136  CE1      169.9260 -120.7070  165.6350 C.ar  237  TYR237      0.0417
    137  CE2      170.6390 -121.6830  167.7020 C.ar  237  TYR237      0.0417
    138  CZ       170.8750 -120.8870  166.6130 C.ar  237  TYR237      0.1957
    139  OH       172.0750 -120.2690  166.5350 O.3   237  TYR237     -0.2866
    140  N        169.4580 -121.2920  172.0250 N.3   239  MET239     -0.1245
    141  CA       170.7190 -121.7570  172.5720 C.3   239  MET239      0.1570
    142  C        170.6400 -121.8060  174.0800 C.2   239  MET239      0.2261
    143  O        170.1740 -120.8510  174.7110 O.2   239  MET239     -0.2867
    144  CB       171.8660 -120.8480  172.1560 C.3   239  MET239      0.0387
    145  CG       173.1940 -121.2560  172.7570 C.3   239  MET239      0.0595
    146  SD       174.5200 -120.1730  172.2120 S.3   239  MET239     -0.1393
    147  CE       175.9660 -121.0720  172.7700 C.3   239  MET239      0.0692
    148  N        167.7980 -117.5500  169.2890 N.3   249  LEU249     -0.1245
    149  CA       168.6560 -117.0940  168.2040 C.3   249  LEU249      0.1561
    150  C        168.1240 -117.4580  166.8300 C.2   249  LEU249      0.2260
    151  O        167.3070 -118.3680  166.6480 O.2   249  LEU249     -0.2867
    152  CB       170.0670 -117.6520  168.2520 C.3   249  LEU249      0.0270
    153  CG       170.9700 -117.0810  169.2940 C.3   249  LEU249      0.0019
    154  CD1      171.8140 -118.2500  169.7090 C.3   249  LEU249      0.0001
    155  CD2      171.7660 -115.9770  168.6700 C.3   249  LEU249      0.0001
    156  N        170.3820 -117.4340  163.0610 N.3   251  THR251     -0.1218
    157  CA       171.7140 -117.3200  162.4870 C.3   251  THR251      0.1862
    158  C        171.6030 -117.4390  160.9770 C.2   251  THR251      0.2287
    159  O        170.8880 -118.3150  160.4780 O.2   251  THR251     -0.2866
    160  CB       172.6160 -118.4240  163.0270 C.3   251  THR251      0.1770
    161  OG1      172.7070 -118.2990  164.4380 O.3   251  THR251     -0.2211
    162  CG2      174.0030 -118.3910  162.4100 C.3   251  THR251      0.0375
    163  N        174.3840 -118.1550  157.8500 N.3   253  GLY253     -0.1225
    164  CA       175.7230 -118.7120  157.7600 C.3   253  GLY253      0.1811
    165  C        176.2220 -118.9020  156.3450 C.2   253  GLY253      0.2280
    166  O        175.4600 -119.1220  155.4020 O.2   253  GLY253     -0.2866
    167  N        183.0640 -121.9830  158.4060 N.3   267  ILE267     -0.1245
    168  CA       181.7270 -121.4440  158.2480 C.3   267  ILE267      0.1561
    169  C        181.6280 -120.1920  159.0960 C.2   267  ILE267      0.2260
    170  O        181.8740 -120.2400  160.3070 O.2   267  ILE267     -0.2867
    171  CB       180.6480 -122.4410  158.6780 C.3   267  ILE267      0.0252
    172  CG1      180.6250 -123.6230  157.7120 C.3   267  ILE267      0.0019
    173  CG2      179.2930 -121.7330  158.7120 C.3   267  ILE267      0.0019
    174  CD1      179.6900 -124.7060  158.1110 C.3   267  ILE267      0.0001
    175  N        179.2100 -117.6090  160.8160 N.3   269  CYS269     -0.1235
    176  CA       177.8630 -117.4260  161.3310 C.3   269  CYS269      0.1677
    177  C        177.6980 -116.0070  161.8500 C.2   269  CYS269      0.2270
    178  O        178.5160 -115.5380  162.6550 O.2   269  CYS269     -0.2867
    179  CB       177.5790 -118.3950  162.4720 C.3   269  CYS269      0.0956
    180  SG       177.5670 -120.0990  162.0070 S.3   269  CYS269     -0.0801
    181  N        174.9300 -114.1210  164.1040 N.3   271  ASN271     -0.1240
    182  CA       173.9520 -114.6810  165.0330 C.3   271  ASN271      0.1653
    183  C        173.0930 -113.5880  165.6590 C.2   271  ASN271      0.2266
    184  O        173.6080 -112.7010  166.3470 O.2   271  ASN271     -0.2867
    185  CB       174.6510 -115.5170  166.1080 C.3   271  ASN271      0.1155
    186  CG       175.6670 -116.5020  165.5190 C.2   271  ASN271      0.2627
    187  OD1      175.3270 -117.6530  165.2170 O.2   271  ASN271     -0.2716
    188  ND2      176.9230 -116.0850  165.4300 N.am  271  ASN271     -0.0877
@<TRIPOS>BOND
     1   110   109    2
     2   109   108    1
     3   108   107    1
     4   108   111    1
     5   115   116    1
     6   113   112    1
     7   116   119    1
     8   116   117    1
     9   119   121    1
    10   119   120    1
    11   111   112    1
    12   166   165    2
    13   112   114    1
    14   117   118    2
    15   100    99    2
    16   165   164    1
    17    94    93    2
    18    99    98    1
    19    93    92    1
    20    93    97   am
    21   172   174    1
    22   172   171    1
    23   164   163    1
    24    92    91    1
    25    92    95    1
    26    98    97    1
    27    98   101    1
    28   168   167    1
    29   168   171    1
    30   168   169    1
    31   106   104   ar
    32   106   105   ar
    33   104   102   ar
    34   171   173    1
    35   105   103   ar
    36   102   103   ar
    37   102   101    1
    38    95    96    1
    39   169   170    2
    40   122   123    1
    41   123   124    1
    42   123   126    1
    43   125   124    2
    44   159   158    2
    45    21    20    2
    46   175   176    1
    47    86    85    2
    48   158   157    1
    49    35    34    1
    50   176   177    1
    51   176   179    1
    52   126   127    1
    53    85    84    1
    54   177   178    2
    55    20    19    1
    56   180   179    1
    57   162   160    1
    58   157   160    1
    59   157   156    1
    60    28    29    1
    61    18    19    1
    62    34    33    1
    63    84    83    1
    64    84    87    1
    65    22    19    1
    66    22    23    1
    67    15    14    2
    68   160   161    1
    69    29    32    1
    70    29    30    1
    71    32    33    1
    72    90    89    1
    73    23    25   ar
    74    23    24   ar
    75    89    88    1
    76    25    27   ar
    77    14    13    1
    78   181   182    1
    79    87    88    1
    80    30    31    2
    81    12    13    1
    82    24    26   ar
    83   182   183    1
    84   182   185    1
    85    27    26   ar
    86   187   186    2
    87    13    16    1
    88    82    81    1
    89    17    16    1
    90   188   186   am
    91   186   185    1
    92   136   134   ar
    93   136   138   ar
    94   183   184    2
    95   134   133   ar
    96     4     3    2
    97     3     2    1
    98    81    80   ar
    99    81    79   ar
   100    80    78   ar
   101   139   138    1
   102   138   137   ar
   103   151   150    2
   104   128   129    1
   105   150   149    1
   106   133   132    1
   107   133   135   ar
   108   132   129    1
   109     1     2    1
   110    59    56    1
   111     2     5    1
   112    79    77   ar
   113    36    37    1
   114    38    37    1
   115    38    39    2
   116    78    76   ar
   117    37    40    1
   118   129   130    1
   119   137   135   ar
   120    55    56    1
   121   149   152    1
   122   149   148    1
   123   152   153    1
   124    56    57    1
   125    77    76   ar
   126    76    75    1
   127    42    44   ar
   128    42    41   ar
   129    44    46   ar
   130   155   153    1
   131     5     6    1
   132    57    58    2
   133    41    40    1
   134    41    43   ar
   135   130   131    2
   136     8     6   ar
   137     8    10   ar
   138    46    45   ar
   139     6     7   ar
   140   153   154    1
   141    10    11   ar
   142    43    45   ar
   143     7     9   ar
   144    75    72    1
   145    11     9   ar
   146    72    71    1
   147    72    73    1
   148    71    62   am
   149    73    74    2
   150   140   141    1
   151   144   141    1
   152   144   145    1
   153   146   145    1
   154   146   147    1
   155    67    69   ar
   156    67    65   ar
   157    62    63    2
   158    62    61    1
   159    60    61    1
   160   141   142    1
   161    69    70   ar
   162    54    52    1
   163    64    61    1
   164    64    65    1
   165    51    53    1
   166    51    52    1
   167    51    48    1
   168    47    48    1
   169    65    66   ar
   170    48    49    1
   171    70    68   ar
   172   142   143    2
   173    66    68   ar
   174    49    50    2
