@<TRIPOS>MOLECULE
tmp/6e3tB00.pdb
 169 155 0 0 0
SMALL
GASTEIGER

@<TRIPOS>ATOM
      1  N        -27.4280   27.6340  -18.8130 N.3   168  PHE168     -0.1241
      2  CA       -28.7770   27.1590  -19.1160 C.3   168  PHE168      0.1605
      3  C        -29.2660   26.1410  -18.0880 C.2   168  PHE168      0.2264
      4  O        -28.5640   25.1680  -17.7810 O.2   168  PHE168     -0.2867
      5  CB       -28.8560   26.5660  -20.5290 C.3   168  PHE168      0.0534
      6  CG       -28.2490   25.2000  -20.6720 C.ar  168  PHE168     -0.0203
      7  CD1      -29.0000   24.0640  -20.4430 C.ar  168  PHE168     -0.0042
      8  CD2      -26.9680   25.0520  -21.1750 C.ar  168  PHE168     -0.0042
      9  CE1      -28.4520   22.8020  -20.5860 C.ar  168  PHE168     -0.0003
     10  CE2      -26.4220   23.7880  -21.3610 C.ar  168  PHE168     -0.0003
     11  CZ       -27.1730   22.6630  -21.0690 C.ar  168  PHE168     -0.0000
     12  N        -31.9750   23.3340  -16.1840 N.3   170  SER170     -0.1217
     13  CA       -32.2820   21.9770  -16.5930 C.3   170  SER170      0.1889
     14  C        -32.9010   21.2290  -15.4190 C.2   170  SER170      0.2288
     15  O        -32.4910   21.4220  -14.2690 O.2   170  SER170     -0.2866
     16  CB       -30.9980   21.2960  -17.0660 C.3   170  SER170      0.2089
     17  OG       -31.2780   20.0700  -17.6820 O.3   170  SER170     -0.2183
     18  N        -34.2410   17.2250  -14.1350 N.3   172  HIS172     -0.1241
     19  CA       -34.0950   15.8050  -14.3680 C.3   172  HIS172      0.1621
     20  C        -34.8090   15.0170  -13.3100 C.2   172  HIS172      0.2264
     21  O        -34.9490   15.4420  -12.1530 O.2   172  HIS172     -0.2867
     22  CB       -32.6360   15.3840  -14.4080 C.3   172  HIS172      0.0745
     23  CG       -31.8450   16.2240  -15.3280 C.ar  172  HIS172      0.0817
     24  ND1      -31.5480   17.5370  -15.0470 N.ar  172  HIS172     -0.2268
     25  CD2      -31.3010   15.9510  -16.5360 C.ar  172  HIS172      0.1154
     26  CE1      -30.8710   18.0450  -16.0570 C.ar  172  HIS172      0.1986
     27  NE2      -30.7020   17.1050  -16.9710 N.ar  172  HIS172     -0.2212
     28  N        -31.7180   11.1520  -13.7800 N.3   176  MET176     -0.1245
     29  CA       -31.0770   12.1760  -14.6110 C.3   176  MET176      0.1570
     30  C        -31.6320   12.2560  -16.0180 C.2   176  MET176      0.2261
     31  O        -31.0210   12.9090  -16.8660 O.2   176  MET176     -0.2867
     32  CB       -29.5590   11.9470  -14.7110 C.3   176  MET176      0.0387
     33  CG       -28.7300   12.4590  -13.5520 C.3   176  MET176      0.0595
     34  SD       -28.5070   14.2300  -13.6280 S.3   176  MET176     -0.1393
     35  CE       -29.8010   14.8030  -12.6070 C.3   176  MET176      0.0692
     36  N        -33.7200   13.8260  -18.8210 N.3   178  PHE178     -0.1241
     37  CA       -34.2130   15.1760  -19.0240 C.3   178  PHE178      0.1605
     38  C        -35.7050   15.2350  -18.8830 C.2   178  PHE178      0.2264
     39  O        -36.4370   14.7030  -19.7180 O.2   178  PHE178     -0.2867
     40  CB       -33.8760   15.7010  -20.3890 C.3   178  PHE178      0.0534
     41  CG       -32.4730   15.9580  -20.5630 C.ar  178  PHE178     -0.0203
     42  CD1      -31.6120   14.9260  -20.8530 C.ar  178  PHE178     -0.0042
     43  CD2      -31.9920   17.2360  -20.4160 C.ar  178  PHE178     -0.0042
     44  CE1      -30.3000   15.1580  -21.0130 C.ar  178  PHE178     -0.0003
     45  CE2      -30.6620   17.4770  -20.5610 C.ar  178  PHE178     -0.0003
     46  CZ       -29.8080   16.4300  -20.8570 C.ar  178  PHE178     -0.0000
     47  N        -30.7490   26.5030  -24.8980 N.3   185  ILE185     -0.1245
     48  CA       -29.7910   25.4330  -25.1650 C.3   185  ILE185      0.1561
     49  C        -29.6620   25.1530  -26.6550 C.2   185  ILE185      0.2260
     50  O        -28.5840   24.7890  -27.1420 O.2   185  ILE185     -0.2867
     51  CB       -30.1760   24.1280  -24.4590 C.3   185  ILE185      0.0252
     52  CG1      -29.1750   23.0300  -24.8370 C.3   185  ILE185      0.0019
     53  CG2      -31.5380   23.6450  -24.9280 C.3   185  ILE185      0.0019
     54  CD1      -29.1320   21.9140  -23.8840 C.3   185  ILE185      0.0001
     55  N        -29.6770   11.7580  -19.5350 N.3   201  ALA201     -0.1245
     56  CA       -28.5590   12.6740  -19.7060 C.3   201  ALA201      0.1562
     57  C        -27.3020   11.9560  -20.1790 C.2   201  ALA201      0.2260
     58  O        -26.4690   12.5780  -20.8530 O.2   201  ALA201     -0.2867
     59  CB       -28.2790   13.4280  -18.4100 C.3   201  ALA201      0.0290
     60  N        -23.2190   12.6140  -22.9530 N.3   205  TYR205     -0.1241
     61  CA       -21.8240   12.8140  -22.5540 C.3   205  TYR205      0.1605
     62  C        -20.8820   12.0450  -23.4610 C.2   205  TYR205      0.2264
     63  O        -21.1810   10.9320  -23.9000 O.2   205  TYR205     -0.2867
     64  CB       -21.5640   12.3260  -21.1300 C.3   205  TYR205      0.0534
     65  CG       -22.5280   12.7790  -20.1050 C.ar  205  TYR205     -0.0201
     66  CD1      -22.9560   14.0970  -20.0760 C.ar  205  TYR205     -0.0009
     67  CD2      -22.9990   11.9000  -19.1560 C.ar  205  TYR205     -0.0009
     68  CE1      -23.8530   14.5310  -19.1160 C.ar  205  TYR205      0.0417
     69  CE2      -23.8870   12.3050  -18.2020 C.ar  205  TYR205      0.0417
     70  CZ       -24.3130   13.6230  -18.1750 C.ar  205  TYR205      0.1957
     71  OH       -25.2280   13.9980  -17.1970 O.3   205  TYR205     -0.2866
     72  N        -18.9020   11.2150  -14.3540 N.3   213  MET213     -0.1245
     73  CA       -20.2270   11.7220  -14.0030 C.3   213  MET213      0.1570
     74  C        -20.8400   10.8850  -12.8860 C.2   213  MET213      0.2261
     75  O        -21.4210   11.4320  -11.9400 O.2   213  MET213     -0.2867
     76  CB       -21.1510   11.7180  -15.2250 C.3   213  MET213      0.0387
     77  CG       -20.9230   12.8190  -16.2500 C.3   213  MET213      0.0595
     78  SD       -20.9220   14.5090  -15.6960 S.3   213  MET213     -0.1393
     79  CE       -19.1700   14.7340  -15.4300 C.3   213  MET213      0.0692
     80  N        -20.0250   12.3240   -9.6310 N.3   216  SER216     -0.1202
     81  CA       -20.8280   13.5250   -9.4660 C.3   216  SER216      0.2020
     82  C        -22.2920   13.1810   -9.1880 C.2   216  SER216      0.2618
     83  O        -22.9030   13.7680   -8.2850 O.2   216  SER216     -0.2717
     84  CB       -20.6910   14.4170  -10.6860 C.3   216  SER216      0.2103
     85  OG       -19.3820   15.0010  -10.8020 O.3   216  SER216     -0.2182
     86  N        -22.8610   12.1970   -9.9020 N.am  217  HIS217     -0.1975
     87  CA       -24.2870   11.8940   -9.7090 C.3   217  HIS217      0.1656
     88  C        -24.5410   11.3420   -8.3050 C.2   217  HIS217      0.2291
     89  O        -25.4740   11.7820   -7.6180 O.2   217  HIS217     -0.2864
     90  CB       -24.7870   10.9340  -10.8090 C.3   217  HIS217      0.0771
     91  CG       -26.2880   10.7420  -10.8630 C.ar  217  HIS217      0.0820
     92  ND1      -26.9020    9.9890  -11.8470 N.ar  217  HIS217     -0.2267
     93  CD2      -27.2890   11.1790  -10.0560 C.ar  217  HIS217      0.1154
     94  CE1      -28.2080    9.9790  -11.6480 C.ar  217  HIS217      0.1986
     95  NE2      -28.4710   10.6950  -10.5700 N.ar  217  HIS217     -0.2212
     96  N        -24.2840   14.0130   -5.7480 N.3   220  LEU220     -0.1245
     97  CA       -25.5630   14.7150   -5.8690 C.3   220  LEU220      0.1561
     98  C        -26.6610   14.0550   -5.0370 C.2   220  LEU220      0.2260
     99  O        -27.3410   14.7100   -4.2340 O.2   220  LEU220     -0.2867
    100  CB       -25.9570   14.7560   -7.3520 C.3   220  LEU220      0.0270
    101  CG       -27.2450   15.4410   -7.8310 C.3   220  LEU220      0.0019
    102  CD1      -27.3520   16.7640   -7.1630 C.3   220  LEU220      0.0001
    103  CD2      -27.2570   15.6100   -9.3390 C.3   220  LEU220      0.0001
    104  N        -24.0280   19.3030   -5.6350 N.3   226  VAL226     -0.1245
    105  CA       -22.7880   18.8100   -6.2530 C.3   226  VAL226      0.1561
    106  C        -22.3130   19.7950   -7.3010 C.2   226  VAL226      0.2260
    107  O        -23.1160   20.5280   -7.8830 O.2   226  VAL226     -0.2867
    108  CB       -22.9480   17.4200   -6.9010 C.3   226  VAL226      0.0252
    109  CG1      -23.5150   17.5610   -8.2590 C.3   226  VAL226      0.0019
    110  CG2      -21.6180   16.7860   -7.0970 C.3   226  VAL226      0.0019
    111  N        -20.0430   19.3630  -10.8820 N.3   228  SER228     -0.1217
    112  CA       -19.3510   18.3920  -11.7050 C.3   228  SER228      0.1889
    113  C        -17.9590   18.9040  -12.0020 C.2   228  SER228      0.2288
    114  O        -17.5760   20.0340  -11.6750 O.2   228  SER228     -0.2866
    115  CB       -20.0900   18.1260  -13.0310 C.3   228  SER228      0.2089
    116  OG       -20.2560   19.2890  -13.8420 O.3   228  SER228     -0.2183
    117  N        -16.8700   18.5800  -18.4090 N.3   231  TYR231     -0.1241
    118  CA       -17.2200   17.4350  -19.2180 C.3   231  TYR231      0.1605
    119  C        -17.7970   17.9750  -20.5040 C.2   231  TYR231      0.2264
    120  O        -18.0720   19.1800  -20.6360 O.2   231  TYR231     -0.2867
    121  CB       -18.2030   16.4910  -18.5300 C.3   231  TYR231      0.0534
    122  CG       -19.5850   17.0740  -18.3770 C.ar  231  TYR231     -0.0201
    123  CD1      -20.5380   16.9710  -19.3890 C.ar  231  TYR231     -0.0009
    124  CD2      -19.9180   17.7910  -17.2400 C.ar  231  TYR231     -0.0009
    125  CE1      -21.7980   17.5400  -19.2440 C.ar  231  TYR231      0.0417
    126  CE2      -21.1610   18.3400  -17.0810 C.ar  231  TYR231      0.0417
    127  CZ       -22.1020   18.2170  -18.0870 C.ar  231  TYR231      0.1957
    128  OH       -23.3410   18.7690  -17.9220 O.3   231  TYR231     -0.2866
    129  N        -20.7810   17.5280  -23.2560 N.3   233  MET233     -0.1245
    130  CA       -22.0130   17.0660  -23.8670 C.3   233  MET233      0.1570
    131  C        -21.9040   17.1360  -25.3780 C.2   233  MET233      0.2261
    132  O        -21.3430   18.0910  -25.9190 O.2   233  MET233     -0.2867
    133  CB       -23.1740   17.9230  -23.4040 C.3   233  MET233      0.0387
    134  CG       -24.2010   18.1030  -24.4690 C.3   233  MET233      0.0595
    135  SD       -25.7160   18.8460  -23.9040 S.3   233  MET233     -0.1393
    136  CE       -26.4200   17.3600  -23.2260 C.3   233  MET233      0.0692
    137  N        -19.0430   21.6730  -20.3430 N.3   243  LEU243     -0.1245
    138  CA       -20.0080   22.2020  -19.3970 C.3   243  LEU243      0.1561
    139  C        -19.4500   22.0360  -18.0060 C.2   243  LEU243      0.2260
    140  O        -18.7150   21.0830  -17.7330 O.2   243  LEU243     -0.2867
    141  CB       -21.3380   21.4680  -19.4560 C.3   243  LEU243      0.0270
    142  CG       -22.2030   21.5670  -20.6730 C.3   243  LEU243      0.0019
    143  CD1      -23.1860   20.4710  -20.4830 C.3   243  LEU243      0.0001
    144  CD2      -22.8180   22.9250  -20.6800 C.3   243  LEU243      0.0001
    145  N        -21.7390   22.0900  -14.3890 N.3   245  THR245     -0.1218
    146  CA       -23.0910   22.2670  -13.8840 C.3   245  THR245      0.1862
    147  C        -23.1030   22.1110  -12.3760 C.2   245  THR245      0.2287
    148  O        -22.4990   21.1790  -11.8340 O.2   245  THR245     -0.2866
    149  CB       -24.0990   21.2680  -14.5040 C.3   245  THR245      0.1770
    150  OG1      -24.0740   20.0280  -13.7870 O.3   245  THR245     -0.2211
    151  CG2      -23.7570   20.9950  -15.9510 C.3   245  THR245      0.0375
    152  N        -25.5290   20.9330   -9.7450 N.3   247  GLY247     -0.1225
    153  CA       -26.7290   20.1380   -9.6300 C.3   247  GLY247      0.1811
    154  C        -27.1780   19.9780   -8.1680 C.2   247  GLY247      0.2280
    155  O        -26.4350   19.4380   -7.3640 O.2   247  GLY247     -0.2866
    156  N        -30.5230   21.7090  -12.2900 N.3   263  CYS263     -0.1235
    157  CA       -29.1210   21.9680  -12.6080 C.3   263  CYS263      0.1677
    158  C        -28.9390   23.2860  -13.3390 C.2   263  CYS263      0.2270
    159  O        -29.5770   23.5290  -14.3730 O.2   263  CYS263     -0.2867
    160  CB       -28.5150   20.8510  -13.4650 C.3   263  CYS263      0.0956
    161  SG       -29.1990   19.2490  -13.1530 S.3   263  CYS263     -0.0801
    162  N        -26.2300   24.9990  -15.6450 N.3   265  ASN265     -0.1240
    163  CA       -25.2010   24.4160  -16.4970 C.3   265  ASN265      0.1653
    164  C        -24.4460   25.5710  -17.1300 C.2   265  ASN265      0.2266
    165  O        -24.9480   26.2350  -18.0450 O.2   265  ASN265     -0.2867
    166  CB       -25.8250   23.4990  -17.5330 C.3   265  ASN265      0.1155
    167  CG       -26.9680   22.6670  -16.9390 C.2   265  ASN265      0.2627
    168  OD1      -26.7480   21.7670  -16.1380 O.2   265  ASN265     -0.2716
    169  ND2      -28.2100   23.0380  -17.2740 N.am  265  ASN265     -0.0877
@<TRIPOS>BOND
     1    50    49    2
     2    49    48    1
     3   132   131    2
     4   131   130    1
     5    48    47    1
     6    48    51    1
     7    53    51    1
     8    52    51    1
     9    52    54    1
    10   134   135    1
    11   134   133    1
    12   135   136    1
    13    63    62    2
    14   130   133    1
    15   130   129    1
    16    62    61    1
    17    60    61    1
    18    61    64    1
    19    10     8   ar
    20    10    11   ar
    21     8     6   ar
    22    64    65    1
    23    11     9   ar
    24    44    46   ar
    25    44    42   ar
    26    46    45   ar
    27    42    41   ar
    28    58    57    2
    29   144   142    1
    30   142   143    1
    31   142   141    1
    32     6     5    1
    33     6     7   ar
    34   120   119    2
    35     9     7   ar
    36    41    43   ar
    37    41    40    1
    38    45    43   ar
    39     5     2    1
    40   119   118    1
    41    40    37    1
    42   137   138    1
    43    57    56    1
    44    65    66   ar
    45    65    67   ar
    46    66    68   ar
    47    39    38    2
    48    56    55    1
    49    56    59    1
    50   141   138    1
    51   138   139    1
    52   123   125   ar
    53   123   122   ar
    54   125   127   ar
    55   118   121    1
    56   118   117    1
    57    67    69   ar
    58    68    70   ar
    59     2     1    1
    60     2     3    1
    61    37    38    1
    62    37    36    1
    63   121   122    1
    64   122   124   ar
    65    69    70   ar
    66    70    71    1
    67     3     4    2
    68   127   128    1
    69   127   126   ar
    70   165   164    2
    71   139   140    2
    72    17    16    1
    73   166   167    1
    74   166   163    1
    75   169   167   am
    76   124   126   ar
    77   164   163    1
    78    16    13    1
    79    27    25   ar
    80    27    26   ar
    81   167   168    2
    82    31    30    2
    83    13    12    1
    84    13    14    1
    85    25    23   ar
    86   163   162    1
    87    77    78    1
    88    77    76    1
    89    26    24   ar
    90    30    29    1
    91   151   149    1
    92    78    79    1
    93    14    15    2
    94    23    24   ar
    95    23    22    1
    96    76    73    1
    97    32    29    1
    98    32    33    1
    99    29    28    1
   100   149   146    1
   101   149   150    1
   102    22    19    1
   103   145   146    1
   104   159   158    2
   105    19    18    1
   106    19    20    1
   107    72    73    1
   108    73    74    1
   109   146   147    1
   110   116   115    1
   111    34    33    1
   112    34    35    1
   113   160   161    1
   114   160   157    1
   115   158   157    1
   116    20    21    2
   117   115   112    1
   118    74    75    2
   119   157   156    1
   120   147   148    2
   121   113   112    1
   122   113   114    2
   123    92    94   ar
   124    92    91   ar
   125   112   111    1
   126    94    95   ar
   127    91    90    1
   128    91    93   ar
   129    90    87    1
   130    85    84    1
   131    84    81    1
   132    95    93   ar
   133    86    87    1
   134    86    82   am
   135   152   153    1
   136    87    88    1
   137    80    81    1
   138   153   154    1
   139    81    82    1
   140   103   101    1
   141    82    83    2
   142    88    89    2
   143   109   108    1
   144   154   155    2
   145   107   106    2
   146   101   100    1
   147   101   102    1
   148   100    97    1
   149   106   105    1
   150   110   108    1
   151   108   105    1
   152   105   104    1
   153    97    96    1
   154    97    98    1
   155    98    99    2
