@<TRIPOS>MOLECULE
tmp/6e3uB00.pdb
 184 173 0 0 0
SMALL
GASTEIGER

@<TRIPOS>ATOM
      1  N        203.2740 -104.9910  239.7400 N.3   176  PHE176     -0.1241
      2  CA       204.6710 -105.3620  239.9340 C.3   176  PHE176      0.1605
      3  C        205.1120 -106.3710  238.8800 C.2   176  PHE176      0.2264
      4  O        204.3250 -107.1990  238.4110 O.2   176  PHE176     -0.2867
      5  CB       204.9150 -105.9470  241.3190 C.3   176  PHE176      0.0534
      6  CG       204.2760 -107.2780  241.5170 C.ar  176  PHE176     -0.0203
      7  CD1      202.9410 -107.3650  241.8530 C.ar  176  PHE176     -0.0042
      8  CD2      204.9860 -108.4420  241.3110 C.ar  176  PHE176     -0.0042
      9  CE1      202.3400 -108.6090  242.0480 C.ar  176  PHE176     -0.0003
     10  CE2      204.4050 -109.6640  241.4710 C.ar  176  PHE176     -0.0003
     11  CZ       203.0800 -109.7590  241.8570 C.ar  176  PHE176     -0.0000
     12  N        207.6710 -109.4050  237.2130 N.3   178  SER178     -0.1217
     13  CA       208.2490 -110.6640  237.6690 C.3   178  SER178      0.1889
     14  C        208.8090 -111.4190  236.4800 C.2   178  SER178      0.2288
     15  O        208.3110 -111.2890  235.3550 O.2   178  SER178     -0.2866
     16  CB       207.2300 -111.5330  238.3990 C.3   178  SER178      0.2089
     17  OG       206.0850 -111.7700  237.6000 O.3   178  SER178     -0.2183
     18  N        210.2550 -115.2840  235.0810 N.3   180  HIS180     -0.1241
     19  CA       210.0510 -116.7160  235.2520 C.3   180  HIS180      0.1621
     20  C        210.8300 -117.4840  234.1990 C.2   180  HIS180      0.2264
     21  O        210.9680 -117.0410  233.0660 O.2   180  HIS180     -0.2867
     22  CB       208.5600 -117.0800  235.1660 C.3   180  HIS180      0.0745
     23  CG       207.7470 -116.4480  236.2450 C.ar  180  HIS180      0.0817
     24  ND1      207.3820 -117.1180  237.3990 N.ar  180  HIS180     -0.2268
     25  CD2      207.2790 -115.1870  236.3780 C.ar  180  HIS180      0.1154
     26  CE1      206.7000 -116.3050  238.1830 C.ar  180  HIS180      0.1986
     27  NE2      206.6120 -115.1310  237.5810 N.ar  180  HIS180     -0.2212
     28  N        207.8260 -121.6990  234.5730 N.3   184  MET184     -0.1245
     29  CA       207.1590 -120.7200  235.4180 C.3   184  MET184      0.1570
     30  C        207.7830 -120.6390  236.8100 C.2   184  MET184      0.2261
     31  O        207.1320 -120.1190  237.7230 O.2   184  MET184     -0.2867
     32  CB       205.6550 -121.0010  235.5680 C.3   184  MET184      0.0387
     33  CG       204.7760 -120.4420  234.4600 C.3   184  MET184      0.0595
     34  SD       205.1580 -118.7220  234.0650 S.3   184  MET184     -0.1393
     35  CE       204.5430 -117.9500  235.5640 C.3   184  MET184      0.0692
     36  N        210.0220 -118.9520  239.6120 N.3   186  PHE186     -0.1241
     37  CA       210.3820 -117.5680  239.8800 C.3   186  PHE186      0.1605
     38  C        211.8840 -117.3700  239.7480 C.2   186  PHE186      0.2264
     39  O        212.6780 -118.0960  240.3500 O.2   186  PHE186     -0.2867
     40  CB       209.9390 -117.1900  241.2880 C.3   186  PHE186      0.0534
     41  CG       208.5730 -116.5880  241.3620 C.ar  186  PHE186     -0.0203
     42  CD1      208.3870 -115.2690  241.0410 C.ar  186  PHE186     -0.0042
     43  CD2      207.4850 -117.3420  241.7560 C.ar  186  PHE186     -0.0042
     44  CE1      207.1400 -114.7020  241.1250 C.ar  186  PHE186     -0.0003
     45  CE2      206.2590 -116.7970  241.8300 C.ar  186  PHE186     -0.0003
     46  CZ       206.0700 -115.4650  241.5170 C.ar  186  PHE186     -0.0000
     47  N        205.8530 -121.0980  240.5590 N.3   209  ALA209     -0.1231
     48  CA       204.7290 -120.2150  240.7780 C.3   209  ALA209      0.1694
     49  C        203.4140 -120.9740  240.8960 C.2   209  ALA209      0.2592
     50  O        202.4030 -120.3610  241.2540 O.2   209  ALA209     -0.2718
     51  CB       204.6700 -119.1930  239.6420 C.3   209  ALA209      0.0304
     52  N        203.4090 -122.2760  240.5830 N.am  210  TYR210     -0.1976
     53  CA       202.2690 -123.1560  240.7580 C.3   210  TYR210      0.1639
     54  C        201.9520 -123.4130  242.2070 C.2   210  TYR210      0.2290
     55  O        200.9190 -124.0270  242.4820 O.2   210  TYR210     -0.2864
     56  CB       202.5110 -124.5140  240.0610 C.3   210  TYR210      0.0560
     57  CG       202.2430 -124.4590  238.5700 C.ar  210  TYR210     -0.0198
     58  CD1      200.9380 -124.4990  238.0750 C.ar  210  TYR210     -0.0009
     59  CD2      203.2910 -124.3240  237.6620 C.ar  210  TYR210     -0.0009
     60  CE1      200.6880 -124.4110  236.7290 C.ar  210  TYR210      0.0417
     61  CE2      203.0530 -124.2430  236.3190 C.ar  210  TYR210      0.0417
     62  CZ       201.7400 -124.2940  235.8480 C.ar  210  TYR210      0.1957
     63  OH       201.4710 -124.2040  234.4930 O.3   210  TYR210     -0.2866
     64  N        201.8110 -120.9960  244.6490 N.3   212  PHE212     -0.1227
     65  CA       201.4110 -119.7650  245.3000 C.3   212  PHE212      0.1736
     66  C        200.0600 -119.2670  244.8220 C.2   212  PHE212      0.2595
     67  O        199.5670 -118.2580  245.3410 O.2   212  PHE212     -0.2718
     68  CB       202.4930 -118.6960  245.1040 C.3   212  PHE212      0.0547
     69  CG       203.7840 -119.0910  245.6900 C.ar  212  PHE212     -0.0202
     70  CD1      204.6390 -119.9380  245.0060 C.ar  212  PHE212     -0.0042
     71  CD2      204.1090 -118.6930  246.9730 C.ar  212  PHE212     -0.0042
     72  CE1      205.8150 -120.3630  245.5850 C.ar  212  PHE212     -0.0003
     73  CE2      205.2710 -119.0960  247.5550 C.ar  212  PHE212     -0.0003
     74  CZ       206.1370 -119.9360  246.8580 C.ar  212  PHE212     -0.0000
     75  N        199.4250 -119.9540  243.8810 N.am  213  TYR213     -0.1976
     76  CA       198.0910 -119.5350  243.4790 C.3   213  TYR213      0.1639
     77  C        197.0800 -120.5110  244.0410 C.2   213  TYR213      0.2290
     78  O        197.3530 -121.7010  244.1890 O.2   213  TYR213     -0.2864
     79  CB       197.9370 -119.3950  241.9600 C.3   213  TYR213      0.0560
     80  CG       197.9020 -120.6870  241.2080 C.ar  213  TYR213     -0.0198
     81  CD1      196.7260 -121.4120  241.0730 C.ar  213  TYR213     -0.0009
     82  CD2      199.0470 -121.1840  240.6260 C.ar  213  TYR213     -0.0009
     83  CE1      196.7080 -122.6130  240.4030 C.ar  213  TYR213      0.0417
     84  CE2      199.0330 -122.3780  239.9390 C.ar  213  TYR213      0.0417
     85  CZ       197.8610 -123.0890  239.8310 C.ar  213  TYR213      0.1957
     86  OH       197.8310 -124.2760  239.1420 O.3   213  TYR213     -0.2866
     87  N        195.0370 -121.3090  234.9790 N.3   221  MET221     -0.1245
     88  CA       196.4350 -120.9390  234.8630 C.3   221  MET221      0.1570
     89  C        197.1650 -121.8570  233.9070 C.2   221  MET221      0.2261
     90  O        197.9080 -121.3980  233.0190 O.2   221  MET221     -0.2867
     91  CB       197.0930 -120.9470  236.2530 C.3   221  MET221      0.0387
     92  CG       196.2620 -120.4020  237.3860 C.3   221  MET221      0.0595
     93  SD       196.2300 -118.5960  237.3450 S.3   221  MET221     -0.1393
     94  CE       197.9610 -118.1090  237.3000 C.3   221  MET221      0.0692
     95  N        196.5670 -120.8940  230.4890 N.3   224  SER224     -0.1202
     96  CA       197.3390 -119.6800  230.3300 C.3   224  SER224      0.2020
     97  C        198.7940 -120.0170  230.0540 C.2   224  SER224      0.2618
     98  O        199.3880 -119.5290  229.0790 O.2   224  SER224     -0.2717
     99  CB       197.2080 -118.8210  231.5690 C.3   224  SER224      0.2103
    100  OG       195.8510 -118.7510  231.9900 O.3   224  SER224     -0.2182
    101  N        199.3690 -120.8920  230.8770 N.am  225  HIS225     -0.1975
    102  CA       200.7560 -121.2800  230.6680 C.3   225  HIS225      0.1656
    103  C        200.8960 -121.9030  229.2890 C.2   225  HIS225      0.2291
    104  O        201.6840 -121.4380  228.4500 O.2   225  HIS225     -0.2864
    105  CB       201.2010 -122.2400  231.7950 C.3   225  HIS225      0.0771
    106  CG       202.6720 -122.5170  231.8470 C.ar  225  HIS225      0.0820
    107  ND1      203.2030 -123.5570  232.5860 N.ar  225  HIS225     -0.2267
    108  CD2      203.7270 -121.8910  231.2650 C.ar  225  HIS225      0.1154
    109  CE1      204.5170 -123.5630  232.4540 C.ar  225  HIS225      0.1986
    110  NE2      204.8610 -122.5600  231.6640 N.ar  225  HIS225     -0.2212
    111  N        200.5190 -119.2600  226.6600 N.3   228  LEU228     -0.1245
    112  CA       201.6970 -118.4110  226.6820 C.3   228  LEU228      0.1561
    113  C        202.8650 -119.0680  225.9870 C.2   228  LEU228      0.2260
    114  O        203.6810 -118.3680  225.3840 O.2   228  LEU228     -0.2867
    115  CB       202.0670 -118.1050  228.1230 C.3   228  LEU228      0.0270
    116  CG       203.3870 -117.4600  228.4860 C.3   228  LEU228      0.0019
    117  CD1      203.5090 -116.1160  227.7730 C.3   228  LEU228      0.0001
    118  CD2      203.3850 -117.2880  229.9730 C.3   228  LEU228      0.0001
    119  N        200.1370 -114.0590  226.8170 N.3   234  VAL234     -0.1245
    120  CA       198.8610 -114.4440  227.3800 C.3   234  VAL234      0.1561
    121  C        198.3930 -113.3080  228.2660 C.2   234  VAL234      0.2260
    122  O        199.1840 -112.4490  228.6570 O.2   234  VAL234     -0.2867
    123  CB       198.9920 -115.8150  228.0860 C.3   234  VAL234      0.0252
    124  CG1      199.6490 -115.6700  229.3790 C.3   234  VAL234      0.0019
    125  CG2      197.6560 -116.5470  228.1860 C.3   234  VAL234      0.0019
    126  N        196.0570 -113.6900  231.5650 N.3   236  SER236     -0.1217
    127  CA       195.4420 -114.6680  232.4470 C.3   236  SER236      0.1889
    128  C        194.0580 -114.2070  232.8690 C.2   236  SER236      0.2288
    129  O        193.7110 -113.0260  232.7710 O.2   236  SER236     -0.2866
    130  CB       196.3180 -114.8880  233.6800 C.3   236  SER236      0.2089
    131  OG       196.3170 -113.7490  234.5250 O.3   236  SER236     -0.2183
    132  N        192.8690 -114.4160  239.2730 N.3   239  TYR239     -0.1241
    133  CA       193.1620 -115.5670  240.1090 C.3   239  TYR239      0.1605
    134  C        193.6950 -115.0920  241.4500 C.2   239  TYR239      0.2264
    135  O        194.0610 -113.9350  241.6240 O.2   239  TYR239     -0.2867
    136  CB       194.1610 -116.5030  239.4250 C.3   239  TYR239      0.0534
    137  CG       195.5460 -115.9300  239.2250 C.ar  239  TYR239     -0.0201
    138  CD1      195.8560 -115.2160  238.0780 C.ar  239  TYR239     -0.0009
    139  CD2      196.5310 -116.0880  240.1930 C.ar  239  TYR239     -0.0009
    140  CE1      197.0840 -114.7000  237.8810 C.ar  239  TYR239      0.0417
    141  CE2      197.7670 -115.5620  240.0090 C.ar  239  TYR239      0.0417
    142  CZ       198.0410 -114.8640  238.8380 C.ar  239  TYR239      0.1957
    143  OH       199.2960 -114.3380  238.6070 O.3   239  TYR239     -0.2866
    144  N        196.4530 -115.1790  244.3820 N.3   241  MET241     -0.1245
    145  CA       197.7740 -115.5530  244.8340 C.3   241  MET241      0.1570
    146  C        197.7910 -115.5290  246.3440 C.2   241  MET241      0.2261
    147  O        197.1980 -114.6330  246.9590 O.2   241  MET241     -0.2867
    148  CB       198.8370 -114.6250  244.2810 C.3   241  MET241      0.0387
    149  CG       200.1720 -115.1670  244.5480 C.3   241  MET241      0.0595
    150  SD       201.4200 -113.9130  244.3790 S.3   241  MET241     -0.1393
    151  CE       202.9250 -114.8940  244.5010 C.3   241  MET241      0.0692
    152  N        194.7740 -111.2070  241.5180 N.3   251  LEU251     -0.1245
    153  CA       195.8180 -110.8380  240.5720 C.3   251  LEU251      0.1561
    154  C        195.3460 -111.0980  239.1390 C.2   251  LEU251      0.2260
    155  O        194.5570 -112.0110  238.8580 O.2   251  LEU251     -0.2867
    156  CB       197.1080 -111.6180  240.8550 C.3   251  LEU251      0.0270
    157  CG       198.4240 -110.8480  240.8170 C.3   251  LEU251      0.0019
    158  CD1      198.4490 -109.5880  241.7640 C.3   251  LEU251      0.0001
    159  CD2      199.5710 -111.8530  241.0400 C.3   251  LEU251      0.0001
    160  N        197.5660 -111.1390  235.4080 N.3   253  THR253     -0.1218
    161  CA       198.9200 -111.0050  234.9080 C.3   253  THR253      0.1862
    162  C        198.9690 -111.2170  233.3910 C.2   253  THR253      0.2287
    163  O        198.4220 -112.1790  232.8450 O.2   253  THR253     -0.2866
    164  CB       199.8580 -111.9280  235.6920 C.3   253  THR253      0.1770
    165  OG1      199.7590 -113.2750  235.2550 O.3   253  THR253     -0.2211
    166  CG2      199.4440 -111.8820  237.1730 C.3   253  THR253      0.0375
    167  N        201.4290 -112.1490  230.5670 N.3   255  GLY255     -0.1225
    168  CA       202.6730 -112.8860  230.4390 C.3   255  GLY255      0.1811
    169  C        203.1800 -112.8600  229.0150 C.2   255  GLY255      0.2280
    170  O        202.4070 -112.8760  228.0640 O.2   255  GLY255     -0.2866
    171  N        206.2170 -111.2020  233.3830 N.3   271  CYS271     -0.1235
    172  CA       204.8640 -111.0690  233.8820 C.3   271  CYS271      0.1677
    173  C        204.6880 -109.6540  234.3980 C.2   271  CYS271      0.2270
    174  O        205.4390 -109.1980  235.2670 O.2   271  CYS271     -0.2867
    175  CB       204.5930 -112.0920  234.9790 C.3   271  CYS271      0.0956
    176  SG       204.4530 -113.7000  234.3230 S.3   271  CYS271     -0.0801
    177  N        202.0640 -107.8040  236.6140 N.3   273  ASN273     -0.1240
    178  CA       201.0610 -108.3130  237.5300 C.3   273  ASN273      0.1653
    179  C        200.2660 -107.1480  238.1020 C.2   273  ASN273      0.2266
    180  O        200.8230 -106.2680  238.7810 O.2   273  ASN273     -0.2867
    181  CB       201.7140 -109.1570  238.6100 C.3   273  ASN273      0.1155
    182  CG       202.8330 -110.0260  238.0610 C.2   273  ASN273      0.2627
    183  OD1      204.0470 -109.6810  238.2310 O.2   273  ASN273     -0.2716
    184  ND2      202.4780 -111.0960  237.3380 N.am  273  ASN273     -0.0877
@<TRIPOS>BOND
     1   114   113    2
     2   113   112    1
     3   111   112    1
     4   112   115    1
     5   119   120    1
     6   120   123    1
     7   120   121    1
     8   117   116    1
     9   170   169    2
    10   123   125    1
    11   123   124    1
    12   115   116    1
    13   121   122    2
    14   104   103    2
    15   116   118    1
    16   169   168    1
    17    98    97    2
    18   103   102    1
    19    97    96    1
    20    97   101   am
    21    96    95    1
    22    96    99    1
    23   168   167    1
    24   102   101    1
    25   102   105    1
    26   108   110   ar
    27   108   106   ar
    28   126   127    1
    29    99   100    1
    30   110   109   ar
    31   105   106    1
    32   106   107   ar
    33   127   128    1
    34   127   130    1
    35   109   107   ar
    36   129   128    2
    37   163   162    2
    38    90    89    2
    39    21    20    2
    40   171   172    1
    41   162   161    1
    42   130   131    1
    43   172   173    1
    44   172   175    1
    45    89    88    1
    46    34    33    1
    47    34    35    1
    48    20    19    1
    49   176   175    1
    50   173   174    2
    51    33    32    1
    52    63    62    1
    53    28    29    1
    54    88    87    1
    55    88    91    1
    56   161   160    1
    57   161   164    1
    58    18    19    1
    59    22    19    1
    60    22    23    1
    61   165   164    1
    62    15    14    2
    63    29    32    1
    64    29    30    1
    65   164   166    1
    66    62    61   ar
    67    62    60   ar
    68    23    25   ar
    69    23    24   ar
    70    91    92    1
    71    61    59   ar
    72    25    27   ar
    73    14    13    1
    74   177   178    1
    75    60    58   ar
    76    30    31    2
    77    12    13    1
    78    94    93    1
    79   184   182   am
    80    93    92    1
    81    24    26   ar
    82   178   179    1
    83   178   181    1
    84    27    26   ar
    85    17    16    1
    86    59    57   ar
    87    13    16    1
    88   140   138   ar
    89   140   142   ar
    90   182   183    2
    91   182   181    1
    92    58    57   ar
    93   138   137   ar
    94   179   180    2
    95     4     3    2
    96    57    56    1
    97   143   142    1
    98   142   141   ar
    99   155   154    2
   100     3     2    1
   101   154   153    1
   102    86    85    1
   103   137   136    1
   104   137   139   ar
   105   132   133    1
   106   136   133    1
   107    36    37    1
   108    51    48    1
   109     1     2    1
   110    38    37    1
   111    38    39    2
   112    85    84   ar
   113    85    83   ar
   114    37    40    1
   115     2     5    1
   116    84    82   ar
   117   141   139   ar
   118    56    53    1
   119   133   134    1
   120    83    81   ar
   121    47    48    1
   122   153   156    1
   123   153   152    1
   124    52    53    1
   125    52    49   am
   126    82    80   ar
   127    53    54    1
   128    48    49    1
   129   157   156    1
   130   157   159    1
   131   157   158    1
   132    49    50    2
   133    42    44   ar
   134    42    41   ar
   135    81    80   ar
   136    44    46   ar
   137    80    79    1
   138    40    41    1
   139     8    10   ar
   140     8     6   ar
   141     5     6    1
   142    41    43   ar
   143   134   135    2
   144    10    11   ar
   145     6     7   ar
   146    46    45   ar
   147    43    45   ar
   148     7     9   ar
   149    11     9   ar
   150    79    76    1
   151    54    55    2
   152    76    75    1
   153    76    77    1
   154    75    66   am
   155    77    78    2
   156   148   149    1
   157   148   145    1
   158   150   151    1
   159   150   149    1
   160   144   145    1
   161    64    65    1
   162    66    65    1
   163    66    67    2
   164   145   146    1
   165    70    72   ar
   166    70    69   ar
   167    68    65    1
   168    68    69    1
   169    72    74   ar
   170    69    71   ar
   171   146   147    2
   172    74    73   ar
   173    71    73   ar
