@<TRIPOS>MOLECULE
tmp/6e41D01.pdb
 146 139 0 0 0
SMALL
GASTEIGER

@<TRIPOS>ATOM
      1  N          7.4540   30.6220  -43.4190 N.3   113  TYR113     -0.1241
      2  CA         8.6000   30.5120  -44.3350 C.3   113  TYR113      0.1605
      3  C          8.4930   31.4380  -45.5620 C.2   113  TYR113      0.2264
      4  O          9.4630   32.1020  -45.9490 O.2   113  TYR113     -0.2867
      5  CB         8.7090   29.0480  -44.7810 C.3   113  TYR113      0.0534
      6  CG         9.9060   28.6810  -45.6310 C.ar  113  TYR113     -0.0201
      7  CD1       11.1270   28.3850  -45.0530 C.ar  113  TYR113     -0.0009
      8  CD2        9.8020   28.6020  -47.0190 C.ar  113  TYR113     -0.0009
      9  CE1       12.2200   28.0140  -45.8210 C.ar  113  TYR113      0.0417
     10  CE2       10.8720   28.2770  -47.7940 C.ar  113  TYR113      0.0417
     11  CZ        12.0900   27.9620  -47.1920 C.ar  113  TYR113      0.1957
     12  OH        13.1850   27.5900  -47.9570 O.3   113  TYR113     -0.2866
     13  N          9.2230   35.3100  -44.3120 N.3   116  CYS116     -0.1221
     14  CA        10.5400   35.7460  -43.8500 C.3   116  CYS116      0.1808
     15  C         11.6890   35.1630  -44.6450 C.2   116  CYS116      0.2601
     16  O         12.8290   35.6090  -44.4700 O.2   116  CYS116     -0.2717
     17  CB        10.7300   35.4690  -42.3560 C.3   116  CYS116      0.0970
     18  SG        10.5200   33.8350  -41.8260 S.3   116  CYS116     -0.0800
     19  N         11.4310   34.2400  -45.5560 N.am  117  VAL117     -0.1979
     20  CA        12.4360   33.7910  -46.5060 C.3   117  VAL117      0.1595
     21  C         12.1090   34.2820  -47.9170 C.2   117  VAL117      0.2287
     22  O         12.8290   35.1140  -48.4670 O.2   117  VAL117     -0.2864
     23  CB        12.5980   32.2510  -46.4600 C.3   117  VAL117      0.0276
     24  CG1       13.5550   31.7960  -47.4830 C.3   117  VAL117      0.0022
     25  CG2       13.1080   31.8460  -45.1260 C.3   117  VAL117      0.0022
     26  N         20.6780   33.3340  -41.8320 N.3   150  PHE150     -0.1227
     27  CA        19.6860   32.2670  -41.7930 C.3   150  PHE150      0.1736
     28  C         18.6880   32.3890  -42.9550 C.2   150  PHE150      0.2595
     29  O         18.4730   31.4280  -43.7090 O.2   150  PHE150     -0.2718
     30  CB        18.9910   32.3100  -40.4370 C.3   150  PHE150      0.0547
     31  CG        18.0940   31.1520  -40.1800 C.ar  150  PHE150     -0.0202
     32  CD1       18.6100   29.8640  -40.1330 C.ar  150  PHE150     -0.0042
     33  CD2       16.7280   31.3460  -39.9620 C.ar  150  PHE150     -0.0042
     34  CE1       17.7740   28.7720  -39.8800 C.ar  150  PHE150     -0.0003
     35  CE2       15.8780   30.2570  -39.6970 C.ar  150  PHE150     -0.0003
     36  CZ        16.4080   28.9730  -39.6590 C.ar  150  PHE150     -0.0000
     37  N         18.0660   33.5690  -43.1270 N.am  151  PHE151     -0.1976
     38  CA        17.0650   33.6860  -44.1880 C.3   151  PHE151      0.1639
     39  C         17.7080   33.6010  -45.5620 C.2   151  PHE151      0.2290
     40  O         17.1540   32.9870  -46.4780 O.2   151  PHE151     -0.2864
     41  CB        16.2810   34.9840  -44.0330 C.3   151  PHE151      0.0560
     42  CG        15.5040   35.0750  -42.7340 C.ar  151  PHE151     -0.0200
     43  CD1       14.8530   33.9580  -42.2220 C.ar  151  PHE151     -0.0042
     44  CD2       15.4380   36.2780  -42.0290 C.ar  151  PHE151     -0.0042
     45  CE1       14.1520   34.0350  -41.0330 C.ar  151  PHE151     -0.0003
     46  CE2       14.7620   36.3610  -40.8220 C.ar  151  PHE151     -0.0003
     47  CZ        14.1040   35.2480  -40.3260 C.ar  151  PHE151     -0.0000
     48  N         18.8170   29.9820  -46.5380 N.3   154  SER154     -0.1217
     49  CA        17.5930   29.2560  -46.8910 C.3   154  SER154      0.1889
     50  C         17.0930   29.6520  -48.2640 C.2   154  SER154      0.2288
     51  O         16.7540   28.7870  -49.0920 O.2   154  SER154     -0.2866
     52  CB        16.4840   29.5100  -45.8720 C.3   154  SER154      0.2089
     53  OG        16.8910   29.1400  -44.5680 O.3   154  SER154     -0.2183
     54  N         21.3670   31.3080  -33.1710 N.3   213  PHE213     -0.1241
     55  CA        20.1730   30.6370  -33.6280 C.3   213  PHE213      0.1605
     56  C         19.3950   30.0970  -32.4540 C.2   213  PHE213      0.2264
     57  O         18.1910   30.3450  -32.3440 O.2   213  PHE213     -0.2867
     58  CB        20.4680   29.4830  -34.5900 C.3   213  PHE213      0.0534
     59  CG        19.2240   28.6950  -34.9040 C.ar  213  PHE213     -0.0203
     60  CD1       18.2240   29.2550  -35.7290 C.ar  213  PHE213     -0.0042
     61  CD2       18.9950   27.4740  -34.3120 C.ar  213  PHE213     -0.0042
     62  CE1       17.0320   28.5660  -35.9770 C.ar  213  PHE213     -0.0003
     63  CE2       17.8470   26.7630  -34.5910 C.ar  213  PHE213     -0.0003
     64  CZ        16.8400   27.3240  -35.3990 C.ar  213  PHE213     -0.0000
     65  N         15.5440   31.2680  -32.8840 N.3   218  ARG218     -0.1245
     66  CA        14.5480   30.2200  -32.6340 C.3   218  ARG218      0.1563
     67  C         13.3790   30.7390  -31.7960 C.2   218  ARG218      0.2260
     68  O         12.2320   30.3030  -31.9690 O.2   218  ARG218     -0.2867
     69  CB        15.2190   29.0130  -31.9490 C.3   218  ARG218      0.0307
     70  CG        14.3680   27.7390  -31.9240 C.3   218  ARG218      0.0489
     71  CD        15.0270   26.6140  -31.0900 C.3   218  ARG218      0.2205
     72  NE        15.5760   27.1210  -29.8330 N.pl3 218  ARG218     -0.0865
     73  CZ        14.9020   27.1920  -28.6850 C.cat 218  ARG218      0.5346
     74  NH1       13.6450   26.7720  -28.6100 N.pl3 218  ARG218      0.1354
     75  NH2       15.4870   27.6740  -27.6030 N.pl3 218  ARG218      0.1354
     76  N         10.9900   32.8810  -34.0990 N.3   221  LEU221     -0.1231
     77  CA        10.2580   32.1070  -35.0850 C.3   221  LEU221      0.1693
     78  C          9.2550   31.1620  -34.4630 C.2   221  LEU221      0.2592
     79  O          8.5120   30.5360  -35.2170 O.2   221  LEU221     -0.2718
     80  CB        11.2230   31.3200  -35.9730 C.3   221  LEU221      0.0284
     81  CG        12.2350   32.2430  -36.6840 C.3   221  LEU221      0.0019
     82  CD1       13.2840   31.4680  -37.4290 C.3   221  LEU221      0.0001
     83  CD2       11.5080   33.2590  -37.6430 C.3   221  LEU221      0.0001
     84  N          9.1580   31.0720  -33.1300 N.am  222  SER222     -0.1952
     85  CA         8.2650   30.0740  -32.5310 C.3   222  SER222      0.1924
     86  C          6.8090   30.4840  -32.6740 C.2   222  SER222      0.2314
     87  O          6.4720   31.6680  -32.6630 O.2   222  SER222     -0.2863
     88  CB         8.5180   29.8930  -31.0310 C.3   222  SER222      0.2116
     89  OG         9.9020   29.8870  -30.7080 O.3   222  SER222     -0.2180
     90  N          4.6140   27.5490  -35.5530 N.3   248  GLY248     -0.1210
     91  CA         5.6920   28.4170  -35.9800 C.3   248  GLY248      0.1956
     92  C          6.4580   27.9070  -37.2080 C.2   248  GLY248      0.2612
     93  O          6.4020   26.7340  -37.5960 O.2   248  GLY248     -0.2717
     94  N          7.2340   28.8260  -37.7920 N.am  249  GLY249     -0.1942
     95  CA         7.8750   28.5660  -39.0820 C.3   249  GLY249      0.2014
     96  C          8.8750   27.4180  -39.0640 C.2   249  GLY249      0.2640
     97  O          9.5440   27.1290  -38.0650 O.2   249  GLY249     -0.2714
     98  N          8.9400   26.7180  -40.1900 N.am  250  SER250     -0.1935
     99  CA         9.9240   25.6670  -40.3770 C.3   250  SER250      0.2055
    100  C         10.0020   25.4500  -41.8730 C.2   250  SER250      0.2643
    101  O          9.0360   25.7320  -42.6100 O.2   250  SER250     -0.2714
    102  CB         9.5690   24.3570  -39.6270 C.3   250  SER250      0.2130
    103  OG         8.9560   23.3500  -40.4500 O.3   250  SER250     -0.2179
    104  N         11.1590   24.9700  -42.3140 N.am  251  ALA251     -0.1963
    105  CA        11.2880   24.6930  -43.7340 C.3   251  ALA251      0.1728
    106  C         10.5020   23.4880  -44.1220 C.2   251  ALA251      0.2616
    107  O         10.4460   23.1600  -45.3170 O.2   251  ALA251     -0.2715
    108  CB        12.7480   24.5190  -44.1320 C.3   251  ALA251      0.0334
    109  N          9.8630   22.8330  -43.1480 N.am  252  GLY252     -0.1955
    110  CA         8.7910   21.9160  -43.4810 C.3   252  GLY252      0.1869
    111  C          7.7210   22.5900  -44.3180 C.2   252  GLY252      0.2309
    112  O          6.9420   21.9000  -44.9990 O.2   252  GLY252     -0.2863
    113  N         20.8710   17.6220  -43.2600 N.3   333  HIS333     -0.1241
    114  CA        19.9420   18.3340  -42.3880 C.3   333  HIS333      0.1621
    115  C         19.9650   17.7940  -40.9650 C.2   333  HIS333      0.2264
    116  O         19.7790   18.5600  -40.0020 O.2   333  HIS333     -0.2867
    117  CB        18.5200   18.2260  -42.9810 C.3   333  HIS333      0.0745
    118  CG        17.4900   19.0280  -42.2590 C.ar  333  HIS333      0.0817
    119  ND1       16.5330   18.4590  -41.4490 N.ar  333  HIS333     -0.2268
    120  CD2       17.2640   20.3670  -42.2220 C.ar  333  HIS333      0.1154
    121  CE1       15.7540   19.4070  -40.9500 C.ar  333  HIS333      0.1986
    122  NE2       16.1770   20.5750  -41.4050 N.ar  333  HIS333     -0.2212
    123  N         20.6390   22.8120  -32.6810 N.3   341  ILE341     -0.1245
    124  CA        19.6420   22.6320  -31.6290 C.3   341  ILE341      0.1561
    125  C         20.1490   21.7220  -30.5110 C.2   341  ILE341      0.2260
    126  O         20.2580   22.1600  -29.3610 O.2   341  ILE341     -0.2867
    127  CB        18.3190   22.0780  -32.1860 C.3   341  ILE341      0.0252
    128  CG1       17.5820   23.1470  -32.9860 C.3   341  ILE341      0.0019
    129  CG2       17.4280   21.6110  -31.0140 C.3   341  ILE341      0.0019
    130  CD1       16.3370   22.6410  -33.6320 C.3   341  ILE341      0.0001
    131  N         14.8060   20.2670  -25.3110 N.3   351  LEU351     -0.1245
    132  CA        15.2400   20.0880  -26.6870 C.3   351  LEU351      0.1561
    133  C         16.5910   19.3810  -26.8040 C.2   351  LEU351      0.2260
    134  O         17.0450   19.1280  -27.9360 O.2   351  LEU351     -0.2867
    135  CB        15.3120   21.4510  -27.3990 C.3   351  LEU351      0.0270
    136  CG        13.9550   22.0760  -27.6860 C.3   351  LEU351      0.0019
    137  CD1       14.1390   23.5300  -27.9960 C.3   351  LEU351      0.0001
    138  CD2       13.3260   21.3780  -28.8450 C.3   351  LEU351      0.0001
    139  N         11.7220   15.3120  -32.2640 N.3   361  LEU361     -0.1245
    140  CA        12.0820   15.8970  -33.5570 C.3   361  LEU361      0.1561
    141  C         13.1270   15.0490  -34.2960 C.2   361  LEU361      0.2260
    142  O         13.0700   14.9480  -35.5270 O.2   361  LEU361     -0.2867
    143  CB        12.5470   17.3460  -33.3630 C.3   361  LEU361      0.0270
    144  CG        13.8900   17.5590  -32.6390 C.3   361  LEU361      0.0019
    145  CD1       15.0440   17.5560  -33.6310 C.3   361  LEU361      0.0001
    146  CD2       13.9000   18.8440  -31.7740 C.3   361  LEU361      0.0001
@<TRIPOS>BOND
     1    51    50    2
     2    22    21    2
     3    50    49    1
     4    12    11    1
     5    21    20    1
     6    10    11   ar
     7    10     8   ar
     8    24    23    1
     9    11     9   ar
    10     8     6   ar
    11    49    48    1
    12    49    52    1
    13    20    23    1
    14    20    19    1
    15    40    39    2
    16    23    25    1
    17     4     3    2
    18    52    53    1
    19     9     7   ar
    20     6     7   ar
    21     6     5    1
    22    39    38    1
    23     3     2    1
    24    19    15   am
    25   107   106    2
    26   112   111    2
    27     5     2    1
    28    15    16    2
    29    15    14    1
    30     2     1    1
    31   111   110    1
    32    13    14    1
    33    38    41    1
    34    38    37    1
    35   108   105    1
    36   106   105    1
    37   106   109   am
    38    41    42    1
    39    14    17    1
    40   105   104    1
    41    29    28    2
    42   110   109    1
    43   113   114    1
    44    37    28   am
    45   117   114    1
    46   117   118    1
    47    28    27    1
    48    42    43   ar
    49    42    44   ar
    50   101   100    2
    51   114   115    1
    52    17    18    1
    53   104   100   am
    54   118   120   ar
    55   118   119   ar
    56    43    45   ar
    57   120   122   ar
    58    44    46   ar
    59   100    99    1
    60    26    27    1
    61    27    30    1
    62   119   121   ar
    63   122   121   ar
    64    45    47   ar
    65   115   116    2
    66    46    47   ar
    67   103   102    1
    68    30    31    1
    69    99    98    1
    70    99   102    1
    71    98    96   am
    72    31    32   ar
    73    31    33   ar
    74    32    34   ar
    75    33    35   ar
    76    34    36   ar
    77    35    36   ar
    78    95    96    1
    79    95    94    1
    80    96    97    2
    81    94    92   am
    82    83    81    1
    83    93    92    2
    84    82    81    1
    85    92    91    1
    86    81    80    1
    87    91    90    1
    88    62    60   ar
    89    62    64   ar
    90    80    77    1
    91    60    59   ar
    92   142   141    2
    93    64    63   ar
    94    79    78    2
    95    77    78    1
    96    77    76    1
    97    59    58    1
    98    59    61   ar
    99    63    61   ar
   100    58    55    1
   101    78    84   am
   102   141   140    1
   103   130   128    1
   104   145   144    1
   105    55    54    1
   106    55    56    1
   107   140   143    1
   108   140   139    1
   109   143   144    1
   110    84    85    1
   111   128   127    1
   112    65    66    1
   113   123   124    1
   114    86    87    2
   115    86    85    1
   116   144   146    1
   117    66    69    1
   118    66    67    1
   119    85    88    1
   120    56    57    2
   121   127   124    1
   122   127   129    1
   123    68    67    2
   124    69    70    1
   125    70    71    1
   126   124   125    1
   127    71    72    1
   128    88    89    1
   129   125   126    2
   130    72    73    2
   131   138   136    1
   132    73    74    1
   133    73    75    1
   134   137   136    1
   135   134   133    2
   136   136   135    1
   137   135   132    1
   138   133   132    1
   139   132   131    1
