@<TRIPOS>MOLECULE
tmp/6e41A02.pdb
 104 105 0 0 0
SMALL
GASTEIGER

@<TRIPOS>ATOM
      1  N        -32.7860   20.8480 -101.3910 N.3   205  HIS205     -0.1226
      2  CA       -33.9010   20.8070 -102.3330 C.3   205  HIS205      0.1752
      3  C        -34.8890   21.9360 -102.0760 C.2   205  HIS205      0.2596
      4  O        -35.5270   22.4240 -103.0090 O.2   205  HIS205     -0.2718
      5  CB       -34.5990   19.4360 -102.2410 C.3   205  HIS205      0.0759
      6  CG       -33.7260   18.2960 -102.6650 C.ar  205  HIS205      0.0818
      7  ND1      -33.4450   18.0250 -103.9870 N.ar  205  HIS205     -0.2268
      8  CD2      -33.0250   17.3890 -101.9430 C.ar  205  HIS205      0.1154
      9  CE1      -32.6320   16.9850 -104.0650 C.ar  205  HIS205      0.1986
     10  NE2      -32.3540   16.5860 -102.8370 N.ar  205  HIS205     -0.2212
     11  N        -35.0110   22.3570 -100.8210 N.am  206  ASP206     -0.1960
     12  CA       -35.9170   23.4290 -100.4390 C.3   206  ASP206      0.1840
     13  C        -35.4890   24.7800 -101.0150 C.2   206  ASP206      0.2622
     14  O        -36.3160   25.6930 -101.1230 O.2   206  ASP206     -0.2715
     15  CB       -35.9640   23.5640  -98.9020 C.3   206  ASP206      0.1450
     16  CG       -36.5390   22.3220  -98.1890 C.2   206  ASP206      0.3671
     17  OD1      -37.2330   21.4750  -98.8490 O.co2 206  ASP206     -0.2456
     18  OD2      -36.2550   22.2170  -96.9580 O.co2 206  ASP206     -0.2456
     19  N        -34.1940   24.9500 -101.3060 N.am  207  HIS207     -0.1959
     20  CA       -33.6500   26.2690 -101.5800 C.3   207  HIS207      0.1787
     21  C        -32.8170   26.4070 -102.8550 C.2   207  HIS207      0.2620
     22  O        -32.4430   27.5360 -103.1760 O.2   207  HIS207     -0.2715
     23  CB       -32.7950   26.7320 -100.3980 C.3   207  HIS207      0.0785
     24  CG       -33.5470   26.8170  -99.1020 C.ar  207  HIS207      0.0821
     25  ND1      -34.4480   27.8280  -98.8300 N.ar  207  HIS207     -0.2267
     26  CD2      -33.5470   26.0090  -98.0110 C.ar  207  HIS207      0.1154
     27  CE1      -34.9650   27.6390  -97.6250 C.ar  207  HIS207      0.1986
     28  NE2      -34.4310   26.5480  -97.1050 N.ar  207  HIS207     -0.2212
     29  N        -32.4860   25.3250 -103.5700 N.am  208  VAL208     -0.1963
     30  CA       -31.5990   25.3920 -104.7310 C.3   208  VAL208      0.1727
     31  C        -32.2570   24.6600 -105.8990 C.2   208  VAL208      0.2616
     32  O        -32.5600   23.4640 -105.8030 O.2   208  VAL208     -0.2715
     33  CB       -30.2010   24.7890 -104.4590 C.3   208  VAL208      0.0290
     34  CG1      -29.2840   24.9140 -105.7020 C.3   208  VAL208      0.0023
     35  CG2      -29.5230   25.4210 -103.2470 C.3   208  VAL208      0.0023
     36  N        -32.4160   25.3610 -107.0180 N.am  209  ASN209     -0.1959
     37  CA       -33.0390   24.8060 -108.2050 C.3   209  ASN209      0.1804
     38  C        -31.9780   24.2290 -109.1470 C.2   209  ASN209      0.2463
     39  O        -31.0740   24.9650 -109.5650 O.2   209  ASN209     -0.2730
     40  CB       -33.8490   25.8950 -108.8780 C.3   209  ASN209      0.1195
     41  CG       -34.0780   25.6410 -110.3240 C.2   209  ASN209      0.2630
     42  OD1      -34.2440   24.5130 -110.7670 O.2   209  ASN209     -0.2716
     43  ND2      -34.0960   26.7020 -111.0860 N.am  209  ASN209     -0.0877
     44  N        -32.0450   22.9250 -109.5150 N.am  210  PRO210     -0.2716
     45  CA       -30.9690   22.3440 -110.3350 C.3   210  PRO210      0.1536
     46  C        -30.6230   23.1480 -111.5720 C.2   210  PRO210      0.2598
     47  O        -29.4410   23.2650 -111.9080 O.2   210  PRO210     -0.2715
     48  CB       -31.5220   20.9430 -110.7030 C.3   210  PRO210      0.0310
     49  CG       -32.4030   20.5760 -109.5670 C.3   210  PRO210      0.0237
     50  CD       -33.0750   21.9130 -109.1870 C.3   210  PRO210      0.0939
     51  N        -31.6160   23.6970 -112.2690 N.am  211  LYS211     -0.1978
     52  CA       -31.3440   24.4190 -113.5090 C.3   211  LYS211      0.1596
     53  C        -30.5590   25.7050 -113.2430 C.2   211  LYS211      0.2287
     54  O        -29.6350   26.0500 -113.9900 O.2   211  LYS211     -0.2864
     55  CB       -32.6650   24.7030 -114.2130 C.3   211  LYS211      0.0298
     56  CG       -32.5790   25.5820 -115.4220 C.3   211  LYS211      0.0038
     57  CD       -33.4280   26.8570 -115.1860 C.3   211  LYS211      0.0206
     58  CE       -32.6330   27.9170 -114.3710 C.3   211  LYS211      0.1093
     59  NZ       -33.0820   29.3480 -114.3890 N.3   211  LYS211     -0.1314
     60  N        -28.6570   14.7600 -109.5430 N.3   339  LYS339     -0.1231
     61  CA       -29.7660   15.6490 -109.7700 C.3   339  LYS339      0.1693
     62  C        -29.2950   17.0400 -110.2280 C.2   339  LYS339      0.2592
     63  O        -29.9440   17.6490 -111.0850 O.2   339  LYS339     -0.2718
     64  CB       -30.6220   15.6930 -108.5090 C.3   339  LYS339      0.0285
     65  CG       -31.6640   16.8050 -108.5060 C.3   339  LYS339      0.0035
     66  CD       -32.8010   16.5460 -107.5150 C.3   339  LYS339      0.0206
     67  CE       -33.7450   15.3720 -107.9890 C.3   339  LYS339      0.1093
     68  NZ       -34.8340   14.9290 -107.0070 N.3   339  LYS339     -0.1314
     69  N        -28.1420   17.5530 -109.7400 N.am  340  TYR340     -0.1976
     70  CA       -27.7630   18.9340 -110.0780 C.3   340  TYR340      0.1639
     71  C        -26.7360   19.0420 -111.1960 C.2   340  TYR340      0.2290
     72  O        -26.5500   20.1360 -111.7300 O.2   340  TYR340     -0.2864
     73  CB       -27.2330   19.6700 -108.8510 C.3   340  TYR340      0.0560
     74  CG       -28.2990   20.0220 -107.8540 C.ar  340  TYR340     -0.0198
     75  CD1      -28.8580   19.0420 -107.0140 C.ar  340  TYR340     -0.0009
     76  CD2      -28.7540   21.3240 -107.7340 C.ar  340  TYR340     -0.0009
     77  CE1      -29.8560   19.3610 -106.0870 C.ar  340  TYR340      0.0417
     78  CE2      -29.7490   21.6480 -106.8270 C.ar  340  TYR340      0.0417
     79  CZ       -30.2870   20.6680 -106.0000 C.ar  340  TYR340      0.1957
     80  OH       -31.2420   21.0270 -105.0840 O.3   340  TYR340     -0.2866
     81  N        -28.0100   15.1420 -114.6690 N.3   343  ILE343     -0.1231
     82  CA       -29.2840   15.2330 -115.3680 C.3   343  ILE343      0.1678
     83  C        -29.4080   16.5760 -116.0850 C.2   343  ILE343      0.2434
     84  O        -29.7110   16.5850 -117.2890 O.2   343  ILE343     -0.2733
     85  CB       -30.4440   14.9290 -114.4070 C.3   343  ILE343      0.0265
     86  CG1      -30.4720   13.4180 -114.1340 C.3   343  ILE343      0.0019
     87  CG2      -31.7910   15.3770 -114.9830 C.3   343  ILE343      0.0020
     88  CD1      -31.4840   13.0350 -113.1190 C.3   343  ILE343      0.0001
     89  N        -29.1550   17.7280 -115.4470 N.am  344  PRO344     -0.2729
     90  CA       -29.1820   18.9790 -116.2330 C.3   344  PRO344      0.1401
     91  C        -28.1470   19.0080 -117.3640 C.2   344  PRO344      0.2269
     92  O        -28.3820   19.6640 -118.3870 O.2   344  PRO344     -0.2865
     93  CB       -28.9190   20.0660 -115.1780 C.3   344  PRO344      0.0296
     94  CG       -29.2820   19.4550 -113.8810 C.3   344  PRO344      0.0237
     95  CD       -28.9640   17.9920 -114.0110 C.3   344  PRO344      0.0939
     96  N        -29.3900   18.3520 -120.9260 N.3   347  GLN347     -0.1245
     97  CA       -30.4620   19.1990 -121.4520 C.3   347  GLN347      0.1566
     98  C        -30.0110   20.6260 -121.8500 C.2   347  GLN347      0.2260
     99  O        -28.9020   20.8540 -122.3800 O.2   347  GLN347     -0.2867
    100  CB       -31.5970   19.2890 -120.4200 C.3   347  GLN347      0.0367
    101  CG       -31.8440   18.0060 -119.6210 C.3   347  GLN347      0.0905
    102  CD       -32.9660   18.1140 -118.5940 C.2   347  GLN347      0.2608
    103  OE1      -33.2060   19.1810 -118.0230 O.2   347  GLN347     -0.2717
    104  NE2      -33.6610   17.0020 -118.3540 N.am  347  GLN347     -0.0878
@<TRIPOS>BOND
     1    99    98    2
     2    98    97    1
     3    97    96    1
     4    97   100    1
     5   100   101    1
     6   101   102    1
     7   102   104   am
     8   102   103    2
     9    92    91    2
    10    91    90    1
    11    84    83    2
    12    90    89    1
    13    90    93    1
    14    83    89   am
    15    83    82    1
    16    89    95    1
    17    56    57    1
    18    56    55    1
    19    82    81    1
    20    82    85    1
    21    57    58    1
    22    93    94    1
    23    87    85    1
    24    85    86    1
    25    59    58    1
    26    55    52    1
    27    86    88    1
    28    95    94    1
    29    54    53    2
    30    52    53    1
    31    52    51    1
    32    51    46   am
    33    47    46    2
    34    72    71    2
    35    46    45    1
    36    71    70    1
    37    43    41   am
    38    63    62    2
    39    42    41    2
    40    48    45    1
    41    48    49    1
    42    45    44    1
    43    41    40    1
    44    62    61    1
    45    62    69   am
    46    70    69    1
    47    70    73    1
    48    61    60    1
    49    61    64    1
    50    49    50    1
    51    39    38    2
    52    44    50    1
    53    44    38   am
    54    38    37    1
    55    40    37    1
    56    73    74    1
    57    64    65    1
    58    65    66    1
    59    37    36    1
    60    67    66    1
    61    67    68    1
    62    74    76   ar
    63    74    75   ar
    64    76    78   ar
    65    36    31   am
    66    75    77   ar
    67    78    79   ar
    68    77    79   ar
    69    79    80    1
    70    31    32    2
    71    31    30    1
    72    34    33    1
    73    30    33    1
    74    30    29    1
    75    33    35    1
    76     9     7   ar
    77     9    10   ar
    78     7     6   ar
    79    29    21   am
    80    22    21    2
    81     4     3    2
    82    21    20    1
    83    10     8   ar
    84     6     5    1
    85     6     8   ar
    86     2     5    1
    87     2     3    1
    88     2     1    1
    89     3    11   am
    90    20    19    1
    91    20    23    1
    92    19    13   am
    93    14    13    2
    94    13    12    1
    95    11    12    1
    96    12    15    1
    97    23    24    1
    98    24    25   ar
    99    24    26   ar
   100    15    16    1
   101    17    16   ar
   102    25    27   ar
   103    16    18   ar
   104    26    28   ar
   105    27    28   ar
