@<TRIPOS>MOLECULE
tmp/6e42B03.pdb
 111 104 0 0 0
SMALL
GASTEIGER

@<TRIPOS>ATOM
      1  N         32.0500   27.4100 -106.7910 N.3   150  VAL150     -0.1245
      2  CA        31.8130   25.9870 -106.9880 C.3   150  VAL150      0.1561
      3  C         30.5520   25.7850 -107.8210 C.2   150  VAL150      0.2260
      4  O         30.5400   25.0310 -108.8040 O.2   150  VAL150     -0.2867
      5  CB        31.7110   25.2640 -105.6350 C.3   150  VAL150      0.0252
      6  CG1       31.1940   23.8390 -105.8560 C.3   150  VAL150      0.0019
      7  CG2       33.0530   25.2470 -104.9320 C.3   150  VAL150      0.0019
      8  N         30.0470   24.0630 -111.4770 N.3   154  ALA154     -0.1245
      9  CA        29.1490   22.9330 -111.7010 C.3   154  ALA154      0.1562
     10  C         28.0880   23.2690 -112.7340 C.2   154  ALA154      0.2260
     11  O         27.7420   22.4310 -113.5720 O.2   154  ALA154     -0.2867
     12  CB        28.4900   22.4950 -110.3890 C.3   154  ALA154      0.0290
     13  N         32.0480   18.6190 -112.9850 N.3   187  LEU187     -0.1245
     14  CA        32.0120   18.2790 -111.5660 C.3   187  LEU187      0.1561
     15  C         33.4140   18.1900 -110.9840 C.2   187  LEU187      0.2260
     16  O         33.6280   18.5550 -109.8250 O.2   187  LEU187     -0.2867
     17  CB        31.2660   16.9700 -111.3820 C.3   187  LEU187      0.0270
     18  CG        29.7530   17.0560 -111.6120 C.3   187  LEU187      0.0019
     19  CD1       29.1890   15.6400 -111.4980 C.3   187  LEU187      0.0001
     20  CD2       29.0840   18.0110 -110.6160 C.3   187  LEU187      0.0001
     21  N         34.6280   21.6810 -110.5260 N.3   190  ALA190     -0.1245
     22  CA        33.9690   22.1820 -109.3300 C.3   190  ALA190      0.1562
     23  C         34.6810   21.7080 -108.0730 C.2   190  ALA190      0.2260
     24  O         34.7980   22.4570 -107.0990 O.2   190  ALA190     -0.2867
     25  CB        32.5110   21.7290 -109.3050 C.3   190  ALA190      0.0290
     26  N         36.3100   23.9770 -105.2210 N.3   194  PHE194     -0.1241
     27  CA        36.0130   23.7070 -103.8170 C.3   194  PHE194      0.1605
     28  C         37.2490   23.8700 -102.9230 C.2   194  PHE194      0.2264
     29  O         37.1300   24.3280 -101.7800 O.2   194  PHE194     -0.2867
     30  CB        35.4510   22.2860 -103.7210 C.3   194  PHE194      0.0534
     31  CG        34.4740   22.0810 -102.6170 C.ar  194  PHE194     -0.0203
     32  CD1       34.5920   22.7630 -101.4320 C.ar  194  PHE194     -0.0042
     33  CD2       33.4410   21.1830 -102.7670 C.ar  194  PHE194     -0.0042
     34  CE1       33.7010   22.5580 -100.4090 C.ar  194  PHE194     -0.0003
     35  CE2       32.5360   20.9740 -101.7480 C.ar  194  PHE194     -0.0003
     36  CZ        32.6700   21.6690 -100.5640 C.ar  194  PHE194     -0.0000
     37  N         23.2150   22.0430 -107.0820 N.3   250  PHE250     -0.1241
     38  CA        23.7750   20.9600 -106.2830 C.3   250  PHE250      0.1605
     39  C         22.7950   19.8110 -106.0420 C.2   250  PHE250      0.2264
     40  O         23.2240   18.7560 -105.5640 O.2   250  PHE250     -0.2867
     41  CB        24.2640   21.4970 -104.9330 C.3   250  PHE250      0.0534
     42  CG        25.3610   22.5320 -105.0390 C.ar  250  PHE250     -0.0203
     43  CD1       26.2760   22.5030 -106.0870 C.ar  250  PHE250     -0.0042
     44  CD2       25.4810   23.5270 -104.0820 C.ar  250  PHE250     -0.0042
     45  CE1       27.2890   23.4640 -106.1780 C.ar  250  PHE250     -0.0003
     46  CE2       26.4910   24.4980 -104.1700 C.ar  250  PHE250     -0.0003
     47  CZ        27.3890   24.4640 -105.2100 C.ar  250  PHE250     -0.0000
     48  N         22.2840   17.1450 -110.1960 N.3   253  PHE253     -0.1227
     49  CA        23.0670   16.0420 -110.7450 C.3   253  PHE253      0.1736
     50  C         22.5840   14.7120 -110.2180 C.2   253  PHE253      0.2595
     51  O         22.5800   13.7260 -110.9550 O.2   253  PHE253     -0.2718
     52  CB        24.5470   16.2310 -110.4540 C.3   253  PHE253      0.0547
     53  CG        25.0750   17.4850 -111.0350 C.ar  253  PHE253     -0.0202
     54  CD1       25.4990   17.5190 -112.3550 C.ar  253  PHE253     -0.0042
     55  CD2       25.0660   18.6520 -110.3000 C.ar  253  PHE253     -0.0042
     56  CE1       25.9410   18.6870 -112.9150 C.ar  253  PHE253     -0.0003
     57  CE2       25.5140   19.8300 -110.8520 C.ar  253  PHE253     -0.0003
     58  CZ        25.9460   19.8490 -112.1640 C.ar  253  PHE253     -0.0000
     59  N         22.1520   14.6640 -108.9570 N.am  254  ASP254     -0.1974
     60  CA        21.5240   13.4490 -108.4550 C.3   254  ASP254      0.1709
     61  C         20.2520   13.1480 -109.2300 C.2   254  ASP254      0.2293
     62  O         20.0030   11.9970 -109.6070 O.2   254  ASP254     -0.2864
     63  CB        21.2290   13.5670 -106.9620 C.3   254  ASP254      0.1436
     64  CG        22.5030   13.5790 -106.1180 C.2   254  ASP254      0.3671
     65  OD1       23.1800   12.5200 -106.0080 O.co2 254  ASP254     -0.2456
     66  OD2       22.8240   14.6570 -105.5620 O.co2 254  ASP254     -0.2456
     67  N         30.7110   13.1070 -108.2080 N.3   319  LEU319     -0.1245
     68  CA        29.8340   13.4890 -107.1040 C.3   319  LEU319      0.1561
     69  C         30.2910   12.8510 -105.8040 C.2   319  LEU319      0.2260
     70  O         30.2000   13.4630 -104.7340 O.2   319  LEU319     -0.2867
     71  CB        28.3990   13.0710 -107.4020 C.3   319  LEU319      0.0270
     72  CG        27.5560   13.9160 -108.3560 C.3   319  LEU319      0.0019
     73  CD1       26.2110   13.2250 -108.5510 C.3   319  LEU319      0.0001
     74  CD2       27.3420   15.3460 -107.8460 C.3   319  LEU319      0.0001
     75  N         33.2280   14.8030 -104.7010 N.3   322  LEU322     -0.1231
     76  CA        32.7090   16.0380 -104.1200 C.3   322  LEU322      0.1693
     77  C         32.2120   15.8180 -102.6980 C.2   322  LEU322      0.2591
     78  O         32.5780   16.5540 -101.7780 O.2   322  LEU322     -0.2718
     79  CB        31.5860   16.6010 -104.9870 C.3   322  LEU322      0.0284
     80  CG        32.1350   17.3550 -106.1940 C.3   322  LEU322      0.0019
     81  CD1       31.0710   17.4640 -107.2950 C.3   322  LEU322      0.0001
     82  CD2       32.6750   18.7190 -105.7620 C.3   322  LEU322      0.0001
     83  N         31.3720   14.8100 -102.4980 N.am  323  ARG323     -0.1980
     84  CA        30.8020   14.6200 -101.1730 C.3   323  ARG323      0.1597
     85  C         31.8300   14.0840 -100.1880 C.2   323  ARG323      0.2287
     86  O         31.7450   14.3870  -98.9960 O.2   323  ARG323     -0.2864
     87  CB        29.5800   13.7170 -101.2620 C.3   323  ARG323      0.0334
     88  CG        28.4340   14.4610 -101.9290 C.3   323  ARG323      0.0492
     89  CD        27.2200   13.5930 -102.1590 C.3   323  ARG323      0.2205
     90  NE        26.0910   14.4740 -102.4100 N.pl3 323  ARG323     -0.0865
     91  CZ        25.2870   14.4040 -103.4630 C.cat 323  ARG323      0.5346
     92  NH1       25.4460   13.4490 -104.3910 N.pl3 323  ARG323      0.1354
     93  NH2       24.3080   15.2960 -103.5700 N.pl3 323  ARG323      0.1354
     94  N         33.7570   17.1080  -99.2480 N.3   326  HIS326     -0.1241
     95  CA        32.8950   17.9180  -98.4040 C.3   326  HIS326      0.1621
     96  C         32.8470   17.3740  -96.9740 C.2   326  HIS326      0.2264
     97  O         32.8180   18.1430  -96.0090 O.2   326  HIS326     -0.2867
     98  CB        31.5090   17.9690  -99.0420 C.3   326  HIS326      0.0745
     99  CG        30.5190   18.7920  -98.2870 C.ar  326  HIS326      0.0817
    100  ND1       29.5340   18.2290  -97.5150 N.ar  326  HIS326     -0.2268
    101  CD2       30.3350   20.1320  -98.2160 C.ar  326  HIS326      0.1154
    102  CE1       28.7900   19.1840  -96.9850 C.ar  326  HIS326      0.1986
    103  NE2       29.2550   20.3480  -97.3960 N.ar  326  HIS326     -0.2212
    104  N         25.3180   13.4320  -94.1490 N.3   349  LEU349     -0.1245
    105  CA        26.2280   13.5950  -95.2790 C.3   349  LEU349      0.1561
    106  C         26.7530   12.2540  -95.7660 C.2   349  LEU349      0.2260
    107  O         26.9290   12.0610  -96.9770 O.2   349  LEU349     -0.2867
    108  CB        27.3860   14.5230  -94.9050 C.3   349  LEU349      0.0270
    109  CG        27.0420   15.9870  -94.6310 C.3   349  LEU349      0.0019
    110  CD1       28.2740   16.7030  -94.1000 C.3   349  LEU349      0.0001
    111  CD2       26.5370   16.6630  -95.8910 C.3   349  LEU349      0.0001
@<TRIPOS>BOND
     1    11    10    2
     2    13    14    1
     3    56    54   ar
     4    56    58   ar
     5    10     9    1
     6    54    53   ar
     7    58    57   ar
     8     9     8    1
     9     9    12    1
    10    18    19    1
    11    18    17    1
    12    18    20    1
    13    14    17    1
    14    14    15    1
    15    53    52    1
    16    53    55   ar
    17    15    16    2
    18    51    50    2
    19    57    55   ar
    20    49    52    1
    21    49    50    1
    22    49    48    1
    23    21    22    1
    24    50    59   am
    25    62    61    2
    26    22    25    1
    27    22    23    1
    28    61    60    1
    29    59    60    1
    30     4     3    2
    31    73    72    1
    32    60    63    1
    33    72    74    1
    34    72    71    1
    35    67    68    1
    36    23    24    2
    37     3     2    1
    38    71    68    1
    39    81    80    1
    40    68    69    1
    41    37    38    1
    42     2     1    1
    43     2     5    1
    44    63    64    1
    45    38    39    1
    46    38    41    1
    47    80    82    1
    48    80    79    1
    49    45    43   ar
    50    45    47   ar
    51    64    65   ar
    52    64    66   ar
    53    43    42   ar
    54    39    40    2
    55     6     5    1
    56    69    70    2
    57     5     7    1
    58    26    27    1
    59    47    46   ar
    60    42    41    1
    61    42    44   ar
    62    79    76    1
    63    75    76    1
    64    92    91    1
    65    46    44   ar
    66    76    77    1
    67    27    30    1
    68    27    28    1
    69    30    31    1
    70    93    91    1
    71    91    90    2
    72    28    29    2
    73    33    31   ar
    74    33    35   ar
    75    77    83   am
    76    77    78    2
    77    31    32   ar
    78    83    84    1
    79    90    89    1
    80    89    88    1
    81    88    87    1
    82    35    36   ar
    83    32    34   ar
    84    87    84    1
    85    84    85    1
    86    36    34   ar
    87    85    86    2
    88    94    95    1
    89    98    95    1
    90    98    99    1
    91    95    96    1
    92    99   101   ar
    93    99   100   ar
    94   101   103   ar
    95   100   102   ar
    96   103   102   ar
    97   107   106    2
    98    96    97    2
    99   111   109    1
   100   106   105    1
   101   105   108    1
   102   105   104    1
   103   108   109    1
   104   109   110    1
