@<TRIPOS>MOLECULE
tmp/6e42B02.pdb
 90 87 0 0 0
SMALL
GASTEIGER

@<TRIPOS>ATOM
      1  N         19.9530   30.1970  -99.5040 N.3   106  TYR106     -0.1241
      2  CA        21.1250   30.0990 -100.3720 C.3   106  TYR106      0.1605
      3  C         21.0220   31.0150 -101.6020 C.2   106  TYR106      0.2264
      4  O         21.9710   31.7310 -101.9330 O.2   106  TYR106     -0.2867
      5  CB        21.3030   28.6270 -100.7620 C.3   106  TYR106      0.0534
      6  CG        22.4830   28.3520 -101.6490 C.ar  106  TYR106     -0.0201
      7  CD1       23.7360   28.0880 -101.1120 C.ar  106  TYR106     -0.0009
      8  CD2       22.3360   28.3590 -103.0270 C.ar  106  TYR106     -0.0009
      9  CE1       24.8020   27.8470 -101.9270 C.ar  106  TYR106      0.0417
     10  CE2       23.3860   28.1230 -103.8450 C.ar  106  TYR106      0.0417
     11  CZ        24.6200   27.8790 -103.2990 C.ar  106  TYR106      0.1957
     12  OH        25.6690   27.6410 -104.1420 O.3   106  TYR106     -0.2866
     13  N         21.8450   34.6890 -100.2800 N.3   109  CYS109     -0.1221
     14  CA        23.1510   35.0780  -99.7650 C.3   109  CYS109      0.1808
     15  C         24.3050   34.4860 -100.5550 C.2   109  CYS109      0.2601
     16  O         25.4490   34.8860 -100.3390 O.2   109  CYS109     -0.2717
     17  CB        23.2690   34.6980  -98.2890 C.3   109  CYS109      0.0970
     18  SG        23.1970   32.9380  -97.9600 S.3   109  CYS109     -0.0800
     19  N         24.0440   33.5980 -101.5010 N.am  110  VAL110     -0.1979
     20  CA        25.0430   33.1930 -102.4830 C.3   110  VAL110      0.1595
     21  C         24.7010   33.7400 -103.8670 C.2   110  VAL110      0.2287
     22  O         25.4330   34.5690 -104.4110 O.2   110  VAL110     -0.2864
     23  CB        25.2120   31.6590 -102.5100 C.3   110  VAL110      0.0276
     24  CG1       26.3130   31.2570 -103.5240 C.3   110  VAL110      0.0022
     25  CG2       25.5520   31.1770 -101.1190 C.3   110  VAL110      0.0022
     26  N         33.0520   32.2500  -97.6980 N.3   143  PHE143     -0.1227
     27  CA        32.0810   31.1710  -97.6790 C.3   143  PHE143      0.1736
     28  C         31.0710   31.3040  -98.8150 C.2   143  PHE143      0.2595
     29  O         30.8520   30.3490  -99.5690 O.2   143  PHE143     -0.2718
     30  CB        31.3790   31.1560  -96.3310 C.3   143  PHE143      0.0547
     31  CG        30.4850   29.9940  -96.1420 C.ar  143  PHE143     -0.0202
     32  CD1       31.0050   28.7130  -96.1370 C.ar  143  PHE143     -0.0042
     33  CD2       29.1220   30.1730  -95.9600 C.ar  143  PHE143     -0.0042
     34  CE1       30.1830   27.6180  -95.9550 C.ar  143  PHE143     -0.0003
     35  CE2       28.2990   29.0940  -95.7780 C.ar  143  PHE143     -0.0003
     36  CZ        28.8320   27.8070  -95.7710 C.ar  143  PHE143     -0.0000
     37  N         30.4630   32.4860  -98.9660 N.am  144  PHE144     -0.1976
     38  CA        29.4790   32.6810 -100.0260 C.3   144  PHE144      0.1639
     39  C         30.1150   32.5980 -101.4040 C.2   144  PHE144      0.2290
     40  O         29.5700   31.9580 -102.3070 O.2   144  PHE144     -0.2864
     41  CB        28.7810   34.0330  -99.8640 C.3   144  PHE144      0.0560
     42  CG        27.9890   34.1520  -98.5990 C.ar  144  PHE144     -0.0200
     43  CD1       27.3990   33.0390  -98.0350 C.ar  144  PHE144     -0.0042
     44  CD2       27.8280   35.3820  -97.9790 C.ar  144  PHE144     -0.0042
     45  CE1       26.6500   33.1530  -96.8640 C.ar  144  PHE144     -0.0003
     46  CE2       27.0880   35.4990  -96.8120 C.ar  144  PHE144     -0.0003
     47  CZ        26.5000   34.3900  -96.2630 C.ar  144  PHE144     -0.0000
     48  N         31.3180   29.0260 -102.4010 N.3   147  SER147     -0.1217
     49  CA        30.1070   28.3070 -102.7770 C.3   147  SER147      0.1889
     50  C         29.6480   28.7330 -104.1540 C.2   147  SER147      0.2288
     51  O         29.3770   27.8910 -105.0150 O.2   147  SER147     -0.2866
     52  CB        28.9910   28.5610 -101.7710 C.3   147  SER147      0.2089
     53  OG        29.3550   28.0340 -100.5220 O.3   147  SER147     -0.2183
     54  N         23.6080   32.1240  -90.1680 N.3   214  LEU214     -0.1245
     55  CA        22.9010   31.3160  -91.1430 C.3   214  LEU214      0.1561
     56  C         21.9080   30.3670  -90.4960 C.2   214  LEU214      0.2260
     57  O         21.1740   29.6810  -91.2140 O.2   214  LEU214     -0.2867
     58  CB        23.8990   30.5190  -91.9940 C.3   214  LEU214      0.0270
     59  CG        24.9250   31.3600  -92.7680 C.3   214  LEU214      0.0019
     60  CD1       25.8520   30.4450  -93.6040 C.3   214  LEU214      0.0001
     61  CD2       24.2210   32.4000  -93.6470 C.3   214  LEU214      0.0001
     62  N         19.7770   28.6510  -93.9180 N.3   242  GLY242     -0.1210
     63  CA        20.4120   28.5010  -95.2160 C.3   242  GLY242      0.1956
     64  C         21.2320   27.2310  -95.3460 C.2   242  GLY242      0.2613
     65  O         21.8430   26.7600  -94.3810 O.2   242  GLY242     -0.2717
     66  N         21.2480   26.6640  -96.5470 N.am  243  SER243     -0.1938
     67  CA        21.9270   25.4030  -96.7710 C.3   243  SER243      0.2055
     68  C         22.2210   25.2870  -98.2530 C.2   243  SER243      0.2643
     69  O         21.3820   25.6570  -99.0730 O.2   243  SER243     -0.2714
     70  CB        21.0540   24.2260  -96.3280 C.3   243  SER243      0.2130
     71  OG        21.6860   23.0150  -96.6670 O.3   243  SER243     -0.2179
     72  N         23.3980   24.7470  -98.5890 N.am  244  ALA244     -0.1963
     73  CA        23.6830   24.4420  -99.9850 C.3   244  ALA244      0.1728
     74  C         22.7800   23.3350 -100.5170 C.2   244  ALA244      0.2616
     75  O         22.7030   23.1350 -101.7320 O.2   244  ALA244     -0.2715
     76  CB        25.1460   24.0610 -100.1540 C.3   244  ALA244      0.0334
     77  N         22.0910   22.6230  -99.6300 N.am  245  GLY245     -0.1955
     78  CA        20.9970   21.7600 -100.0150 C.3   245  GLY245      0.1869
     79  C         19.9370   22.5470 -100.7490 C.2   245  GLY245      0.2309
     80  O         19.1110   21.9640 -101.4560 O.2   245  GLY245     -0.2863
     81  N         33.7570   17.1080  -99.2480 N.3   326  HIS326     -0.1241
     82  CA        32.8950   17.9180  -98.4040 C.3   326  HIS326      0.1621
     83  C         32.8470   17.3740  -96.9740 C.2   326  HIS326      0.2264
     84  O         32.8180   18.1430  -96.0090 O.2   326  HIS326     -0.2867
     85  CB        31.5090   17.9690  -99.0420 C.3   326  HIS326      0.0745
     86  CG        30.5190   18.7920  -98.2870 C.ar  326  HIS326      0.0817
     87  ND1       29.5340   18.2290  -97.5150 N.ar  326  HIS326     -0.2268
     88  CD2       30.3350   20.1320  -98.2160 C.ar  326  HIS326      0.1154
     89  CE1       28.7900   19.1840  -96.9850 C.ar  326  HIS326      0.1986
     90  NE2       29.2550   20.3480  -97.3960 N.ar  326  HIS326     -0.2212
@<TRIPOS>BOND
     1    51    50    2
     2    22    21    2
     3    50    49    1
     4    12    11    1
     5    21    20    1
     6    10    11   ar
     7    10     8   ar
     8    24    23    1
     9    11     9   ar
    10     8     6   ar
    11    49    48    1
    12    49    52    1
    13    23    20    1
    14    23    25    1
    15    20    19    1
    16    40    39    2
    17     4     3    2
    18     9     7   ar
    19    52    53    1
    20    75    74    2
    21     6     7   ar
    22     6     5    1
    23     3     2    1
    24    19    15   am
    25    80    79    2
    26    39    38    1
    27     5     2    1
    28    79    78    1
    29    15    16    2
    30    15    14    1
    31    74    73    1
    32    74    77   am
    33     2     1    1
    34    13    14    1
    35    76    73    1
    36    38    41    1
    37    38    37    1
    38    78    77    1
    39    73    72    1
    40    41    42    1
    41    14    17    1
    42    29    28    2
    43    81    82    1
    44    69    68    2
    45    85    82    1
    46    85    86    1
    47    37    28   am
    48    28    27    1
    49    42    43   ar
    50    42    44   ar
    51    72    68   am
    52    82    83    1
    53    17    18    1
    54    86    88   ar
    55    86    87   ar
    56    68    67    1
    57    88    90   ar
    58    43    45   ar
    59    44    46   ar
    60    26    27    1
    61    27    30    1
    62    87    89   ar
    63    90    89   ar
    64    83    84    2
    65    45    47   ar
    66    46    47   ar
    67    67    66    1
    68    67    70    1
    69    71    70    1
    70    66    64   am
    71    30    31    1
    72    31    32   ar
    73    31    33   ar
    74    32    34   ar
    75    33    35   ar
    76    34    36   ar
    77    35    36   ar
    78    64    63    1
    79    64    65    2
    80    63    62    1
    81    61    59    1
    82    60    59    1
    83    59    58    1
    84    58    55    1
    85    57    56    2
    86    55    56    1
    87    55    54    1
