@<TRIPOS>MOLECULE
tmp/6e42B04.pdb
 104 103 0 0 0
SMALL
GASTEIGER

@<TRIPOS>ATOM
      1  N          7.5780   39.4430  -95.6700 N.3    92  CYS92      -0.1235
      2  CA         6.6940   38.3180  -95.9380 C.3    92  CYS92       0.1677
      3  C          5.9670   38.5080  -97.2570 C.2    92  CYS92       0.2270
      4  O          5.7940   37.5570  -98.0230 O.2    92  CYS92      -0.2867
      5  CB         5.7160   38.1650  -94.7840 C.3    92  CYS92       0.0956
      6  SG         6.4780   37.4240  -93.3640 S.3    92  CYS92      -0.0801
      7  N          8.4740   37.9470  -99.9780 N.3    95  SER95      -0.1202
      8  CA         8.7640   36.5290 -100.0060 C.3    95  SER95       0.2020
      9  C          7.6060   35.7540 -100.6170 C.2    95  SER95       0.2618
     10  O          7.8220   34.7630 -101.3170 O.2    95  SER95      -0.2717
     11  CB         9.0610   36.0420  -98.5920 C.3    95  SER95       0.2103
     12  OG        10.2590   36.6270  -98.1100 O.3    95  SER95      -0.2182
     13  N          6.3720   36.2080 -100.3870 N.am   96  ALA96      -0.1979
     14  CA         5.2310   35.5300 -100.9890 C.3    96  ALA96       0.1597
     15  C          5.2520   35.6950 -102.5020 C.2    96  ALA96       0.2287
     16  O          4.9740   34.7470 -103.2370 O.2    96  ALA96      -0.2864
     17  CB         3.9190   36.0660 -100.3910 C.3    96  ALA96       0.0319
     18  N          7.8930   33.6380 -103.8030 N.3    99  GLU99      -0.1231
     19  CA         7.5680   32.2550 -103.4700 C.3    99  GLU99       0.1699
     20  C          8.6870   31.5890 -102.6720 C.2    99  GLU99       0.2592
     21  O          8.9710   30.4050 -102.8400 O.2    99  GLU99      -0.2718
     22  CB         7.2430   31.4510 -104.7300 C.3    99  GLU99       0.0402
     23  CG         6.1000   32.0310 -105.5600 C.3    99  GLU99       0.1161
     24  CD         5.7160   31.1100 -106.7220 C.2    99  GLU99       0.3649
     25  OE1        5.0600   30.0920 -106.4570 O.co2  99  GLU99      -0.2457
     26  OE2        6.0870   31.3860 -107.8850 O.co2  99  GLU99      -0.2457
     27  N          9.3430   32.3570 -101.8100 N.am  100  LEU100     -0.1966
     28  CA        10.3820   31.8410 -100.9440 C.3   100  LEU100      0.1713
     29  C          9.9950   32.1230  -99.5030 C.2   100  LEU100      0.2458
     30  O          9.4440   33.1830  -99.2210 O.2   100  LEU100     -0.2730
     31  CB        11.7490   32.5090 -101.2430 C.3   100  LEU100      0.0310
     32  CG        12.3760   32.1050 -102.5690 C.3   100  LEU100      0.0022
     33  CD1       13.4470   33.1120 -102.9870 C.3   100  LEU100      0.0001
     34  CD2       12.9360   30.6970 -102.4340 C.3   100  LEU100      0.0001
     35  N         10.2940   31.2300  -98.5710 N.am  101  PRO101     -0.2716
     36  CA         9.9970   31.5210  -97.1780 C.3   101  PRO101      0.1521
     37  C         10.7670   32.7430  -96.7160 C.2   101  PRO101      0.2440
     38  O         11.8520   33.0610  -97.2480 O.2   101  PRO101     -0.2731
     39  CB        10.4490   30.2490  -96.4460 C.3   101  PRO101      0.0310
     40  CG        10.7640   29.2580  -97.5180 C.3   101  PRO101      0.0237
     41  CD        11.1370   30.0350  -98.7130 C.3   101  PRO101      0.0939
     42  N         10.2210   33.4880  -95.7540 N.am  102  PRO102     -0.2727
     43  CA        10.8760   34.7310  -95.2990 C.3   102  PRO102      0.1402
     44  C         11.9850   34.4320  -94.3030 C.2   102  PRO102      0.2269
     45  O         11.9020   34.7300  -93.0990 O.2   102  PRO102     -0.2865
     46  CB         9.7080   35.5070  -94.6770 C.3   102  PRO102      0.0296
     47  CG         8.8640   34.4240  -94.0760 C.3   102  PRO102      0.0237
     48  CD         8.9470   33.2510  -95.0530 C.3   102  PRO102      0.0939
     49  N          2.0560   39.9550  -89.5870 N.3   232  PHE232     -0.1227
     50  CA         1.7990   39.2030  -90.8010 C.3   232  PHE232      0.1736
     51  C          1.2000   37.8400  -90.5090 C.2   232  PHE232      0.2595
     52  O          0.1670   37.4970  -91.0880 O.2   232  PHE232     -0.2718
     53  CB         3.0820   39.0590  -91.6400 C.3   232  PHE232      0.0547
     54  CG         2.8000   38.7180  -93.0660 C.ar  232  PHE232     -0.0202
     55  CD1        2.4640   39.7110  -93.9710 C.ar  232  PHE232     -0.0042
     56  CD2        2.7940   37.4040  -93.4810 C.ar  232  PHE232     -0.0042
     57  CE1        2.1670   39.4010  -95.2840 C.ar  232  PHE232     -0.0003
     58  CE2        2.5130   37.0800  -94.7890 C.ar  232  PHE232     -0.0003
     59  CZ         2.1890   38.0840  -95.6980 C.ar  232  PHE232     -0.0000
     60  N          1.8110   37.0540  -89.6250 N.am  233  TRP233     -0.1976
     61  CA         1.2560   35.7830  -89.1750 C.3   233  TRP233      0.1640
     62  C          1.0590   35.8280  -87.6720 C.2   233  TRP233      0.2290
     63  O          1.9570   36.2520  -86.9380 O.2   233  TRP233     -0.2864
     64  CB         2.1610   34.6070  -89.5180 C.3   233  TRP233      0.0576
     65  CG         2.2200   34.3120  -90.9550 C.ar  233  TRP233      0.0006
     66  CD1        1.1780   34.2480  -91.8130 C.ar  233  TRP233      0.0946
     67  CD2        3.4010   34.0600  -91.7260 C.ar  233  TRP233      0.0152
     68  NE1        1.6260   33.9560  -93.0800 N.ar  233  TRP233     -0.2442
     69  CE2        2.9890   33.8290  -93.0530 C.ar  233  TRP233      0.0810
     70  CE3        4.7670   33.9930  -91.4170 C.ar  233  TRP233      0.0012
     71  CZ2        3.8920   33.5470  -94.0820 C.ar  233  TRP233      0.0191
     72  CZ3        5.6640   33.7150  -92.4330 C.ar  233  TRP233      0.0001
     73  CH2        5.2240   33.4890  -93.7540 C.ar  233  TRP233      0.0015
     74  N          6.4680   30.8410  -86.7640 N.3   237  LYS237     -0.1245
     75  CA         6.7450   29.9650  -87.8940 C.3   237  LYS237      0.1561
     76  C          8.1870   29.4770  -87.8750 C.2   237  LYS237      0.2260
     77  O          9.1250   30.2460  -87.6390 O.2   237  LYS237     -0.2867
     78  CB         6.4730   30.6770  -89.2190 C.3   237  LYS237      0.0271
     79  CG         5.0070   30.8600  -89.4980 C.3   237  LYS237      0.0035
     80  CD         4.6390   30.2470  -90.8250 C.3   237  LYS237      0.0206
     81  CE         3.1510   30.3310  -91.0330 C.3   237  LYS237      0.1093
     82  NZ         2.3520   30.0720  -89.7830 N.3   237  LYS237     -0.1314
     83  N         11.2560   28.0430  -90.0010 N.3   239  PHE239     -0.1241
     84  CA        11.8570   27.8840  -91.3150 C.3   239  PHE239      0.1605
     85  C         13.3060   27.4670  -91.1560 C.2   239  PHE239      0.2264
     86  O         14.0110   27.9660  -90.2760 O.2   239  PHE239     -0.2867
     87  CB        11.7810   29.1650  -92.1150 C.3   239  PHE239      0.0534
     88  CG        10.3980   29.5610  -92.4660 C.ar  239  PHE239     -0.0203
     89  CD1        9.6300   28.7590  -93.2960 C.ar  239  PHE239     -0.0042
     90  CD2        9.8500   30.7380  -91.9620 C.ar  239  PHE239     -0.0042
     91  CE1        8.3380   29.1220  -93.6290 C.ar  239  PHE239     -0.0003
     92  CE2        8.5570   31.1070  -92.2880 C.ar  239  PHE239     -0.0003
     93  CZ         7.7960   30.2950  -93.1220 C.ar  239  PHE239     -0.0000
     94  N         11.8430   23.6690 -101.1630 N.3   277  ARG277     -0.1245
     95  CA        10.9360   24.7720 -100.8910 C.3   277  ARG277      0.1563
     96  C         11.6780   26.0760 -100.6680 C.2   277  ARG277      0.2260
     97  O         11.0530   27.1330 -100.6420 O.2   277  ARG277     -0.2867
     98  CB        10.0580   24.4450  -99.6830 C.3   277  ARG277      0.0307
     99  CG         9.1250   23.2470  -99.9360 C.3   277  ARG277      0.0489
    100  CD         8.1470   23.0200  -98.7800 C.3   277  ARG277      0.2205
    101  NE         8.6540   22.0030  -97.8600 N.pl3 277  ARG277     -0.0865
    102  CZ         8.2320   20.7380  -97.8120 C.cat 277  ARG277      0.5346
    103  NH1        7.2740   20.3140  -98.6380 N.pl3 277  ARG277      0.1354
    104  NH2        8.7740   19.8960  -96.9370 N.pl3 277  ARG277      0.1354
@<TRIPOS>BOND
     1    26    24   ar
     2    24    25   ar
     3    24    23    1
     4    23    22    1
     5    22    19    1
     6    18    19    1
     7    19    20    1
     8    16    15    2
     9    33    32    1
    10    21    20    2
    11    20    27   am
    12    32    34    1
    13    32    31    1
    14    15    14    1
    15    27    28    1
    16    10     9    2
    17    31    28    1
    18    94    95    1
    19    14    17    1
    20    14    13    1
    21    28    29    1
    22    95    96    1
    23    95    98    1
    24    96    97    2
    25     9    13   am
    26     9     8    1
    27     8     7    1
    28     8    11    1
    29    99    98    1
    30    99   100    1
    31    29    30    2
    32    29    35   am
    33   100   101    1
    34    41    35    1
    35    41    40    1
    36   103   102    1
    37    11    12    1
    38    35    36    1
    39     4     3    2
    40   101   102    2
    41   102   104    1
    42    40    39    1
    43     3     2    1
    44    38    37    2
    45    36    37    1
    46    36    39    1
    47    37    42   am
    48     2     1    1
    49     2     5    1
    50    42    43    1
    51    42    48    1
    52    59    57   ar
    53    59    58   ar
    54    43    46    1
    55    43    44    1
    56    57    55   ar
    57    48    47    1
    58    58    56   ar
    59     5     6    1
    60    46    47    1
    61    44    45    2
    62    71    73   ar
    63    71    69   ar
    64    55    54   ar
    65    73    72   ar
    66    91    89   ar
    67    91    93   ar
    68    56    54   ar
    69    89    88   ar
    70    93    92   ar
    71    68    69   ar
    72    68    66   ar
    73    54    53    1
    74    69    67   ar
    75    88    87    1
    76    88    90   ar
    77    72    70   ar
    78    92    90   ar
    79    87    84    1
    80    66    65   ar
    81    67    70   ar
    82    67    65   ar
    83    53    50    1
    84    84    85    1
    85    84    83    1
    86    85    86    2
    87    52    51    2
    88    81    80    1
    89    81    82    1
    90    65    64    1
    91    80    79    1
    92    50    51    1
    93    50    49    1
    94    51    60   am
    95    60    61    1
    96    64    61    1
    97    79    78    1
    98    78    75    1
    99    61    62    1
   100    75    76    1
   101    75    74    1
   102    76    77    2
   103    62    63    2
