@<TRIPOS>MOLECULE
tmp/6e43C01.pdb
 102 96 0 0 0
SMALL
GASTEIGER

@<TRIPOS>ATOM
      1  N         24.5940   75.7620   22.5160 N.3   157  VAL157     -0.1245
      2  CA        23.9110   77.0330   22.7740 C.3   157  VAL157      0.1561
      3  C         22.6660   76.8100   23.6320 C.2   157  VAL157      0.2260
      4  O         22.3860   77.5860   24.5520 O.2   157  VAL157     -0.2867
      5  CB        23.5580   77.7530   21.4600 C.3   157  VAL157      0.0252
      6  CG1       22.6990   78.9800   21.7450 C.3   157  VAL157      0.0019
      7  CG2       24.8340   78.1850   20.7190 C.3   157  VAL157      0.0019
      8  N         22.1080   78.3880   27.3430 N.3   161  ALA161     -0.1245
      9  CA        20.8920   79.1380   27.6590 C.3   161  ALA161      0.1562
     10  C         20.1290   78.5540   28.8410 C.2   161  ALA161      0.2260
     11  O         19.3670   79.2790   29.4940 O.2   161  ALA161     -0.2867
     12  CB        19.9790   79.1960   26.4350 C.3   161  ALA161      0.0290
     13  N         23.4890   84.8780   28.9680 N.3   194  LEU194     -0.1245
     14  CA        23.3510   85.1630   27.5470 C.3   194  LEU194      0.1561
     15  C         24.6810   85.5840   26.9470 C.2   194  LEU194      0.2260
     16  O         24.9640   85.2740   25.7870 O.2   194  LEU194     -0.2867
     17  CB        22.2920   86.2460   27.3140 C.3   194  LEU194      0.0270
     18  CG        20.8410   85.8490   27.6230 C.3   194  LEU194      0.0019
     19  CD1       19.9270   87.0690   27.5950 C.3   194  LEU194      0.0001
     20  CD2       20.3410   84.8000   26.6500 C.3   194  LEU194      0.0001
     21  N         26.3180   82.2890   26.3570 N.3   197  ALA197     -0.1245
     22  CA        25.7800   81.6980   25.1350 C.3   197  ALA197      0.1562
     23  C         26.4380   82.2930   23.9000 C.2   197  ALA197      0.2260
     24  O         26.7200   81.5810   22.9250 O.2   197  ALA197     -0.2867
     25  CB        24.2610   81.9050   25.0660 C.3   197  ALA197      0.0290
     26  N         28.7720   80.5710   20.4980 N.3   201  PHE201     -0.1241
     27  CA        28.5570   80.7770   19.0810 C.3   201  PHE201      0.1605
     28  C         29.8410   80.6790   18.2470 C.2   201  PHE201      0.2264
     29  O         29.8430   80.1640   17.1770 O.2   201  PHE201     -0.2867
     30  CB        27.9860   82.1290   18.8000 C.3   201  PHE201      0.0534
     31  CG        26.5010   82.2090   18.8250 C.ar  201  PHE201     -0.0203
     32  CD1       25.7970   81.7100   19.8420 C.ar  201  PHE201     -0.0042
     33  CD2       25.8520   82.8560   17.8560 C.ar  201  PHE201     -0.0042
     34  CE1       24.4520   81.8190   19.8620 C.ar  201  PHE201     -0.0003
     35  CE2       24.5060   82.9810   17.8570 C.ar  201  PHE201     -0.0003
     36  CZ        23.8010   82.4400   18.8660 C.ar  201  PHE201     -0.0000
     37  N         14.8290   78.7980   22.6130 N.3   256  VAL256     -0.1231
     38  CA        15.7670   79.7750   23.1600 C.3   256  VAL256      0.1692
     39  C         15.7800   81.0230   22.2920 C.2   256  VAL256      0.2592
     40  O         15.9110   82.1490   22.7950 O.2   256  VAL256     -0.2718
     41  CB        17.1590   79.1230   23.2750 C.3   256  VAL256      0.0266
     42  CG1       18.2520   80.1580   23.3510 C.3   256  VAL256      0.0020
     43  CG2       17.1960   78.1890   24.4830 C.3   256  VAL256      0.0020
     44  N         15.5990   80.8530   20.9820 N.am  257  PHE257     -0.1976
     45  CA        15.6170   81.9920   20.0800 C.3   257  PHE257      0.1639
     46  C         14.4900   82.9710   20.3870 C.2   257  PHE257      0.2290
     47  O         14.6340   84.1660   20.1200 O.2   257  PHE257     -0.2864
     48  CB        15.5270   81.5100   18.6280 C.3   257  PHE257      0.0560
     49  CG        15.6300   82.6150   17.6250 C.ar  257  PHE257     -0.0200
     50  CD1       16.8720   83.1260   17.2600 C.ar  257  PHE257     -0.0042
     51  CD2       14.4880   83.1690   17.0630 C.ar  257  PHE257     -0.0042
     52  CE1       16.9640   84.1580   16.3310 C.ar  257  PHE257     -0.0003
     53  CE2       14.5790   84.1970   16.1440 C.ar  257  PHE257     -0.0003
     54  CZ        15.8180   84.6950   15.7800 C.ar  257  PHE257     -0.0000
     55  N         13.5790   84.5300   25.4160 N.3   260  PHE260     -0.1241
     56  CA        14.0640   85.7060   26.1400 C.3   260  PHE260      0.1605
     57  C         13.4500   86.9970   25.6150 C.2   260  PHE260      0.2264
     58  O         13.2720   87.9470   26.3900 O.2   260  PHE260     -0.2867
     59  CB        15.5940   85.7510   26.1110 C.3   260  PHE260      0.0534
     60  CG        16.2120   84.5820   26.8060 C.ar  260  PHE260     -0.0203
     61  CD1       16.1530   84.4740   28.1820 C.ar  260  PHE260     -0.0042
     62  CD2       16.7710   83.5490   26.0760 C.ar  260  PHE260     -0.0042
     63  CE1       16.6820   83.3670   28.8350 C.ar  260  PHE260     -0.0003
     64  CE2       17.3090   82.4490   26.7120 C.ar  260  PHE260     -0.0003
     65  CZ        17.2630   82.3580   28.0980 C.ar  260  PHE260     -0.0000
     66  N         21.0890   90.1990   23.9520 N.3   326  LEU326     -0.1245
     67  CA        20.2870   89.7170   22.8300 C.3   326  LEU326      0.1561
     68  C         20.6800   90.4150   21.5330 C.2   326  LEU326      0.2260
     69  O         20.7840   89.7680   20.4820 O.2   326  LEU326     -0.2867
     70  CB        18.7960   89.9180   23.1030 C.3   326  LEU326      0.0270
     71  CG        18.0990   89.0340   24.1420 C.3   326  LEU326      0.0019
     72  CD1       16.6270   89.4160   24.2490 C.3   326  LEU326      0.0001
     73  CD2       18.2510   87.5450   23.7920 C.3   326  LEU326      0.0001
     74  N         23.7870   88.7980   20.3760 N.3   329  LEU329     -0.1231
     75  CA        23.5010   87.4860   19.7990 C.3   329  LEU329      0.1693
     76  C         22.9520   87.6060   18.3810 C.2   329  LEU329      0.2591
     77  O         23.3820   86.8700   17.4790 O.2   329  LEU329     -0.2718
     78  CB        22.5270   86.7250   20.6950 C.3   329  LEU329      0.0284
     79  CG        23.1760   86.1370   21.9440 C.3   329  LEU329      0.0019
     80  CD1       22.1430   85.9470   23.0480 C.3   329  LEU329      0.0001
     81  CD2       23.8600   84.8170   21.6220 C.3   329  LEU329      0.0001
     82  N         22.0170   88.5370   18.1540 N.am  330  ARG330     -0.1980
     83  CA        21.4630   88.6930   16.8170 C.3   330  ARG330      0.1597
     84  C         22.5200   89.1890   15.8370 C.2   330  ARG330      0.2287
     85  O         22.5280   88.7810   14.6690 O.2   330  ARG330     -0.2864
     86  CB        20.2620   89.6380   16.8410 C.3   330  ARG330      0.0334
     87  CG        18.9190   88.9160   17.0100 C.3   330  ARG330      0.0492
     88  CD        18.7430   88.4500   18.4300 C.3   330  ARG330      0.2205
     89  NE        17.6710   87.4660   18.5840 N.pl3 330  ARG330     -0.0865
     90  CZ        16.5810   87.6470   19.3280 C.cat 330  ARG330      0.5346
     91  NH1       16.3920   88.8000   19.9800 N.pl3 330  ARG330      0.1354
     92  NH2       15.6790   86.6700   19.4250 N.pl3 330  ARG330      0.1354
     93  N         24.5790   86.1820   14.9830 N.3   333  HIS333     -0.1241
     94  CA        23.7080   85.4020   14.1110 C.3   333  HIS333      0.1621
     95  C         23.7510   85.9150   12.6740 C.2   333  HIS333      0.2264
     96  O         23.8270   85.1260   11.7210 O.2   333  HIS333     -0.2867
     97  CB        22.2890   85.4510   14.6750 C.3   333  HIS333      0.0745
     98  CG        21.3950   84.3510   14.1940 C.ar  333  HIS333      0.0817
     99  ND1       20.5070   83.7040   15.0250 N.ar  333  HIS333     -0.2268
    100  CD2       21.2420   83.7910   12.9690 C.ar  333  HIS333      0.1154
    101  CE1       19.8340   82.8020   14.3320 C.ar  333  HIS333      0.1986
    102  NE2       20.2580   82.8370   13.0800 N.ar  333  HIS333     -0.2212
@<TRIPOS>BOND
     1    96    95    2
     2    95    94    1
     3   100   102   ar
     4   100    98   ar
     5   102   101   ar
     6    94    97    1
     7    94    93    1
     8    98    97    1
     9    98    99   ar
    10   101    99   ar
    11    85    84    2
    12    54    53   ar
    13    54    52   ar
    14    84    83    1
    15    53    51   ar
    16    52    50   ar
    17    83    86    1
    18    83    82    1
    19    86    87    1
    20    87    88    1
    21    51    49   ar
    22    29    28    2
    23    50    49   ar
    24    77    76    2
    25    49    48    1
    26    33    35   ar
    27    33    31   ar
    28    35    36   ar
    29    82    76   am
    30    28    27    1
    31    76    75    1
    32    88    89    1
    33    89    90    2
    34    48    45    1
    35    30    31    1
    36    30    27    1
    37    31    32   ar
    38    36    34   ar
    39    27    26    1
    40    90    92    1
    41    90    91    1
    42    75    74    1
    43    75    78    1
    44    32    34   ar
    45    45    46    1
    46    45    44    1
    47    47    46    2
    48    69    68    2
    49    78    79    1
    50     7     5    1
    51    44    39   am
    52     5     6    1
    53     5     2    1
    54    68    67    1
    55    81    79    1
    56    79    80    1
    57    39    40    2
    58    39    38    1
    59     1     2    1
    60    37    38    1
    61     2     3    1
    62    67    70    1
    63    67    66    1
    64    24    23    2
    65    70    71    1
    66    38    41    1
    67    41    42    1
    68    41    43    1
    69     3     4    2
    70    73    71    1
    71    23    22    1
    72    71    72    1
    73    25    22    1
    74    22    21    1
    75    55    56    1
    76    57    56    1
    77    57    58    2
    78    16    15    2
    79    62    64   ar
    80    62    60   ar
    81    59    56    1
    82    59    60    1
    83    12     9    1
    84    20    18    1
    85    64    65   ar
    86    60    61   ar
    87    15    14    1
    88    17    14    1
    89    17    18    1
    90     8     9    1
    91    14    13    1
    92    19    18    1
    93     9    10    1
    94    65    63   ar
    95    61    63   ar
    96    10    11    2
