@<TRIPOS>MOLECULE
tmp/6e4aB00.pdb
 149 146 0 0 0
SMALL
GASTEIGER

@<TRIPOS>ATOM
      1  N        -10.8850    7.6320   92.2170 N.3    40  TRP40      -0.1228
      2  CA        -9.5350    7.8040   91.8530 C.3    40  TRP40       0.1722
      3  C         -8.8030    6.5290   91.3970 C.2    40  TRP40       0.2437
      4  O         -7.9770    6.6680   90.4910 O.2    40  TRP40      -0.2733
      5  CB        -8.7840    8.6030   92.9370 C.3    40  TRP40       0.0563
      6  CG        -8.6890    7.9210   94.2530 C.ar   40  TRP40       0.0003
      7  CD1       -9.5550    8.0250   95.3370 C.ar   40  TRP40       0.0946
      8  CD2       -7.7100    6.9520   94.6500 C.ar   40  TRP40       0.0152
      9  NE1       -9.1500    7.2140   96.3440 N.ar   40  TRP40      -0.2442
     10  CE2       -8.0260    6.5470   95.9680 C.ar   40  TRP40       0.0810
     11  CE3       -6.5900    6.4060   94.0380 C.ar   40  TRP40       0.0012
     12  CZ2       -7.2340    5.6050   96.6180 C.ar   40  TRP40       0.0191
     13  CZ3       -5.8630    5.4310   94.6950 C.ar   40  TRP40       0.0001
     14  CH2       -6.1560    5.0780   95.9810 C.ar   40  TRP40       0.0015
     15  N         -8.9960    5.3360   91.9550 N.am   41  PRO41      -0.2718
     16  CA        -8.2300    4.2050   91.4130 C.3    41  PRO41       0.1535
     17  C         -8.6460    3.7620   90.0060 C.2    41  PRO41       0.2598
     18  O         -8.0120    2.8770   89.4690 O.2    41  PRO41      -0.2715
     19  CB        -8.5750    3.0570   92.3660 C.3    41  PRO41       0.0310
     20  CG        -9.1010    3.7170   93.6210 C.3    41  PRO41       0.0237
     21  CD        -9.8020    4.9530   93.1270 C.3    41  PRO41       0.0939
     22  N         -9.7450    4.3370   89.5440 N.am   42  PHE42      -0.1974
     23  CA       -10.3680    3.9510   88.2560 C.3    42  PHE42       0.1639
     24  C        -10.2790    5.0380   87.2310 C.2    42  PHE42       0.2290
     25  O        -10.8050    4.9030   86.1510 O.2    42  PHE42      -0.2864
     26  CB       -11.8340    3.6070   88.4880 C.3    42  PHE42       0.0560
     27  CG       -11.9970    2.5230   89.5090 C.ar   42  PHE42      -0.0200
     28  CD1      -11.8460    1.1930   89.1490 C.ar   42  PHE42      -0.0042
     29  CD2      -12.1980    2.8120   90.8540 C.ar   42  PHE42      -0.0042
     30  CE1      -11.9940    0.1850   90.0960 C.ar   42  PHE42      -0.0003
     31  CE2      -12.3180    1.7960   91.7710 C.ar   42  PHE42      -0.0003
     32  CZ       -12.1340    0.5010   91.4260 C.ar   42  PHE42      -0.0000
     33  N         -7.5640    6.1980   85.6410 N.3    44  GLN44      -0.1231
     34  CA        -6.4720    6.0050   84.6880 C.3    44  GLN44       0.1683
     35  C         -6.1830    4.4920   84.6770 C.2    44  GLN44       0.2434
     36  O         -6.5490    3.7450   85.6030 O.2    44  GLN44      -0.2733
     37  CB        -5.2150    6.7880   85.0480 C.3    44  GLN44       0.0380
     38  CG        -4.6970    6.4950   86.4320 C.3    44  GLN44       0.0905
     39  CD        -5.5470    7.0520   87.5610 C.2    44  GLN44       0.2608
     40  OE1       -5.8440    8.2600   87.6050 O.2    44  GLN44      -0.2717
     41  NE2       -5.9330    6.1560   88.4960 N.am   44  GLN44      -0.0878
     42  N         -5.4570    3.9630   83.6770 N.am   45  PRO45      -0.2718
     43  CA        -5.1130    2.5560   83.6460 C.3    45  PRO45       0.1535
     44  C         -4.3890    2.1450   84.9240 C.2    45  PRO45       0.2598
     45  O         -3.5850    2.9470   85.4980 O.2    45  PRO45      -0.2715
     46  CB        -4.1700    2.4350   82.4130 C.3    45  PRO45       0.0310
     47  CG        -4.6480    3.5280   81.5670 C.3    45  PRO45       0.0237
     48  CD        -4.9780    4.7010   82.4610 C.3    45  PRO45       0.0939
     49  N         -4.5400    0.9260   85.3370 N.am   46  VAL46      -0.1964
     50  CA        -3.7990    0.4000   86.4230 C.3    46  VAL46       0.1727
     51  C         -2.3100    0.4190   86.0560 C.2    46  VAL46       0.2616
     52  O         -1.8710   -0.2610   85.0950 O.2    46  VAL46      -0.2715
     53  CB        -4.2500   -1.0370   86.7400 C.3    46  VAL46       0.0290
     54  CG1       -3.3830   -1.6830   87.7990 C.3    46  VAL46       0.0023
     55  CG2       -5.7020   -1.0390   87.1670 C.3    46  VAL46       0.0023
     56  N         -1.5060    1.1460   86.8270 N.am   47  ASP47      -0.1971
     57  CA        -0.0370    1.0990   86.6420 C.3    47  ASP47       0.1709
     58  C          0.4930   -0.0570   87.4430 C.2    47  ASP47       0.2293
     59  O          0.8480    0.0980   88.6150 O.2    47  ASP47      -0.2864
     60  CB         0.5960    2.4060   87.0200 C.3    47  ASP47       0.1436
     61  CG         2.0970    2.4600   86.7220 C.2    47  ASP47       0.3671
     62  OD1        2.6930    1.4200   86.6640 O.co2  47  ASP47      -0.2456
     63  OD2        2.5850    3.5740   86.7040 O.co2  47  ASP47      -0.2456
     64  N          2.5680    0.0030   91.0720 N.3    51  LEU51      -0.1245
     65  CA         1.8100   -0.6120   92.1490 C.3    51  LEU51       0.1561
     66  C          2.3890   -1.9660   92.4520 C.2    51  LEU51       0.2260
     67  O          1.9200   -2.6340   93.3910 O.2    51  LEU51      -0.2867
     68  CB         0.3080   -0.7310   91.7380 C.3    51  LEU51       0.0270
     69  CG        -0.3390    0.6280   91.5500 C.3    51  LEU51       0.0019
     70  CD1       -1.7410    0.4810   90.9600 C.3    51  LEU51       0.0001
     71  CD2       -0.3290    1.4360   92.8340 C.3    51  LEU51       0.0001
     72  N          2.2620   -4.8870   90.8500 N.3    53  LEU53      -0.1245
     73  CA         1.3270   -5.9840   90.6290 C.3    53  LEU53       0.1561
     74  C          1.6630   -6.7070   89.3240 C.2    53  LEU53       0.2260
     75  O          1.0460   -6.4450   88.2840 O.2    53  LEU53      -0.2867
     76  CB        -0.0940   -5.4050   90.5190 C.3    53  LEU53       0.0270
     77  CG        -0.5040   -4.4440   91.6210 C.3    53  LEU53       0.0019
     78  CD1       -1.8840   -3.9040   91.2580 C.3    53  LEU53       0.0001
     79  CD2       -0.4850   -5.1580   92.9800 C.3    53  LEU53       0.0001
     80  N         -0.9230   -8.4820   87.0050 N.3    56  TYR56      -0.1241
     81  CA        -2.1690   -7.8000   86.6010 C.3    56  TYR56       0.1605
     82  C         -2.5410   -8.0310   85.1140 C.2    56  TYR56       0.2264
     83  O         -3.6180   -8.4910   84.7740 O.2    56  TYR56      -0.2867
     84  CB        -2.1090   -6.3340   86.9490 C.3    56  TYR56       0.0534
     85  CG        -3.4530   -5.7050   86.6830 C.ar   56  TYR56      -0.0201
     86  CD1       -4.4800   -5.8350   87.6130 C.ar   56  TYR56      -0.0009
     87  CD2       -3.7140   -5.0700   85.4590 C.ar   56  TYR56      -0.0009
     88  CE1       -5.7080   -5.2450   87.3750 C.ar   56  TYR56       0.0417
     89  CE2       -4.9530   -4.5440   85.2150 C.ar   56  TYR56       0.0417
     90  CZ        -5.9590   -4.6470   86.1390 C.ar   56  TYR56       0.1957
     91  OH        -7.1900   -4.1860   85.8850 O.3    56  TYR56      -0.2866
     92  N        -14.5530   -2.7970   83.1320 N.3    91  MET91      -0.1196
     93  CA       -13.8010   -2.1860   84.1650 C.3    91  MET91       0.1786
     94  C        -14.1500   -2.7590   85.5170 C.2    91  MET91       0.2306
     95  O        -13.2640   -3.1490   86.3230 O.2    91  MET91      -0.2863
     96  CB       -13.9980   -0.6570   84.1870 C.2    91  MET91       0.0070
     97  CG       -13.3320    0.0800   85.3050 C.2    91  MET91       0.0282
     98  SD       -13.6320    1.8220   85.3390 S.3    91  MET91      -0.1125
     99  CE       -15.2230    1.7790   86.1660 C.3    91  MET91       0.0742
    100  N        -11.8830   -5.6040   88.0680 N.3    95  CYS95      -0.1235
    101  CA       -11.5940   -5.3670   89.4860 C.3    95  CYS95       0.1677
    102  C        -12.0320   -6.5520   90.3560 C.2    95  CYS95       0.2270
    103  O        -11.3440   -7.0270   91.2110 O.2    95  CYS95      -0.2867
    104  CB       -12.2340   -4.0540   89.8990 C.3    95  CYS95       0.0956
    105  SG       -11.9370   -3.5750   91.5820 S.3    95  CYS95      -0.0801
    106  N         -9.8860   -9.8560   89.8240 N.3    98  TYR98      -0.1227
    107  CA        -8.4670   -9.7840   90.1580 C.3    98  TYR98       0.1736
    108  C         -8.2170   -9.5780   91.6660 C.2    98  TYR98       0.2595
    109  O         -7.3310  -10.1810   92.2030 O.2    98  TYR98      -0.2718
    110  CB        -7.8190   -8.5800   89.4490 C.3    98  TYR98       0.0548
    111  CG        -6.3290   -8.4950   89.7210 C.ar   98  TYR98      -0.0200
    112  CD1       -5.4100   -9.3450   89.1330 C.ar   98  TYR98      -0.0009
    113  CD2       -5.9080   -7.6320   90.7070 C.ar   98  TYR98      -0.0009
    114  CE1       -4.0760   -9.2790   89.5410 C.ar   98  TYR98       0.0417
    115  CE2       -4.5800   -7.5580   91.0780 C.ar   98  TYR98       0.0417
    116  CZ        -3.6870   -8.3680   90.4840 C.ar   98  TYR98       0.1957
    117  OH        -2.3620   -8.2740   90.9190 O.3    98  TYR98      -0.2866
    118  N         -8.9850   -8.6770   92.3110 N.am   99  ASN99      -0.1974
    119  CA        -8.7090   -8.3050   93.7100 C.3    99  ASN99       0.1688
    120  C         -9.3770   -9.2310   94.7170 C.2    99  ASN99       0.2292
    121  O        -10.4100   -9.7560   94.4420 O.2    99  ASN99      -0.2864
    122  CB        -9.1700   -6.8740   93.9020 C.3    99  ASN99       0.1181
    123  CG        -8.3700   -5.9130   93.0760 C.2    99  ASN99       0.2629
    124  OD1       -7.1720   -5.6450   93.3610 O.2    99  ASN99      -0.2716
    125  ND2       -8.8780   -5.5110   91.9570 N.am   99  ASN99      -0.0877
    126  N        -10.3900   -2.7320   99.9830 N.3   104  ASP104     -0.1225
    127  CA       -10.9040   -1.4270   99.7200 C.3   104  ASP104      0.1805
    128  C        -11.1430   -1.1270   98.2240 C.2   104  ASP104      0.2597
    129  O        -12.1080   -0.4350   97.9320 O.2   104  ASP104     -0.2718
    130  CB        -9.9840   -0.3480  100.3190 C.3   104  ASP104      0.1424
    131  CG       -10.2200   -0.1220  101.8020 C.2   104  ASP104      0.3668
    132  OD1      -11.2520    0.4600  102.1250 O.co2 104  ASP104     -0.2456
    133  OD2       -9.3450   -0.4460  102.6150 O.co2 104  ASP104     -0.2456
    134  N        -10.2180   -1.5470   97.3730 N.am  105  ILE105     -0.1980
    135  CA       -10.4300   -1.2230   95.9380 C.3   105  ILE105      0.1595
    136  C        -11.7600   -1.8000   95.4550 C.2   105  ILE105      0.2287
    137  O        -12.4370   -1.2040   94.6060 O.2   105  ILE105     -0.2864
    138  CB        -9.1870   -1.6720   95.1310 C.3   105  ILE105      0.0276
    139  CG1       -7.9210   -0.8770   95.4930 C.3   105  ILE105      0.0022
    140  CG2       -9.4000   -1.5770   93.6150 C.3   105  ILE105      0.0022
    141  CD1       -7.9070    0.5070   95.0580 C.3   105  ILE105      0.0001
    142  N        -14.6940    0.1170   96.7300 N.3   108  MET108     -0.1245
    143  CA       -14.8230    1.3990   95.9340 C.3   108  MET108      0.1570
    144  C        -15.4880    1.0860   94.6100 C.2   108  MET108      0.2261
    145  O        -16.3970    1.8020   94.2170 O.2   108  MET108     -0.2867
    146  CB       -13.4310    1.9630   95.7490 C.3   108  MET108      0.0387
    147  CG       -12.8150    2.3870   97.0970 C.3   108  MET108      0.0595
    148  SD       -11.0700    2.7150   97.0890 S.3   108  MET108     -0.1393
    149  CE       -11.1490    4.2900   96.4360 C.3   108  MET108      0.0692
@<TRIPOS>BOND
     1    47    46    1
     2    47    48    1
     3    46    43    1
     4    48    42    1
     5    92    93    1
     6    43    42    1
     7    43    44    1
     8    42    35   am
     9    93    96    1
    10    93    94    1
    11    96    97    2
    12    35    34    1
    13    35    36    2
    14    34    37    1
    15    34    33    1
    16    83    82    2
    17    44    49   am
    18    44    45    2
    19    37    38    1
    20    52    51    2
    21    82    81    1
    22    89    87   ar
    23    89    90   ar
    24    97    98    1
    25    49    50    1
    26    98    99    1
    27    87    85   ar
    28    94    95    2
    29    91    90    1
    30    51    50    1
    31    51    56   am
    32    90    88   ar
    33    25    24    2
    34    50    53    1
    35    38    39    1
    36    81    84    1
    37    81    80    1
    38    57    56    1
    39    57    60    1
    40    57    58    1
    41    62    61   ar
    42    85    84    1
    43    85    86   ar
    44    63    61   ar
    45    61    60    1
    46    53    55    1
    47    53    54    1
    48    24    23    1
    49    88    86   ar
    50    58    59    2
    51    39    40    2
    52    39    41   am
    53   100   101    1
    54    23    26    1
    55    23    22    1
    56    75    74    2
    57    26    27    1
    58   112   114   ar
    59   112   111   ar
    60    28    27   ar
    61    28    30   ar
    62    74    73    1
    63   110   111    1
    64   110   107    1
    65    18    17    2
    66   101   104    1
    67   101   102    1
    68    27    29   ar
    69   114   116   ar
    70    22    17   am
    71   111   113   ar
    72   106   107    1
    73   104   105    1
    74    17    16    1
    75    30    32   ar
    76   107   108    1
    77   102   103    2
    78   116   117    1
    79   116   115   ar
    80     4     3    2
    81    76    73    1
    82    76    77    1
    83    73    72    1
    84   113   115   ar
    85    29    31   ar
    86    70    69    1
    87    64    65    1
    88    78    77    1
    89     3     2    1
    90     3    15   am
    91    16    15    1
    92    16    19    1
    93    32    31   ar
    94    69    68    1
    95    69    71    1
    96    77    79    1
    97   108   109    2
    98   108   118   am
    99    68    65    1
   100     2     1    1
   101     2     5    1
   102    15    21    1
   103   125   123   am
   104    65    66    1
   105   118   119    1
   106    19    20    1
   107    66    67    2
   108     5     6    1
   109   123   124    2
   110   123   122    1
   111    21    20    1
   112   140   138    1
   113   119   122    1
   114   119   120    1
   115    11     8   ar
   116    11    13   ar
   117   145   144    2
   118     6     8   ar
   119     6     7   ar
   120   121   120    2
   121   137   136    2
   122   144   143    1
   123     8    10   ar
   124    13    14   ar
   125   141   139    1
   126   138   139    1
   127   138   135    1
   128     7     9   ar
   129   136   135    1
   130   146   143    1
   131   146   147    1
   132   143   142    1
   133   135   134    1
   134    10     9   ar
   135    10    12   ar
   136    14    12   ar
   137   149   148    1
   138   148   147    1
   139   134   128   am
   140   129   128    2
   141   128   127    1
   142   127   126    1
   143   127   130    1
   144   130   131    1
   145   131   132   ar
   146   131   133   ar
