@<TRIPOS>MOLECULE
tmp/6e4bA01.pdb
 159 160 0 0 0
SMALL
GASTEIGER

@<TRIPOS>ATOM
      1  N         27.5400    9.8340    6.9140 N.3    20  TYR20      -0.1227
      2  CA        26.1050   10.0730    6.8250 C.3    20  TYR20       0.1736
      3  C         25.5160    9.2280    5.7060 C.2    20  TYR20       0.2596
      4  O         25.9560    9.3160    4.5550 O.2    20  TYR20      -0.2718
      5  CB        25.8280   11.5550    6.5740 C.3    20  TYR20       0.0548
      6  CG        25.9790   12.4340    7.7950 C.ar   20  TYR20      -0.0200
      7  CD1       27.2330   12.8520    8.2250 C.ar   20  TYR20      -0.0009
      8  CD2       24.8670   12.8470    8.5170 C.ar   20  TYR20      -0.0009
      9  CE1       27.3740   13.6570    9.3410 C.ar   20  TYR20       0.0417
     10  CE2       25.0000   13.6520    9.6350 C.ar   20  TYR20       0.0417
     11  CZ        26.2550   14.0530   10.0420 C.ar   20  TYR20       0.1957
     12  OH        26.3920   14.8530   11.1520 O.3    20  TYR20      -0.2866
     13  N         24.5270    8.4040    6.0400 N.am   21  SER21      -0.1952
     14  CA        23.9360    7.4640    5.0930 C.3    21  SER21       0.1924
     15  C         22.4360    7.7150    5.0210 C.2    21  SER21       0.2314
     16  O         21.6980    7.3740    5.9530 O.2    21  SER21      -0.2863
     17  CB        24.2360    6.0220    5.4990 C.3    21  SER21       0.2116
     18  OG        24.0110    5.1340    4.4190 O.3    21  SER21      -0.2180
     19  N         15.3550    6.6250    4.6530 N.3    82  GLU82      -0.1231
     20  CA        16.1150    7.4400    5.5900 C.3    82  GLU82       0.1699
     21  C         16.0310    8.9150    5.1970 C.2    82  GLU82       0.2592
     22  O         15.6920    9.2640    4.0630 O.2    82  GLU82      -0.2718
     23  CB        17.5730    6.9720    5.6220 C.3    82  GLU82       0.0402
     24  CG        18.4760    7.5830    6.7020 C.3    82  GLU82       0.1161
     25  CD        18.0180    7.3130    8.1290 C.2    82  GLU82       0.3649
     26  OE1       16.9380    7.7970    8.5250 O.co2  82  GLU82      -0.2457
     27  OE2       18.7520    6.6110    8.8580 O.co2  82  GLU82      -0.2457
     28  N         16.3200    9.7900    6.1600 N.am   83  MET83      -0.1979
     29  CA        16.3590   11.2190    5.8740 C.3    83  MET83       0.1605
     30  C         17.3650   11.5140    4.7670 C.2    83  MET83       0.2287
     31  O         18.4580   10.9420    4.7270 O.2    83  MET83      -0.2864
     32  CB        16.7190   12.0100    7.1320 C.3    83  MET83       0.0413
     33  CG        16.6160   13.5170    6.9590 C.3    83  MET83       0.0598
     34  SD        16.6860   14.4160    8.5220 S.3    83  MET83      -0.1393
     35  CE        18.3480   14.0340    9.0340 C.3    83  MET83       0.0692
     36  N         20.1240   13.5510    3.1330 N.3    85  PHE85      -0.1241
     37  CA        21.1630   14.4470    3.6190 C.3    85  PHE85       0.1605
     38  C         21.7150   15.3640    2.5370 C.2    85  PHE85       0.2264
     39  O         22.5960   16.1800    2.8280 O.2    85  PHE85      -0.2867
     40  CB        22.2950   13.6310    4.2480 C.3    85  PHE85       0.0534
     41  CG        21.8970   12.9450    5.5210 C.ar   85  PHE85      -0.0203
     42  CD1       21.7530   13.6690    6.6930 C.ar   85  PHE85      -0.0042
     43  CD2       21.6370   11.5830    5.5410 C.ar   85  PHE85      -0.0042
     44  CE1       21.3770   13.0460    7.8670 C.ar   85  PHE85      -0.0003
     45  CE2       21.2580   10.9530    6.7150 C.ar   85  PHE85      -0.0003
     46  CZ        21.1260   11.6870    7.8780 C.ar   85  PHE85      -0.0000
     47  N         31.5200   13.4860    9.5820 N.3    93  HIS93      -0.1241
     48  CA        31.3630   14.6330   10.4720 C.3    93  HIS93       0.1621
     49  C         32.6560   15.4340   10.5840 C.2    93  HIS93       0.2264
     50  O         32.6300   16.6700   10.6230 O.2    93  HIS93      -0.2867
     51  CB        30.9030   14.1420   11.8460 C.3    93  HIS93       0.0745
     52  CG        31.0210   15.1620   12.9370 C.ar   93  HIS93       0.0817
     53  ND1       29.9990   16.0260   13.2630 N.ar   93  HIS93      -0.2268
     54  CD2       32.0330   15.4360   13.7940 C.ar   93  HIS93       0.1154
     55  CE1       30.3800   16.7980   14.2650 C.ar   93  HIS93       0.1986
     56  NE2       31.6110   16.4610   14.6050 N.ar   93  HIS93      -0.2212
     57  N         26.7960   23.2710    8.5170 N.3   104  TYR104     -0.1241
     58  CA        26.8820   22.0750    9.3490 C.3   104  TYR104      0.1605
     59  C         26.9160   22.4180   10.8320 C.2   104  TYR104      0.2264
     60  O         26.3960   21.6540   11.6520 O.2   104  TYR104     -0.2867
     61  CB        28.1100   21.2480    8.9690 C.3   104  TYR104      0.0534
     62  CG        28.1590   19.8940    9.6380 C.ar  104  TYR104     -0.0201
     63  CD1       27.3100   18.8720    9.2380 C.ar  104  TYR104     -0.0009
     64  CD2       29.0550   19.6370   10.6670 C.ar  104  TYR104     -0.0009
     65  CE1       27.3500   17.6320    9.8470 C.ar  104  TYR104      0.0417
     66  CE2       29.1040   18.4010   11.2790 C.ar  104  TYR104      0.0417
     67  CZ        28.2480   17.4030   10.8660 C.ar  104  TYR104      0.1957
     68  OH        28.2930   16.1690   11.4750 O.3   104  TYR104     -0.2866
     69  N         23.4120   22.9290   11.8210 N.3   107  TRP107     -0.1227
     70  CA        22.7210   21.6480   11.9050 C.3   107  TRP107      0.1737
     71  C         23.0600   20.9160   13.1980 C.2   107  TRP107      0.2595
     72  O         22.2050   20.2370   13.7750 O.2   107  TRP107     -0.2718
     73  CB        23.0750   20.7950   10.6880 C.3   107  TRP107      0.0564
     74  CG        22.9550   19.3200   10.9080 C.ar  107  TRP107      0.0003
     75  CD1       23.9620   18.4500   11.2090 C.ar  107  TRP107      0.0946
     76  CD2       21.7600   18.5380   10.8250 C.ar  107  TRP107      0.0152
     77  NE1       23.4660   17.1740   11.3280 N.ar  107  TRP107     -0.2442
     78  CE2       22.1160   17.2010   11.0960 C.ar  107  TRP107      0.0810
     79  CE3       20.4220   18.8380   10.5510 C.ar  107  TRP107      0.0012
     80  CZ2       21.1840   16.1680   11.1030 C.ar  107  TRP107      0.0191
     81  CZ3       19.4970   17.8100   10.5590 C.ar  107  TRP107      0.0001
     82  CH2       19.8820   16.4920   10.8350 C.ar  107  TRP107      0.0015
     83  N         24.3010   21.0470   13.6720 N.am  108  CYS108     -0.1970
     84  CA        24.6990   20.3620   14.8980 C.3   108  CYS108      0.1712
     85  C         24.0470   20.9750   16.1310 C.2   108  CYS108      0.2296
     86  O         23.8570   20.2810   17.1370 O.2   108  CYS108     -0.2864
     87  CB        26.2200   20.3840   15.0440 C.3   108  CYS108      0.0983
     88  SG        27.1040   19.4130   13.8060 S.3   108  CYS108     -0.0798
     89  N         19.2930   21.0780   15.1250 N.3   111  TRP111     -0.1241
     90  CA        19.0270   20.0140   14.1630 C.3   111  TRP111      0.1605
     91  C         17.5470   19.8400   13.8480 C.2   111  TRP111      0.2264
     92  O         17.2200   19.1540   12.8740 O.2   111  TRP111     -0.2867
     93  CB        19.6040   18.6890   14.6680 C.3   111  TRP111      0.0550
     94  CG        19.0360   18.2210   15.9720 C.ar  111  TRP111      0.0003
     95  CD1       19.5310   18.4720   17.2180 C.ar  111  TRP111      0.0946
     96  CD2       17.8700   17.4080   16.1590 C.ar  111  TRP111      0.0152
     97  NE1       18.7430   17.8700   18.1710 N.ar  111  TRP111     -0.2442
     98  CE2       17.7170   17.2110   17.5470 C.ar  111  TRP111      0.0810
     99  CE3       16.9390   16.8310   15.2890 C.ar  111  TRP111      0.0012
    100  CZ2       16.6720   16.4610   18.0850 C.ar  111  TRP111      0.0191
    101  CZ3       15.9020   16.0860   15.8250 C.ar  111  TRP111      0.0001
    102  CH2       15.7770   15.9080   17.2100 C.ar  111  TRP111      0.0015
    103  N         14.4210   18.1760    9.2170 N.3   122  PHE122     -0.1241
    104  CA        13.7210   17.2890   10.1380 C.3   122  PHE122      0.1605
    105  C         12.2170   17.5280   10.1190 C.2   122  PHE122      0.2264
    106  O         11.4430   16.6080   10.4050 O.2   122  PHE122     -0.2867
    107  CB        14.2690   17.4580   11.5540 C.3   122  PHE122      0.0534
    108  CG        13.5800   16.5980   12.5720 C.ar  122  PHE122     -0.0203
    109  CD1       13.7630   15.2260   12.5730 C.ar  122  PHE122     -0.0042
    110  CD2       12.7420   17.1590   13.5210 C.ar  122  PHE122     -0.0042
    111  CE1       13.1270   14.4300   13.5050 C.ar  122  PHE122     -0.0003
    112  CE2       12.1020   16.3670   14.4570 C.ar  122  PHE122     -0.0003
    113  CZ        12.2960   15.0010   14.4490 C.ar  122  PHE122     -0.0000
    114  N         11.0160   15.6960    7.1070 N.3   125  PHE125     -0.1241
    115  CA        11.2410   14.2760    7.3550 C.3   125  PHE125      0.1605
    116  C         10.2130   13.7180    8.3320 C.2   125  PHE125      0.2264
    117  O          9.7520   12.5820    8.1750 O.2   125  PHE125     -0.2867
    118  CB        12.6620   14.0630    7.8780 C.3   125  PHE125      0.0534
    119  CG        12.9080   12.6940    8.4370 C.ar  125  PHE125     -0.0203
    120  CD1       12.9150   11.5850    7.6090 C.ar  125  PHE125     -0.0042
    121  CD2       13.1470   12.5170    9.7890 C.ar  125  PHE125     -0.0042
    122  CE1       13.1440   10.3250    8.1180 C.ar  125  PHE125     -0.0003
    123  CE2       13.3790   11.2570   10.3060 C.ar  125  PHE125     -0.0003
    124  CZ        13.3760   10.1600    9.4690 C.ar  125  PHE125     -0.0000
    125  N         17.2010    3.6690   10.8290 N.3   151  GLN151     -0.1231
    126  CA        17.1240    4.0180   12.2460 C.3   151  GLN151      0.1698
    127  C         16.3300    5.2990   12.4720 C.2   151  GLN151      0.2592
    128  O         15.5430    5.3840   13.4210 O.2   151  GLN151     -0.2718
    129  CB        18.5250    4.1500   12.8420 C.3   151  GLN151      0.0381
    130  CG        18.5280    4.0670   14.3630 C.3   151  GLN151      0.0905
    131  CD        19.8060    4.5870   14.9860 C.2   151  GLN151      0.2608
    132  OE1       20.5690    5.3200   14.3570 O.2   151  GLN151     -0.2717
    133  NE2       20.0440    4.2120   16.2390 N.am  151  GLN151     -0.0878
    134  N         16.5270    6.3080   11.6250 N.am  152  GLY152     -0.1957
    135  CA        15.7860    7.5480   11.7920 C.3   152  GLY152      0.1869
    136  C         14.2890    7.3520   11.6470 C.2   152  GLY152      0.2309
    137  O         13.4990    7.9400   12.3900 O.2   152  GLY152     -0.2863
    138  N         12.3250   11.2130   19.2760 N.3   169  MET169     -0.1230
    139  CA        12.6840    9.9830   18.5770 C.3   169  MET169      0.1702
    140  C         13.9300    9.3380   19.1670 C.2   169  MET169      0.2592
    141  O         14.0960    8.1170   19.0750 O.2   169  MET169     -0.2718
    142  CB        12.8960   10.2670   17.0880 C.3   169  MET169      0.0401
    143  CG        13.9470   11.3340   16.7980 C.3   169  MET169      0.0596
    144  SD        14.2600   11.5770   15.0360 S.3   169  MET169     -0.1393
    145  CE        15.0020   10.0070   14.6050 C.3   169  MET169      0.0692
    146  N         14.8080   10.1300   19.7820 N.am  170  TRP170     -0.1976
    147  CA        16.0750    9.6160   20.2850 C.3   170  TRP170      0.1640
    148  C         15.9610    8.9670   21.6560 C.2   170  TRP170      0.2290
    149  O         16.9610    8.4370   22.1520 O.2   170  TRP170     -0.2864
    150  CB        17.1210   10.7320   20.3200 C.3   170  TRP170      0.0576
    151  CG        17.4440   11.2630   18.9590 C.ar  170  TRP170      0.0006
    152  CD1       17.3750   12.5610   18.5470 C.ar  170  TRP170      0.0946
    153  CD2       17.8660   10.5020   17.8190 C.ar  170  TRP170      0.0152
    154  NE1       17.7370   12.6580   17.2250 N.ar  170  TRP170     -0.2442
    155  CE2       18.0420   11.4080   16.7560 C.ar  170  TRP170      0.0810
    156  CE3       18.1160    9.1430   17.5960 C.ar  170  TRP170      0.0012
    157  CZ2       18.4570   10.9990   15.4900 C.ar  170  TRP170      0.0191
    158  CZ3       18.5250    8.7400   16.3390 C.ar  170  TRP170      0.0001
    159  CH2       18.6920    9.6650   15.3030 C.ar  170  TRP170      0.0015
@<TRIPOS>BOND
     1    38    39    2
     2    38    37    1
     3    36    37    1
     4    37    40    1
     5    22    21    2
     6    40    41    1
     7    18    17    1
     8     4     3    2
     9    19    20    1
    10    31    30    2
    11    30    29    1
    12    15    14    1
    13    15    16    2
    14    14    17    1
    15    14    13    1
    16    21    20    1
    17    21    28   am
    18    41    43   ar
    19    41    42   ar
    20    43    45   ar
    21    20    23    1
    22    23    24    1
    23     3    13   am
    24     3     2    1
    25    29    28    1
    26    29    32    1
    27     5     2    1
    28     5     6    1
    29    42    44   ar
    30    24    25    1
    31    45    46   ar
    32     2     1    1
    33    33    32    1
    34    33    34    1
    35   114   115    1
    36   115   118    1
    37   115   116    1
    38   120   122   ar
    39   120   119   ar
    40     6     7   ar
    41     6     8   ar
    42    44    46   ar
    43   118   119    1
    44   122   124   ar
    45    25    26   ar
    46    25    27   ar
    47   117   116    2
    48     7     9   ar
    49   119   121   ar
    50     8    10   ar
    51    57    58    1
    52    34    35    1
    53    61    58    1
    54    61    62    1
    55   103   104    1
    56    63    62   ar
    57    63    65   ar
    58     9    11   ar
    59    58    59    1
    60   124   123   ar
    61    47    48    1
    62    10    11   ar
    63    62    64   ar
    64   121   123   ar
    65    65    67   ar
    66    11    12    1
    67   105   104    1
    68   105   106    2
    69   104   107    1
    70    48    49    1
    71    48    51    1
    72    79    81   ar
    73    79    76   ar
    74    81    82   ar
    75    49    50    2
    76    64    66   ar
    77    73    74    1
    78    73    70    1
    79    76    74   ar
    80    76    78   ar
    81   125   126    1
    82    59    60    2
    83    82    80   ar
    84    67    66   ar
    85    67    68    1
    86    74    75   ar
    87    78    80   ar
    88    78    77   ar
    89    75    77   ar
    90   107   108    1
    91   134   135    1
    92   134   127   am
    93   136   135    1
    94   136   137    2
    95    69    70    1
    96    51    52    1
    97    70    71    1
    98   126   127    1
    99   126   129    1
   100   127   128    2
   101   108   109   ar
   102   108   110   ar
   103   109   111   ar
   104   129   130    1
   105    92    91    2
   106    52    53   ar
   107    52    54   ar
   108    71    83   am
   109    71    72    2
   110    53    55   ar
   111   111   113   ar
   112   110   112   ar
   113    83    84    1
   114    54    56   ar
   115    88    87    1
   116    91    90    1
   117    90    93    1
   118    90    89    1
   119    55    56   ar
   120   132   131    2
   121   130   131    1
   122   113   112   ar
   123   145   144    1
   124    93    94    1
   125    84    87    1
   126    84    85    1
   127   131   133   am
   128   144   143    1
   129    99   101   ar
   130    99    96   ar
   131   159   157   ar
   132   159   158   ar
   133   157   155   ar
   134   101   102   ar
   135    94    96   ar
   136    94    95   ar
   137    85    86    2
   138    96    98   ar
   139   158   156   ar
   140   155   154   ar
   141   155   153   ar
   142   143   142    1
   143   142   139    1
   144   102   100   ar
   145    95    97   ar
   146   154   152   ar
   147    98   100   ar
   148    98    97   ar
   149   156   153   ar
   150   153   151   ar
   151   152   151   ar
   152   139   140    1
   153   139   138    1
   154   151   150    1
   155   141   140    2
   156   140   146   am
   157   146   147    1
   158   147   150    1
   159   147   148    1
   160   148   149    2
