@<TRIPOS>MOLECULE
tmp/6e4bA00.pdb
 78 71 0 0 0
SMALL
GASTEIGER

@<TRIPOS>ATOM
      1  N         -3.0830   -5.3410   14.9880 N.3     2  MET2       -0.1245
      2  CA        -1.9770   -5.2050   14.0500 C.3     2  MET2        0.1570
      3  C         -0.6620   -5.2130   14.8140 C.2     2  MET2        0.2261
      4  O         -0.4980   -4.4590   15.7790 O.2     2  MET2       -0.2867
      5  CB        -2.1090   -3.9100   13.2450 C.3     2  MET2        0.0387
      6  CG        -1.2480   -3.8400   11.9970 C.3     2  MET2        0.0595
      7  SD        -1.7230   -2.4610   10.9310 S.3     2  MET2       -0.1393
      8  CE        -0.7810   -1.1280   11.6570 C.3     2  MET2        0.0692
      9  N          2.3310    6.9630    8.7550 N.3   133  ILE133     -0.1231
     10  CA         1.4530    6.5620    9.8500 C.3   133  ILE133      0.1692
     11  C         -0.0070    6.7390    9.4580 C.2   133  ILE133      0.2591
     12  O         -0.8670    5.9430    9.8570 O.2   133  ILE133     -0.2718
     13  CB         1.8060    7.3550   11.1260 C.3   133  ILE133      0.0266
     14  CG1        3.1810    6.9360   11.6460 C.3   133  ILE133      0.0019
     15  CG2        0.7570    7.1510   12.2070 C.3   133  ILE133      0.0020
     16  CD1        3.7490    7.8570   12.6960 C.3   133  ILE133      0.0001
     17  N         -0.3080    7.7570    8.6470 N.am  134  ALA134     -0.1980
     18  CA        -1.6960    8.0510    8.3000 C.3   134  ALA134      0.1597
     19  C         -2.3070    6.9540    7.4340 C.2   134  ALA134      0.2287
     20  O         -3.4990    6.6500    7.5640 O.2   134  ALA134     -0.2864
     21  CB        -1.7840    9.4020    7.5920 C.3   134  ALA134      0.0319
     22  N         -1.5040    3.7690    7.4820 N.3   136  LEU136     -0.1231
     23  CA        -1.4320    2.4410    8.0820 C.3   136  LEU136      0.1693
     24  C         -2.7800    1.7330    8.0360 C.2   136  LEU136      0.2592
     25  O         -2.8310    0.4980    8.0090 O.2   136  LEU136     -0.2718
     26  CB        -0.9380    2.5370    9.5260 C.3   136  LEU136      0.0284
     27  CG         0.5670    2.6930    9.7400 C.3   136  LEU136      0.0019
     28  CD1        0.8900    2.6890   11.2250 C.3   136  LEU136      0.0001
     29  CD2        1.3250    1.5910    9.0160 C.3   136  LEU136      0.0001
     30  N         -3.8770    2.4960    8.0190 N.am  137  SER137     -0.1952
     31  CA        -5.2080    1.9030    7.9690 C.3   137  SER137      0.1924
     32  C         -5.4580    1.1470    6.6720 C.2   137  SER137      0.2314
     33  O         -6.3920    0.3390    6.6110 O.2   137  SER137     -0.2863
     34  CB        -6.2680    2.9880    8.1530 C.3   137  SER137      0.2116
     35  OG        -6.3580    3.3800    9.5120 O.3   137  SER137     -0.2180
     36  N         -5.2700   -2.6320    7.3200 N.3   140  GLN140     -0.1245
     37  CA        -6.0650   -3.0180    8.4810 C.3   140  GLN140      0.1566
     38  C         -6.3810   -4.5060    8.5130 C.2   140  GLN140      0.2260
     39  O         -6.6920   -5.0360    9.5850 O.2   140  GLN140     -0.2867
     40  CB        -7.3670   -2.2170    8.5150 C.3   140  GLN140      0.0367
     41  CG        -8.2890   -2.4880    7.3360 C.3   140  GLN140      0.0905
     42  CD        -9.4810   -1.5560    7.3020 C.2   140  GLN140      0.2608
     43  OE1       -9.3560   -0.3780    6.9600 O.2   140  GLN140     -0.2717
     44  NE2      -10.6500   -2.0790    7.6570 N.am  140  GLN140     -0.0878
     45  N          3.9540    6.8750   17.2320 N.3   161  LEU161     -0.1245
     46  CA         2.8510    5.9320   17.3840 C.3   161  LEU161      0.1561
     47  C          2.2860    5.9590   18.7990 C.2   161  LEU161      0.2260
     48  O          1.0660    5.8900   18.9850 O.2   161  LEU161     -0.2867
     49  CB         3.3080    4.5220   17.0140 C.3   161  LEU161      0.0270
     50  CG         3.2450    4.1600   15.5280 C.3   161  LEU161      0.0019
     51  CD1        3.9160    2.8220   15.2710 C.3   161  LEU161      0.0001
     52  CD2        1.8030    4.1440   15.0410 C.3   161  LEU161      0.0001
     53  N         -0.7940   -2.5010   17.5530 N.3   184  ILE184     -0.1245
     54  CA        -1.8050   -1.4560   17.4420 C.3   184  ILE184      0.1561
     55  C         -3.1730   -2.1100   17.5720 C.2   184  ILE184      0.2260
     56  O         -3.5440   -2.9560   16.7480 O.2   184  ILE184     -0.2867
     57  CB        -1.6870   -0.6770   16.1230 C.3   184  ILE184      0.0252
     58  CG1       -0.2830   -0.0840   15.9870 C.3   184  ILE184      0.0019
     59  CG2       -2.7380    0.4190   16.0580 C.3   184  ILE184      0.0019
     60  CD1       -0.0600    0.6800   14.7050 C.3   184  ILE184      0.0001
     61  N         -7.1190   -0.8410   18.1140 N.3   186  GLN186     -0.1231
     62  CA        -8.0840    0.2560   18.1610 C.3   186  GLN186      0.1698
     63  C         -7.3810    1.6040   18.3230 C.2   186  GLN186      0.2592
     64  O         -7.6680    2.3810   19.2370 O.2   186  GLN186     -0.2718
     65  CB        -9.1120    0.0300   19.2710 C.3   186  GLN186      0.0381
     66  CG        -9.7210   -1.3610   19.2650 C.3   186  GLN186      0.0905
     67  CD       -10.7840   -1.5330   20.3290 C.2   186  GLN186      0.2608
     68  OE1      -10.7990   -2.5270   21.0540 O.2   186  GLN186     -0.2717
     69  NE2      -11.6830   -0.5600   20.4270 N.am  186  GLN186     -0.0878
     70  N         -6.4350    1.8660   17.4220 N.am  187  LYS187     -0.1980
     71  CA        -5.6760    3.1100   17.3260 C.3   187  LYS187      0.1596
     72  C         -4.8230    3.3960   18.5560 C.2   187  LYS187      0.2287
     73  O         -4.3680    4.5330   18.7280 O.2   187  LYS187     -0.2864
     74  CB        -6.5870    4.3120   17.0520 C.3   187  LYS187      0.0298
     75  CG        -7.4240    4.1820   15.7890 C.3   187  LYS187      0.0038
     76  CD        -6.5980    3.6550   14.6280 C.3   187  LYS187      0.0206
     77  CE        -7.2960    3.9010   13.3050 C.3   187  LYS187      0.1093
     78  NZ        -7.0370    5.2710   12.7850 N.3   187  LYS187     -0.1314
@<TRIPOS>BOND
     1    33    32    2
     2    32    31    1
     3    43    42    2
     4    42    41    1
     5    42    44   am
     6    36    37    1
     7    41    40    1
     8    19    20    2
     9    19    18    1
    10    22    23    1
    11    21    18    1
    12    31    30    1
    13    31    34    1
    14    25    24    2
    15    30    24   am
    16    24    23    1
    17    23    26    1
    18    34    35    1
    19    18    17    1
    20    37    38    1
    21    37    40    1
    22    38    39    2
    23    17    11   am
    24     9    10    1
    25    29    27    1
    26    11    10    1
    27    11    12    2
    28    26    27    1
    29    27    28    1
    30    10    13    1
    31     7     8    1
    32     7     6    1
    33    13    14    1
    34    13    15    1
    35    14    16    1
    36     6     5    1
    37    78    77    1
    38     5     2    1
    39    77    76    1
    40     2     3    1
    41     2     1    1
    42    76    75    1
    43    60    58    1
    44     3     4    2
    45    52    50    1
    46    51    50    1
    47    50    49    1
    48    75    74    1
    49    58    57    1
    50    59    57    1
    51    57    54    1
    52    56    55    2
    53    49    46    1
    54    74    71    1
    55    45    46    1
    56    71    70    1
    57    71    72    1
    58    46    47    1
    59    70    63   am
    60    54    53    1
    61    54    55    1
    62    61    62    1
    63    62    63    1
    64    62    65    1
    65    63    64    2
    66    72    73    2
    67    47    48    2
    68    66    65    1
    69    66    67    1
    70    67    69   am
    71    67    68    2
