@<TRIPOS>MOLECULE
tmp/6e4eA01.pdb
 158 151 0 0 0
SMALL
GASTEIGER

@<TRIPOS>ATOM
      1  N         -2.3600   24.6630    0.4480 N.3     6  LEU6       -0.1231
      2  CA        -3.5950   25.0750   -0.2080 C.3     6  LEU6        0.1693
      3  C         -3.2780   25.2610   -1.6870 C.2     6  LEU6        0.2592
      4  O         -2.4590   26.1180   -2.0360 O.2     6  LEU6       -0.2718
      5  CB        -4.1220   26.3700    0.4260 C.3     6  LEU6        0.0284
      6  CG        -5.4440   26.9690   -0.0410 C.3     6  LEU6        0.0019
      7  CD1       -6.5560   25.9280    0.0410 C.3     6  LEU6        0.0001
      8  CD2       -5.7900   28.2120    0.8070 C.3     6  LEU6        0.0001
      9  N         -3.8930   24.4520   -2.5540 N.am    7  VAL7       -0.1966
     10  CA        -3.5130   24.4380   -3.9680 C.3     7  VAL7        0.1727
     11  C         -4.7170   24.0630   -4.8300 C.2     7  VAL7        0.2616
     12  O         -5.5900   23.2910   -4.4180 O.2     7  VAL7       -0.2715
     13  CB        -2.3380   23.4590   -4.2340 C.3     7  VAL7        0.0290
     14  CG1       -2.7770   22.0190   -3.9930 C.3     7  VAL7        0.0023
     15  CG2       -1.8140   23.6050   -5.6770 C.3     7  VAL7        0.0023
     16  N         -4.7500   24.6180   -6.0410 N.am    8  ALA8       -0.1977
     17  CA        -5.6220   24.1510   -7.1150 C.3     8  ALA8        0.1597
     18  C         -4.7490   23.6730   -8.2740 C.2     8  ALA8        0.2287
     19  O         -3.9020   24.4300   -8.7690 O.2     8  ALA8       -0.2864
     20  CB        -6.5770   25.2650   -7.5610 C.3     8  ALA8        0.0319
     21  N          2.3060   33.2490  -15.1930 N.3    19  ASN19      -0.1225
     22  CA         2.0470   33.9680  -13.9390 C.3    19  ASN19       0.1785
     23  C          0.5670   34.2620  -13.7220 C.2    19  ASN19       0.2597
     24  O          0.2100   35.1920  -12.9870 O.2    19  ASN19      -0.2718
     25  CB         2.8710   35.2670  -13.8560 C.3    19  ASN19       0.1169
     26  CG         4.3550   34.9970  -13.6940 C.2    19  ASN19       0.2627
     27  OD1        4.7500   34.0990  -12.9550 O.2    19  ASN19      -0.2716
     28  ND2        5.1840   35.7610  -14.4000 N.am   19  ASN19      -0.0877
     29  N         -0.3140   33.4650  -14.3140 N.am   20  GLN20      -0.1965
     30  CA        -1.7400   33.5700  -14.0680 C.3    20  GLN20       0.1733
     31  C         -2.2850   32.1760  -13.8210 C.2    20  GLN20       0.2616
     32  O         -1.5870   31.1760  -14.0110 O.2    20  GLN20      -0.2715
     33  CB        -2.4750   34.2190  -15.2420 C.3    20  GLN20       0.0408
     34  CG        -2.2010   35.7100  -15.3890 C.3    20  GLN20       0.0908
     35  CD        -2.6890   36.2500  -16.7170 C.2    20  GLN20       0.2608
     36  OE1       -3.8360   36.6790  -16.8380 O.2    20  GLN20      -0.2717
     37  NE2       -1.8220   36.2330  -17.7230 N.am   20  GLN20      -0.0878
     38  N         -3.5490   32.1220  -13.3920 N.am   21  LEU21      -0.1977
     39  CA        -4.2550   30.8500  -13.3200 C.3    21  LEU21       0.1596
     40  C         -4.8080   30.5060  -14.7010 C.2    21  LEU21       0.2287
     41  O         -5.3430   31.3830  -15.3850 O.2    21  LEU21      -0.2864
     42  CB        -5.4080   30.9300  -12.3100 C.3    21  LEU21       0.0297
     43  CG        -5.0460   31.2720  -10.8690 C.3    21  LEU21       0.0022
     44  CD1       -6.3240   31.4430  -10.0350 C.3    21  LEU21       0.0001
     45  CD2       -4.1420   30.1890  -10.2770 C.3    21  LEU21       0.0001
     46  N         -7.3630   28.7190  -15.4430 N.3    23  TRP23      -0.1241
     47  CA        -8.8090   28.5730  -15.3820 C.3    23  TRP23       0.1605
     48  C         -9.4010   29.7340  -14.5990 C.2    23  TRP23       0.2264
     49  O         -8.7020   30.4280  -13.8560 O.2    23  TRP23      -0.2867
     50  CB        -9.2070   27.2590  -14.7000 C.3    23  TRP23       0.0550
     51  CG        -8.4350   27.0610  -13.4380 C.ar   23  TRP23       0.0003
     52  CD1       -8.7020   27.6090  -12.2030 C.ar   23  TRP23       0.0946
     53  CD2       -7.2350   26.2990  -13.2910 C.ar   23  TRP23       0.0152
     54  NE1       -7.7390   27.2250  -11.3040 N.ar   23  TRP23      -0.2442
     55  CE2       -6.8310   26.4140  -11.9400 C.ar   23  TRP23       0.0810
     56  CE3       -6.4640   25.5230  -14.1730 C.ar   23  TRP23       0.0012
     57  CZ2       -5.6860   25.7790  -11.4460 C.ar   23  TRP23       0.0191
     58  CZ3       -5.3280   24.8950  -13.6890 C.ar   23  TRP23       0.0001
     59  CH2       -4.9540   25.0170  -12.3280 C.ar   23  TRP23       0.0015
     60  N        -12.4390   30.0250  -11.8650 N.3    25  LEU25      -0.1245
     61  CA       -13.3320   29.2060  -11.0510 C.3    25  LEU25       0.1561
     62  C        -13.6630   29.9800   -9.7900 C.2    25  LEU25       0.2260
     63  O        -12.9770   29.8550   -8.7680 O.2    25  LEU25      -0.2867
     64  CB       -12.6960   27.8490  -10.7360 C.3    25  LEU25       0.0270
     65  CG       -13.6040   26.6760  -10.3730 C.3    25  LEU25       0.0019
     66  CD1      -14.8540   26.6180  -11.2420 C.3    25  LEU25       0.0001
     67  CD2      -12.8150   25.3930  -10.5040 C.3    25  LEU25       0.0001
     68  N        -13.7340   28.2210   -6.4460 N.3    28  ASP28      -0.1225
     69  CA       -12.4550   27.9210   -5.8180 C.3    28  ASP28       0.1805
     70  C        -11.9100   29.1270   -5.0590 C.2    28  ASP28       0.2597
     71  O        -11.3290   28.9770   -3.9750 O.2    28  ASP28      -0.2718
     72  CB       -11.4540   27.4320   -6.8610 C.3    28  ASP28       0.1424
     73  CG       -10.0940   27.1490   -6.2530 C.2    28  ASP28       0.3668
     74  OD1      -10.0040   26.2950   -5.3380 O.co2  28  ASP28      -0.2456
     75  OD2       -9.1270   27.8090   -6.6570 O.co2  28  ASP28      -0.2456
     76  N        -12.0870   30.3320   -5.6010 N.am   29  LEU29      -0.1979
     77  CA       -11.7160   31.5200   -4.8390 C.3    29  LEU29       0.1596
     78  C        -12.5320   31.6270   -3.5530 C.2    29  LEU29       0.2287
     79  O        -11.9920   31.9870   -2.5020 O.2    29  LEU29      -0.2864
     80  CB       -11.8760   32.7760   -5.6960 C.3    29  LEU29       0.0297
     81  CG       -11.4140   34.0880   -5.0550 C.3    29  LEU29       0.0022
     82  CD1      -10.0890   33.9200   -4.3060 C.3    29  LEU29       0.0001
     83  CD2      -11.2950   35.1620   -6.1270 C.3    29  LEU29       0.0001
     84  N        -13.7270   29.1030   -1.8860 N.3    31  HIS31      -0.1226
     85  CA       -13.1530   28.0390   -1.0680 C.3    31  HIS31       0.1752
     86  C        -11.8920   28.5110   -0.3530 C.2    31  HIS31       0.2595
     87  O        -11.7280   28.3010    0.8570 O.2    31  HIS31      -0.2718
     88  CB       -12.8690   26.8520   -1.9930 C.3    31  HIS31       0.0759
     89  CG       -12.1430   25.7120   -1.3570 C.ar   31  HIS31       0.0818
     90  ND1      -12.7390   24.8520   -0.4590 N.ar   31  HIS31      -0.2268
     91  CD2      -10.8910   25.2370   -1.5630 C.ar   31  HIS31       0.1154
     92  CE1      -11.8710   23.9170   -0.1080 C.ar   31  HIS31       0.1986
     93  NE2      -10.7440   24.1270   -0.7680 N.ar   31  HIS31      -0.2212
     94  N        -10.9850   29.1550   -1.0930 N.am   32  VAL32      -0.1980
     95  CA        -9.7720   29.7090   -0.4940 C.3    32  VAL32       0.1595
     96  C        -10.1260   30.7000    0.6040 C.2    32  VAL32       0.2287
     97  O         -9.5290   30.7000    1.6870 O.2    32  VAL32      -0.2864
     98  CB        -8.9010   30.3770   -1.5710 C.3    32  VAL32       0.0276
     99  CG1       -7.8280   31.2470   -0.9200 C.3    32  VAL32       0.0022
    100  CG2       -8.3010   29.3270   -2.4970 C.3    32  VAL32       0.0022
    101  N          4.0110   34.6710   -6.9080 N.3    47  THR47      -0.1218
    102  CA         2.5900   34.5370   -6.6220 C.3    47  THR47       0.1862
    103  C          2.0160   35.8290   -6.0390 C.2    47  THR47       0.2287
    104  O          0.9030   36.2400   -6.3890 O.2    47  THR47      -0.2866
    105  CB         2.3580   33.3650   -5.6690 C.3    47  THR47       0.1770
    106  OG1        2.6580   32.1340   -6.3530 O.3    47  THR47      -0.2211
    107  CG2        0.9280   33.3610   -5.1970 C.3    47  THR47       0.0375
    108  N          1.4470   38.2080   -8.8430 N.3    50  SER50      -0.1202
    109  CA         0.2460   37.8250   -9.5780 C.3    50  SER50       0.2020
    110  C         -1.0090   38.3220   -8.8790 C.2    50  SER50       0.2618
    111  O         -1.9240   38.8430   -9.5270 O.2    50  SER50      -0.2717
    112  CB         0.1800   36.3060   -9.7330 C.3    50  SER50       0.2103
    113  OG         1.2220   35.8530  -10.5630 O.3    50  SER50      -0.2182
    114  N         -1.0740   38.1510   -7.5560 N.am   51  ILE51      -0.1979
    115  CA        -2.2260   38.6090   -6.7890 C.3    51  ILE51       0.1595
    116  C         -2.2580   40.1290   -6.7210 C.2    51  ILE51       0.2287
    117  O         -3.3370   40.7340   -6.6970 O.2    51  ILE51      -0.2864
    118  CB        -2.1990   37.9840   -5.3830 C.3    51  ILE51       0.0276
    119  CG1       -2.2630   36.4600   -5.4720 C.3    51  ILE51       0.0022
    120  CG2       -3.3600   38.4640   -4.5600 C.3    51  ILE51       0.0022
    121  CD1       -2.0150   35.7880   -4.1500 C.3    51  ILE51       0.0001
    122  N         -4.4460   39.7840    0.3210 N.3    55  LEU55      -0.1245
    123  CA        -5.8580   39.4630    0.4540 C.3    55  LEU55       0.1561
    124  C         -6.3880   39.9490    1.8030 C.2    55  LEU55       0.2260
    125  O         -5.6970   39.8460    2.8220 O.2    55  LEU55      -0.2867
    126  CB        -6.0920   37.9680    0.2880 C.3    55  LEU55       0.0270
    127  CG        -5.5950   37.5550   -1.1050 C.3    55  LEU55       0.0019
    128  CD1       -5.2180   36.0980   -1.1450 C.3    55  LEU55       0.0001
    129  CD2       -6.6150   37.8850   -2.1990 C.3    55  LEU55       0.0001
    130  N          0.6480   28.7720    0.1840 N.3    93  PHE93      -0.1241
    131  CA        -0.2220   29.2910   -0.8600 C.3    93  PHE93       0.1605
    132  C          0.3480   29.1150   -2.2620 C.2    93  PHE93       0.2264
    133  O         -0.3680   29.3730   -3.2380 O.2    93  PHE93      -0.2867
    134  CB        -0.4690   30.7840   -0.5940 C.3    93  PHE93       0.0534
    135  CG        -1.8170   31.2990   -1.0280 C.ar   93  PHE93      -0.0203
    136  CD1       -2.9670   30.5450   -0.8600 C.ar   93  PHE93      -0.0042
    137  CD2       -1.9200   32.5730   -1.6000 C.ar   93  PHE93      -0.0042
    138  CE1       -4.2120   31.0480   -1.2460 C.ar   93  PHE93      -0.0003
    139  CE2       -3.1550   33.0850   -1.9830 C.ar   93  PHE93      -0.0003
    140  CZ        -4.3070   32.3190   -1.8020 C.ar   93  PHE93      -0.0000
    141  N          5.5850   24.9950   -2.9630 N.3    99  PHE99      -0.1241
    142  CA         4.9410   23.6900   -2.8190 C.3    99  PHE99       0.1605
    143  C          5.9800   22.5700   -2.7510 C.2    99  PHE99       0.2264
    144  O          5.8780   21.6580   -1.9160 O.2    99  PHE99      -0.2867
    145  CB         3.9630   23.4510   -3.9770 C.3    99  PHE99       0.0534
    146  CG         2.7080   24.2820   -3.9090 C.ar   99  PHE99      -0.0203
    147  CD1        2.0760   24.5360   -2.6940 C.ar   99  PHE99      -0.0042
    148  CD2        2.1670   24.8210   -5.0650 C.ar   99  PHE99      -0.0042
    149  CE1        0.9140   25.2940   -2.6500 C.ar   99  PHE99      -0.0003
    150  CE2        1.0160   25.5730   -5.0280 C.ar   99  PHE99      -0.0003
    151  CZ         0.3810   25.8130   -3.8190 C.ar   99  PHE99      -0.0000
    152  N         -7.7970   21.5700   -4.5580 N.3   112  THR112     -0.1218
    153  CA        -8.8910   21.6370   -5.5230 C.3   112  THR112      0.1862
    154  C         -8.3980   20.9660   -6.8000 C.2   112  THR112      0.2287
    155  O         -7.5230   21.4990   -7.4860 O.2   112  THR112     -0.2866
    156  CB        -9.3220   23.0800   -5.7940 C.3   112  THR112      0.1770
    157  OG1       -9.7210   23.7140   -4.5650 O.3   112  THR112     -0.2211
    158  CG2      -10.4880   23.0990   -6.7830 C.3   112  THR112      0.0375
@<TRIPOS>BOND
     1    37    35   am
     2    36    35    2
     3    35    34    1
     4    46    47    1
     5    34    33    1
     6    41    40    2
     7    47    50    1
     8    47    48    1
     9    33    30    1
    10    21    22    1
    11    40    39    1
    12    50    51    1
    13    48    49    2
    14    28    26   am
    15    29    30    1
    16    29    23   am
    17    56    58   ar
    18    56    53   ar
    19    30    31    1
    20    32    31    2
    21    22    25    1
    22    22    23    1
    23    25    26    1
    24    31    38   am
    25    23    24    2
    26    26    27    2
    27    58    59   ar
    28    51    53   ar
    29    51    52   ar
    30    38    39    1
    31    39    42    1
    32    53    55   ar
    33    59    57   ar
    34    42    43    1
    35    52    54   ar
    36    55    57   ar
    37    55    54   ar
    38    60    61    1
    39    66    65    1
    40    61    64    1
    41    61    62    1
    42    43    45    1
    43    43    44    1
    44    64    65    1
    45   113   112    1
    46    67    65    1
    47    62    63    2
    48   112   109    1
    49   109   110    1
    50   109   108    1
    51   111   110    2
    52   110   114   am
    53    19    18    2
    54    18    17    1
    55    20    17    1
    56   114   115    1
    57   155   154    2
    58    17    16    1
    59   101   102    1
    60    72    73    1
    61    72    69    1
    62   154   153    1
    63   115   116    1
    64   115   118    1
    65   158   156    1
    66   116   117    2
    67    75    73   ar
    68   102   103    1
    69   102   105    1
    70    68    69    1
    71   104   103    2
    72   106   105    1
    73    73    74   ar
    74    83    81    1
    75    16    11   am
    76    69    70    1
    77   156   153    1
    78   156   157    1
    79    80    81    1
    80    80    77    1
    81    15    13    1
    82   105   107    1
    83    76    70   am
    84    76    77    1
    85   153   152    1
    86   119   118    1
    87   119   121    1
    88   118   120    1
    89   148   150   ar
    90   148   146   ar
    91    70    71    2
    92    81    82    1
    93   150   151   ar
    94    77    78    1
    95    11    12    2
    96    11    10    1
    97    13    14    1
    98    13    10    1
    99   145   146    1
   100   145   142    1
   101    10     9    1
   102   146   147   ar
   103   151   149   ar
   104    78    79    2
   105   133   132    2
   106   141   142    1
   107   142   143    1
   108   143   144    2
   109   147   149   ar
   110     9     3   am
   111   100    98    1
   112   132   131    1
   113   129   127    1
   114     4     3    2
   115    88    89    1
   116    88    85    1
   117   139   140   ar
   118   139   137   ar
   119    84    85    1
   120   140   138   ar
   121     3     2    1
   122   137   135   ar
   123    98    99    1
   124    98    95    1
   125    91    89   ar
   126    91    93   ar
   127    89    90   ar
   128   138   136   ar
   129   128   127    1
   130   127   126    1
   131    94    95    1
   132    94    86   am
   133    85    86    1
   134   135   136   ar
   135   135   134    1
   136   131   134    1
   137   131   130    1
   138    93    92   ar
   139    95    96    1
   140    90    92   ar
   141    86    87    2
   142     2     5    1
   143     2     1    1
   144     6     7    1
   145     6     5    1
   146     6     8    1
   147   126   123    1
   148   122   123    1
   149   123   124    1
   150    96    97    2
   151   124   125    2
