@<TRIPOS>MOLECULE
tmp/6e4fA00.pdb
 178 167 0 0 0
SMALL
GASTEIGER

@<TRIPOS>ATOM
      1  N         25.9280    1.0670   -0.5070 N.3    20  LEU20      -0.1231
      2  CA        25.5470    2.3980   -0.9880 C.3    20  LEU20       0.1693
      3  C         26.4710    3.4850   -0.5030 C.2    20  LEU20       0.2592
      4  O         26.7090    4.4470   -1.2220 O.2    20  LEU20      -0.2718
      5  CB        24.1330    2.7510   -0.5580 C.3    20  LEU20       0.0284
      6  CG        23.0720    1.7670   -1.0220 C.3    20  LEU20       0.0019
      7  CD1       21.7310    2.1540   -0.4370 C.3    20  LEU20       0.0001
      8  CD2       23.0040    1.6720   -2.5410 C.3    20  LEU20       0.0001
      9  N         26.9560    3.3650    0.7250 N.am   21  GLY21      -0.1957
     10  CA        27.8740    4.3520    1.2560 C.3    21  GLY21       0.1869
     11  C         28.4860    3.9230    2.5670 C.2    21  GLY21       0.2309
     12  O         28.0180    2.9740    3.1960 O.2    21  GLY21      -0.2863
     13  N         25.8400    1.9470    4.7280 N.3    28  VAL28      -0.1245
     14  CA        24.4710    1.7390    4.2770 C.3    28  VAL28       0.1561
     15  C         24.4690    0.7540    3.1140 C.2    28  VAL28       0.2260
     16  O         25.2690    0.9040    2.1710 O.2    28  VAL28      -0.2867
     17  CB        23.8190    3.0690    3.8310 C.3    28  VAL28       0.0252
     18  CG1       22.3760    2.8490    3.4310 C.3    28  VAL28       0.0019
     19  CG2       23.8850    4.1050    4.9420 C.3    28  VAL28       0.0019
     20  N         16.6280   -0.3790    2.5810 N.3    40  ALA40      -0.1231
     21  CA        17.9460    0.1450    2.9020 C.3    40  ALA40       0.1694
     22  C         18.2680   -0.2520    4.3290 C.2    40  ALA40       0.2592
     23  O         17.3970   -0.2780    5.1960 O.2    40  ALA40      -0.2718
     24  CB        17.9910    1.6560    2.7590 C.3    40  ALA40       0.0304
     25  N         19.5310   -0.5840    4.5570 N.am   41  ILE41      -0.1966
     26  CA        19.9880   -1.0960    5.8380 C.3    41  ILE41       0.1727
     27  C         21.1840   -0.2640    6.2830 C.2    41  ILE41       0.2616
     28  O         22.2230   -0.2770    5.6230 O.2    41  ILE41      -0.2715
     29  CB        20.4160   -2.5800    5.7290 C.3    41  ILE41       0.0290
     30  CG1       19.2970   -3.4330    5.0920 C.3    41  ILE41       0.0022
     31  CG2       20.8190   -3.1010    7.1040 C.3    41  ILE41       0.0023
     32  CD1       19.7380   -4.6360    4.2720 C.3    41  ILE41       0.0001
     33  N         21.0320    0.4730    7.3880 N.am   42  LYS42      -0.1977
     34  CA        22.1110    1.2790    7.9420 C.3    42  LYS42       0.1596
     35  C         22.7130    0.5330    9.1170 C.2    42  LYS42       0.2287
     36  O         22.0380    0.1990   10.0720 O.2    42  LYS42      -0.2864
     37  CB        21.6370    2.6590    8.3760 C.3    42  LYS42       0.0298
     38  CG        22.7550    3.5830    8.8240 C.3    42  LYS42       0.0038
     39  CD        22.2000    4.9870    9.0540 C.3    42  LYS42       0.0206
     40  CE        23.2310    5.9890    9.5650 C.3    42  LYS42       0.1093
     41  NZ        24.2820    6.3000    8.5610 N.3    42  LYS42      -0.1314
     42  N         17.9310    5.5590   21.3410 N.3    54  PHE54      -0.1241
     43  CA        17.4370    5.4980   19.9730 C.3    54  PHE54       0.1605
     44  C         16.3790    4.4100   19.8090 C.2    54  PHE54       0.2264
     45  O         15.3510    4.6290   19.1540 O.2    54  PHE54      -0.2867
     46  CB        18.5450    5.2910   18.9420 C.3    54  PHE54       0.0534
     47  CG        17.9940    5.0880   17.5470 C.ar   54  PHE54      -0.0203
     48  CD1       17.4500    6.1670   16.8410 C.ar   54  PHE54      -0.0042
     49  CD2       17.8970    3.8170   16.9890 C.ar   54  PHE54      -0.0042
     50  CE1       16.8710    5.9950   15.5910 C.ar   54  PHE54      -0.0003
     51  CE2       17.3320    3.6460   15.7280 C.ar   54  PHE54      -0.0003
     52  CZ        16.8090    4.7330   15.0410 C.ar   54  PHE54      -0.0000
     53  N          8.8590    6.3960   16.2500 N.3    61  MET61      -0.1245
     54  CA         9.0580    6.6360   14.8470 C.3    61  MET61       0.1570
     55  C          8.3400    5.5980   13.9720 C.2    61  MET61       0.2261
     56  O          7.9370    5.9280   12.8580 O.2    61  MET61      -0.2867
     57  CB        10.5510    6.6840   14.5480 C.3    61  MET61       0.0387
     58  CG        11.3050    7.8130   15.2380 C.3    61  MET61       0.0595
     59  SD        13.0850    7.5460   15.1370 S.3    61  MET61      -0.1393
     60  CE        13.3150    7.2890   13.3890 C.3    61  MET61       0.0692
     61  N         10.5910    9.2700    4.7090 N.3    70  VAL70      -0.1245
     62  CA        11.1900    7.9540    4.5450 C.3    70  VAL70       0.1561
     63  C         10.6730    7.0450    5.6700 C.2    70  VAL70       0.2260
     64  O         10.7160    7.3940    6.8530 O.2    70  VAL70      -0.2867
     65  CB        12.7240    8.0600    4.5590 C.3    70  VAL70       0.0252
     66  CG1       13.3840    6.6940    4.6240 C.3    70  VAL70       0.0019
     67  CG2       13.1990    8.8370    3.3360 C.3    70  VAL70       0.0019
     68  N         10.4810    4.2020    8.3800 N.3    72  LEU72      -0.1245
     69  CA        11.2580    3.2860    9.2290 C.3    72  LEU72       0.1561
     70  C         10.5130    1.9560    9.2830 C.2    72  LEU72       0.2260
     71  O          9.3340    1.9290    9.6490 O.2    72  LEU72      -0.2867
     72  CB        11.4150    3.8480   10.6400 C.3    72  LEU72       0.0270
     73  CG        12.0640    2.9030   11.6560 C.3    72  LEU72       0.0019
     74  CD1       13.4960    2.6470   11.2460 C.3    72  LEU72       0.0001
     75  CD2       11.9960    3.4540   13.0660 C.3    72  LEU72       0.0001
     76  N         19.4530   -0.2640   11.2040 N.3    84  ILE84      -0.1245
     77  CA        18.1960    0.4640   10.9880 C.3    84  ILE84       0.1561
     78  C         17.7020    0.1360    9.5690 C.2    84  ILE84       0.2260
     79  O         18.4570    0.2920    8.6040 O.2    84  ILE84      -0.2867
     80  CB        18.3600    1.9990   11.1300 C.3    84  ILE84       0.0252
     81  CG1       19.0780    2.3930   12.4350 C.3    84  ILE84       0.0019
     82  CG2       16.9930    2.6690   11.0350 C.3    84  ILE84       0.0019
     83  CD1       19.4140    3.8670   12.5550 C.3    84  ILE84       0.0001
     84  N         15.0140    0.7220    6.5320 N.3    86  THR86      -0.1203
     85  CA        14.0860    1.7340    6.0450 C.3    86  THR86       0.1994
     86  C         13.7340    1.5270    4.5980 C.2    86  THR86       0.2618
     87  O         14.3050    0.6880    3.8750 O.2    86  THR86      -0.2717
     88  CB        14.6390    3.1810    6.1610 C.3    86  THR86       0.1784
     89  OG1       15.5550    3.4260    5.0910 O.3    86  THR86      -0.2211
     90  CG2       15.3230    3.4340    7.4920 C.3    86  THR86       0.0376
     91  N         12.7920    2.3500    4.1690 N.am   87  GLU87      -0.1965
     92  CA        12.4500    2.4890    2.7730 C.3    87  GLU87       0.1733
     93  C         13.6990    2.7650    1.9200 C.2    87  GLU87       0.2616
     94  O         14.5370    3.5730    2.2960 O.2    87  GLU87      -0.2715
     95  CB        11.4520    3.6600    2.6630 C.3    87  GLU87       0.0429
     96  CG        10.9500    4.0080    1.2880 C.3    87  GLU87       0.1163
     97  CD         9.8610    5.0610    1.3300 C.2    87  GLU87       0.3649
     98  OE1        9.5390    5.6200    2.4220 O.co2  87  GLU87      -0.2457
     99  OE2        9.3180    5.3210    0.2550 O.co2  87  GLU87      -0.2457
    100  N         13.8020    2.0850    0.7750 N.am   88  TYR88      -0.1960
    101  CA        14.8920    2.2580   -0.1790 C.3    88  TYR88       0.1771
    102  C         14.5420    3.3510   -1.1850 C.2    88  TYR88       0.2619
    103  O         13.4660    3.3560   -1.7600 O.2    88  TYR88      -0.2715
    104  CB        15.1390    0.9390   -0.9030 C.3    88  TYR88       0.0574
    105  CG        16.1930    1.0400   -1.9670 C.ar   88  TYR88      -0.0198
    106  CD1       17.4840    1.4200   -1.6460 C.ar   88  TYR88      -0.0009
    107  CD2       15.9080    0.7810   -3.2990 C.ar   88  TYR88      -0.0009
    108  CE1       18.4570    1.5450   -2.6180 C.ar   88  TYR88       0.0417
    109  CE2       16.8850    0.8880   -4.2760 C.ar   88  TYR88       0.0417
    110  CZ        18.1610    1.2670   -3.9250 C.ar   88  TYR88       0.1957
    111  OH        19.1360    1.3890   -4.8880 O.3    88  TYR88      -0.2866
    112  N         15.4790    4.2660   -1.3910 N.am   89  MET89      -0.1977
    113  CA        15.2920    5.4370   -2.2300 C.3    89  MET89       0.1605
    114  C         16.3540    5.3990   -3.3410 C.2    89  MET89       0.2287
    115  O         17.5090    5.7740   -3.1360 O.2    89  MET89      -0.2864
    116  CB        15.4260    6.6710   -1.3500 C.3    89  MET89       0.0413
    117  CG        14.4090    6.7250   -0.2230 C.3    89  MET89       0.0598
    118  SD        12.7210    7.0220   -0.7700 S.3    89  MET89      -0.1393
    119  CE        12.8700    8.7550   -1.1910 C.3    89  MET89       0.0692
    120  N         19.0490    8.1000   -4.3580 N.3    92  GLY92      -0.1210
    121  CA        20.0580    8.5370   -3.4070 C.3    92  GLY92       0.1956
    122  C         19.7810    9.8770   -2.7580 C.2    92  GLY92       0.2612
    123  O         18.6480   10.3270   -2.6420 O.2    92  GLY92      -0.2717
    124  N         20.8590   10.4780   -2.2810 N.am   93  CYS93      -0.1970
    125  CA        20.7730   11.7030   -1.5050 C.3    93  CYS93       0.1712
    126  C         20.3860   12.8920   -2.3830 C.2    93  CYS93       0.2296
    127  O         20.9360   13.0790   -3.4750 O.2    93  CYS93      -0.2864
    128  CB        22.1170   11.9130   -0.8430 C.3    93  CYS93       0.0983
    129  SG        22.2660   13.4400    0.1060 S.3    93  CYS93      -0.0798
    130  N         23.3090   15.2450   -3.6110 N.3    96  ASN96      -0.1240
    131  CA        24.0470   14.7200   -4.7590 C.3    96  ASN96       0.1653
    132  C         23.2260   14.8430   -6.0490 C.2    96  ASN96       0.2266
    133  O         23.7640   15.1780   -7.1040 O.2    96  ASN96      -0.2867
    134  CB        24.4880   13.2590   -4.5370 C.3    96  ASN96       0.1155
    135  CG        25.3050   13.0700   -3.2720 C.2    96  ASN96       0.2627
    136  OD1       24.8170   13.2890   -2.1670 O.2    96  ASN96      -0.2716
    137  ND2       26.5510   12.6370   -3.4300 N.am   96  ASN96      -0.0877
    138  N         16.1880   12.2200    0.5930 N.3   140  LEU140     -0.1245
    139  CA        16.4630   11.1550   -0.3650 C.3   140  LEU140      0.1561
    140  C         15.4930   11.2570   -1.5320 C.2   140  LEU140      0.2260
    141  O         14.4470   11.8920   -1.4150 O.2   140  LEU140     -0.2867
    142  CB        16.3470    9.7860    0.3230 C.3   140  LEU140      0.0270
    143  CG        17.4250    9.4850    1.3670 C.3   140  LEU140      0.0019
    144  CD1       17.0380    8.3290    2.2600 C.3   140  LEU140      0.0001
    145  CD2       18.7320    9.1330    0.6810 C.3   140  LEU140      0.0001
    146  N         14.4180   12.3580    5.4710 N.3   150  SER150     -0.1202
    147  CA        15.0430   11.2820    6.2220 C.3   150  SER150      0.2020
    148  C         15.7520   11.8330    7.4580 C.2   150  SER150      0.2619
    149  O         15.8210   13.0320    7.6740 O.2   150  SER150     -0.2717
    150  CB        16.0240   10.5550    5.3090 C.3   150  SER150      0.2103
    151  OG        16.5380    9.3810    5.9140 O.3   150  SER150     -0.2182
    152  N         16.2020   10.9210    8.3130 N.am  151  ASP151     -0.1959
    153  CA        17.0500   11.2480    9.4610 C.3   151  ASP151      0.1840
    154  C         16.3430   12.1190   10.5020 C.2   151  ASP151      0.2622
    155  O         16.9760   12.7510   11.3220 O.2   151  ASP151     -0.2715
    156  CB        18.3770   11.8700    9.0120 C.3   151  ASP151      0.1450
    157  CG        19.2450   10.8840    8.2540 C.2   151  ASP151      0.3671
    158  OD1       18.7490   10.1880    7.3530 O.co2 151  ASP151     -0.2456
    159  OD2       20.4380   10.8150    8.5590 O.co2 151  ASP151     -0.2456
    160  N         15.0270   12.0990   10.4940 N.am  152  PHE152     -0.1974
    161  CA        14.2570   12.9800   11.3580 C.3   152  PHE152      0.1639
    162  C         14.4840   12.6230   12.8270 C.2   152  PHE152      0.2290
    163  O         14.3080   11.4850   13.2330 O.2   152  PHE152     -0.2864
    164  CB        12.7770   13.0060   10.9510 C.3   152  PHE152      0.0560
    165  CG        12.2160   11.6620   10.5390 C.ar  152  PHE152     -0.0200
    166  CD1       12.3050   11.2420    9.2080 C.ar  152  PHE152     -0.0042
    167  CD2       11.5800   10.8280   11.4460 C.ar  152  PHE152     -0.0042
    168  CE1       11.8280   10.0210    8.7930 C.ar  152  PHE152     -0.0003
    169  CE2       11.0680    9.6030   11.0230 C.ar  152  PHE152     -0.0003
    170  CZ        11.2000    9.1980    9.6950 C.ar  152  PHE152     -0.0000
    171  N         17.2410   12.2410   14.3910 N.3   154  LEU154     -0.1245
    172  CA        18.3630   11.3660   14.6740 C.3   154  LEU154      0.1561
    173  C         19.5110   12.0370   15.4020 C.2   154  LEU154      0.2260
    174  O         20.2470   11.3670   16.1240 O.2   154  LEU154     -0.2867
    175  CB        18.8600   10.7540   13.3610 C.3   154  LEU154      0.0270
    176  CG        19.9780    9.7250   13.3870 C.3   154  LEU154      0.0019
    177  CD1       19.6060    8.4990   14.2160 C.3   154  LEU154      0.0001
    178  CD2       20.3040    9.3170   11.9470 C.3   154  LEU154      0.0001
@<TRIPOS>BOND
     1   133   132    2
     2   132   131    1
     3   111   110    1
     4   131   134    1
     5   131   130    1
     6   134   135    1
     7   120   121    1
     8   109   110   ar
     9   109   107   ar
    10   110   108   ar
    11   127   126    2
    12   137   135   am
    13   121   122    1
    14   114   115    2
    15   114   113    1
    16   107   105   ar
    17   135   136    2
    18   122   123    2
    19   122   124   am
    20   108   106   ar
    21     8     6    1
    22   126   125    1
    23   124   125    1
    24   113   112    1
    25   113   116    1
    26   105   106   ar
    27   105   104    1
    28   103   102    2
    29   140   141    2
    30   140   139    1
    31   125   128    1
    32   112   102   am
    33   116   117    1
    34     4     3    2
    35   119   118    1
    36   102   101    1
    37     6     5    1
    38     6     7    1
    39     2     5    1
    40     2     1    1
    41     2     3    1
    42   104   101    1
    43   128   129    1
    44   118   117    1
    45     3     9   am
    46   139   142    1
    47   139   138    1
    48   101   100    1
    49    99    97   ar
    50   142   143    1
    51   145   143    1
    52     9    10    1
    53   100    93   am
    54    10    11    1
    55    96    97    1
    56    96    95    1
    57    97    98   ar
    58   143   144    1
    59    93    94    2
    60    93    92    1
    61    16    15    2
    62    11    12    2
    63    20    21    1
    64    95    92    1
    65    24    21    1
    66    92    91    1
    67    21    22    1
    68    15    14    1
    69    67    65    1
    70    18    17    1
    71    17    14    1
    72    17    19    1
    73    87    86    2
    74    91    86   am
    75    32    30    1
    76    14    13    1
    77    22    25   am
    78    22    23    2
    79    62    65    1
    80    62    61    1
    81    62    63    1
    82    25    26    1
    83    65    66    1
    84    86    85    1
    85    89    88    1
    86    30    29    1
    87   150   151    1
    88   150   147    1
    89   146   147    1
    90    28    27    2
    91    63    64    2
    92    29    26    1
    93    29    31    1
    94    26    27    1
    95    85    88    1
    96    85    84    1
    97    88    90    1
    98   147   148    1
    99    27    33   am
   100   158   157   ar
   101    33    34    1
   102   148   149    2
   103   148   152   am
   104    34    37    1
   105    34    35    1
   106   157   159   ar
   107   157   156    1
   108   152   153    1
   109    37    38    1
   110    68    69    1
   111    41    40    1
   112    79    78    2
   113   168   166   ar
   114   168   170   ar
   115    38    39    1
   116   156   153    1
   117    39    40    1
   118    35    36    2
   119   166   165   ar
   120    69    70    1
   121    69    72    1
   122    70    71    2
   123   153   154    1
   124    78    77    1
   125   170   169   ar
   126   160   154   am
   127   160   161    1
   128   154   155    2
   129   165   164    1
   130   165   167   ar
   131    72    73    1
   132   164   161    1
   133    77    80    1
   134    77    76    1
   135   169   167   ar
   136    82    80    1
   137    80    81    1
   138    74    73    1
   139   161   162    1
   140    73    75    1
   141   178   176    1
   142    81    83    1
   143   162   163    2
   144    56    55    2
   145   175   176    1
   146   175   172    1
   147   176   177    1
   148    60    59    1
   149    55    54    1
   150   171   172    1
   151    57    54    1
   152    57    58    1
   153   172   173    1
   154    54    53    1
   155    52    50   ar
   156    52    51   ar
   157    59    58    1
   158   173   174    2
   159    50    48   ar
   160    51    49   ar
   161    48    47   ar
   162    49    47   ar
   163    47    46    1
   164    46    43    1
   165    45    44    2
   166    44    43    1
   167    43    42    1
