@<TRIPOS>MOLECULE
tmp/6e4pE00.pdb
 88 85 0 0 0
SMALL
GASTEIGER

@<TRIPOS>ATOM
      1  N         53.3350  -30.1550   44.7370 N.3    20  HIS20      -0.1241
      2  CA        52.3360  -31.0310   45.3500 C.3    20  HIS20       0.1621
      3  C         50.9890  -30.9370   44.6310 C.2    20  HIS20       0.2264
      4  O         50.3870  -31.9570   44.2770 O.2    20  HIS20      -0.2867
      5  CB        52.1650  -30.6740   46.8320 C.3    20  HIS20       0.0745
      6  CG        51.1950  -31.5470   47.5640 C.ar   20  HIS20       0.0817
      7  ND1       51.4420  -32.8780   47.8280 N.ar   20  HIS20      -0.2268
      8  CD2       49.9800  -31.2760   48.1020 C.ar   20  HIS20       0.1154
      9  CE1       50.4190  -33.3900   48.4900 C.ar   20  HIS20       0.1986
     10  NE2       49.5190  -32.4390   48.6700 N.ar   20  HIS20      -0.2212
     11  N         49.9060  -32.6110   41.0400 N.3    23  GLN23      -0.1231
     12  CA        49.3010  -33.9380   40.9130 C.3    23  GLN23       0.1698
     13  C         47.8580  -33.8290   40.4240 C.2    23  GLN23       0.2592
     14  O         47.3920  -34.6420   39.6220 O.2    23  GLN23      -0.2718
     15  CB        49.3360  -34.6950   42.2440 C.3    23  GLN23       0.0381
     16  CG        50.7400  -35.0000   42.7680 C.3    23  GLN23       0.0905
     17  CD        50.7170  -35.6740   44.1280 C.2    23  GLN23       0.2608
     18  OE1       50.7610  -36.9020   44.2260 O.2    23  GLN23      -0.2717
     19  NE2       50.6430  -34.8730   45.1870 N.am   23  GLN23      -0.0878
     20  N         47.1550  -32.8140   40.9110 N.am   24  ALA24      -0.1980
     21  CA        45.7610  -32.6090   40.5460 C.3    24  ALA24       0.1597
     22  C         45.6470  -31.7690   39.2840 C.2    24  ALA24       0.2287
     23  O         44.8000  -32.0280   38.4380 O.2    24  ALA24      -0.2864
     24  CB        45.0110  -31.9580   41.6830 C.3    24  ALA24       0.0319
     25  N         39.4260  -31.6060   41.0440 N.3    50  ARG50      -0.1245
     26  CA        40.2350  -32.7680   41.3960 C.3    50  ARG50       0.1563
     27  C         41.0580  -32.5010   42.6480 C.2    50  ARG50       0.2260
     28  O         41.1770  -33.3670   43.5110 O.2    50  ARG50      -0.2867
     29  CB        41.1530  -33.1690   40.2380 C.3    50  ARG50       0.0307
     30  CG        40.4050  -33.5870   38.9890 C.3    50  ARG50       0.0489
     31  CD        41.0810  -34.7450   38.2750 C.3    50  ARG50       0.2205
     32  NE        42.4260  -34.4310   37.8010 N.pl3  50  ARG50      -0.0865
     33  CZ        43.5360  -35.0030   38.2600 C.cat  50  ARG50       0.5346
     34  NH1       43.4690  -35.9200   39.2150 N.pl3  50  ARG50       0.1354
     35  NH2       44.7180  -34.6620   37.7630 N.pl3  50  ARG50       0.1354
     36  N         38.9080  -32.5980   45.7800 N.3    53  THR53      -0.1203
     37  CA        38.3990  -33.9340   46.0870 C.3    53  THR53       0.1994
     38  C         39.5110  -34.9340   46.3840 C.2    53  THR53       0.2618
     39  O         39.3190  -35.8450   47.1830 O.2    53  THR53      -0.2717
     40  CB        37.5360  -34.5190   44.9360 C.3    53  THR53       0.1784
     41  OG1       38.2700  -34.4820   43.7050 O.3    53  THR53      -0.2211
     42  CG2       36.2460  -33.7380   44.7720 C.3    53  THR53       0.0376
     43  N         40.6670  -34.7740   45.7410 N.am   54  GLU54      -0.1965
     44  CA        41.6950  -35.8080   45.8060 C.3    54  GLU54       0.1733
     45  C         42.8930  -35.4820   46.7030 C.2    54  GLU54       0.2616
     46  O         43.6950  -36.3700   46.9970 O.2    54  GLU54      -0.2715
     47  CB        42.1980  -36.1230   44.4030 C.3    54  GLU54       0.0429
     48  CG        41.1160  -36.6550   43.4850 C.3    54  GLU54       0.1163
     49  CD        41.6000  -36.8360   42.0680 C.2    54  GLU54       0.3649
     50  OE1       42.8110  -36.6550   41.8260 O.co2  54  GLU54      -0.2457
     51  OE2       40.7680  -37.1480   41.1920 O.co2  54  GLU54      -0.2457
     52  N         43.0110  -34.2320   47.1460 N.am   55  LEU55      -0.1963
     53  CA        44.1690  -33.8290   47.9440 C.3    55  LEU55       0.1728
     54  C         43.8070  -33.3670   49.3560 C.2    55  LEU55       0.2616
     55  O         44.6370  -32.7780   50.0470 O.2    55  LEU55      -0.2715
     56  CB        44.9460  -32.7250   47.2140 C.3    55  LEU55       0.0311
     57  CG        45.5720  -33.1220   45.8710 C.3    55  LEU55       0.0022
     58  CD1       46.3190  -31.9530   45.2080 C.3    55  LEU55       0.0001
     59  CD2       46.5050  -34.3100   46.0540 C.3    55  LEU55       0.0001
     60  N         42.5790  -33.6420   49.7940 N.am   56  GLN56      -0.1963
     61  CA        42.1900  -33.3230   51.1660 C.3    56  GLN56       0.1733
     62  C         42.9510  -34.1730   52.1670 C.2    56  GLN56       0.2616
     63  O         43.0150  -35.3930   52.0280 O.2    56  GLN56      -0.2715
     64  CB        40.6840  -33.5180   51.3830 C.3    56  GLN56       0.0408
     65  CG        39.7940  -32.5000   50.7110 C.3    56  GLN56       0.0908
     66  CD        39.9260  -31.0960   51.2860 C.2    56  GLN56       0.2608
     67  OE1       40.7220  -30.8420   52.1940 O.2    56  GLN56      -0.2717
     68  NE2       39.1330  -30.1740   50.7540 N.am   56  GLN56      -0.0878
     69  N         43.5160  -33.5120   53.1740 N.am   57  ALA57      -0.1963
     70  CA        44.2880  -34.1630   54.2300 C.3    57  ALA57       0.1728
     71  C         45.5350  -34.8360   53.6670 C.2    57  ALA57       0.2617
     72  O         46.0820  -35.7580   54.2720 O.2    57  ALA57      -0.2715
     73  CB        43.4280  -35.1700   54.9950 C.3    57  ALA57       0.0334
     74  N         45.9920  -34.3590   52.5130 N.am   58  SER58      -0.1936
     75  CA        47.2130  -34.8830   51.9200 C.3    58  SER58       0.2055
     76  C         48.4090  -34.3660   52.7020 C.2    58  SER58       0.2642
     77  O         48.3380  -33.3170   53.3500 O.2    58  SER58      -0.2714
     78  CB        47.3230  -34.5010   50.4380 C.3    58  SER58       0.2130
     79  OG        47.3480  -33.0970   50.2510 O.3    58  SER58      -0.2179
     80  N         49.5080  -35.1080   52.6420 N.am   59  GLU59      -0.1976
     81  CA        50.6860  -34.7740   53.4280 C.3    59  GLU59       0.1602
     82  C         51.7060  -34.0040   52.5920 C.2    59  GLU59       0.2287
     83  O         52.0070  -34.3770   51.4580 O.2    59  GLU59      -0.2864
     84  CB        51.3060  -36.0530   54.0120 C.3    59  GLU59       0.0415
     85  CG        52.4550  -35.8240   54.9850 C.3    59  GLU59       0.1163
     86  CD        53.8170  -35.9470   54.3240 C.2    59  GLU59       0.3649
     87  OE1       53.9360  -36.6830   53.3210 O.co2  59  GLU59      -0.2457
     88  OE2       54.7750  -35.3090   54.8080 O.co2  59  GLU59      -0.2457
@<TRIPOS>BOND
     1    35    33    1
     2    32    33    2
     3    32    31    1
     4    33    34    1
     5    31    30    1
     6    23    22    2
     7    30    29    1
     8    22    21    1
     9    14    13    2
    10    29    26    1
    11    13    20   am
    12    13    12    1
    13    21    20    1
    14    21    24    1
    15    12    11    1
    16    12    15    1
    17    25    26    1
    18    51    49   ar
    19    26    27    1
    20    50    49   ar
    21    49    48    1
    22    15    16    1
    23    27    28    2
    24    16    17    1
    25    48    47    1
    26    41    40    1
    27    17    18    2
    28    17    19   am
    29     4     3    2
    30    47    44    1
    31     3     2    1
    32     1     2    1
    33    42    40    1
    34    40    37    1
    35    58    57    1
    36     2     5    1
    37    43    44    1
    38    43    38   am
    39    36    37    1
    40    44    45    1
    41    57    59    1
    42    57    56    1
    43    37    38    1
    44    38    39    2
    45    45    46    2
    46    45    52   am
    47     5     6    1
    48    52    53    1
    49    56    53    1
    50     6     7   ar
    51     6     8   ar
    52     7     9   ar
    53    53    54    1
    54     8    10   ar
    55     9    10   ar
    56    54    60   am
    57    54    55    2
    58    60    61    1
    59    79    78    1
    60    78    75    1
    61    65    66    1
    62    65    64    1
    63    68    66   am
    64    61    64    1
    65    61    62    1
    66    66    67    2
    67    83    82    2
    68    75    74    1
    69    75    76    1
    70    63    62    2
    71    62    69   am
    72    74    71   am
    73    82    81    1
    74    80    76   am
    75    80    81    1
    76    76    77    2
    77    69    70    1
    78    87    86   ar
    79    81    84    1
    80    71    70    1
    81    71    72    2
    82    84    85    1
    83    70    73    1
    84    86    88   ar
    85    86    85    1
