@<TRIPOS>MOLECULE
tmp/6e4qA01.pdb
 154 147 0 0 0
SMALL
GASTEIGER

@<TRIPOS>ATOM
      1  N         10.1230   11.4620   55.6930 N.3    74  CYS74      -0.1221
      2  CA        10.8430   12.4310   56.5170 C.3    74  CYS74       0.1808
      3  C         12.2170   11.8870   56.9110 C.2    74  CYS74       0.2601
      4  O         12.4520   10.6710   56.9220 O.2    74  CYS74      -0.2717
      5  CB        10.0590   12.7820   57.7720 C.3    74  CYS74       0.0970
      6  SG         8.3810   13.3850   57.4840 S.3    74  CYS74      -0.0800
      7  N         13.1450   12.8020   57.2060 N.am   75  PHE75      -0.1962
      8  CA        14.4880   12.3760   57.5920 C.3    75  PHE75       0.1771
      9  C         15.1700   13.4710   58.4060 C.2    75  PHE75       0.2619
     10  O         14.7060   14.6060   58.4470 O.2    75  PHE75      -0.2715
     11  CB        15.3280   11.9960   56.3640 C.3    75  PHE75       0.0574
     12  CG        15.6010   13.1350   55.4300 C.ar   75  PHE75      -0.0200
     13  CD1       14.6930   13.4690   54.4460 C.ar   75  PHE75      -0.0042
     14  CD2       16.7900   13.8590   55.5250 C.ar   75  PHE75      -0.0042
     15  CE1       14.9520   14.5150   53.5750 C.ar   75  PHE75      -0.0003
     16  CE2       17.0600   14.9090   54.6700 C.ar   75  PHE75      -0.0003
     17  CZ        16.1370   15.2410   53.6940 C.ar   75  PHE75      -0.0000
     18  N         16.2450   13.0980   59.1060 N.am   76  HIS76      -0.1973
     19  CA        17.1120   14.0510   59.8130 C.3    76  HIS76       0.1656
     20  C         18.4890   13.4200   59.9380 C.2    76  HIS76       0.2291
     21  O         18.6520   12.4410   60.6730 O.2    76  HIS76      -0.2864
     22  CB        16.5850   14.4110   61.1960 C.3    76  HIS76       0.0771
     23  CG        17.5400   15.2550   61.9940 C.ar   76  HIS76       0.0820
     24  ND1       17.4750   16.6320   62.0260 N.ar   76  HIS76      -0.2267
     25  CD2       18.6140   14.9130   62.7490 C.ar   76  HIS76       0.1154
     26  CE1       18.4550   17.1000   62.7800 C.ar   76  HIS76       0.1986
     27  NE2       19.1580   16.0770   63.2310 N.ar   76  HIS76      -0.2212
     28  N         19.9650   11.5920   57.8860 N.3    78  GLU78      -0.1245
     29  CA        19.9880   10.2380   57.3550 C.3    78  GLU78       0.1567
     30  C         21.2090   10.0250   56.4630 C.2    78  GLU78       0.2260
     31  O         21.7200   10.9480   55.8320 O.2    78  GLU78      -0.2867
     32  CB        18.7130    9.9330   56.5800 C.3    78  GLU78       0.0388
     33  CG        18.6530    8.4920   56.0980 C.3    78  GLU78       0.1160
     34  CD        18.8240    7.5000   57.2420 C.2    78  GLU78       0.3649
     35  OE1       17.8010    6.9940   57.7700 O.co2  78  GLU78      -0.2457
     36  OE2       19.9920    7.2450   57.6290 O.co2  78  GLU78      -0.2457
     37  N         13.4370   18.4460   57.8710 N.3   107  ASP107     -0.1239
     38  CA        13.5090   18.6110   59.3460 C.3   107  ASP107      0.1674
     39  C         14.9010   19.0220   59.8500 C.2   107  ASP107      0.2266
     40  O         15.4670   18.4240   60.7760 O.2   107  ASP107     -0.2867
     41  CB        13.0400   17.3580   60.0890 C.3   107  ASP107      0.1410
     42  CG        12.7860   17.6390   61.5660 C.2   107  ASP107      0.3668
     43  OD1       12.4760   18.8050   61.8740 O.co2 107  ASP107     -0.2456
     44  OD2       12.9190   16.7330   62.4220 O.co2 107  ASP107     -0.2456
     45  N         14.3240   22.3040   63.6070 N.3   136  ARG136     -0.1245
     46  CA        14.0170   20.9270   63.9790 C.3   136  ARG136      0.1563
     47  C         12.6700   20.8970   64.6810 C.2   136  ARG136      0.2260
     48  O         12.4400   21.6140   65.6590 O.2   136  ARG136     -0.2867
     49  CB        15.1080   20.3520   64.8720 C.3   136  ARG136      0.0307
     50  CG        14.9350   18.8870   65.3200 C.3   136  ARG136      0.0489
     51  CD        15.4530   17.8580   64.3180 C.3   136  ARG136      0.2205
     52  NE        15.6710   16.5920   65.0140 N.pl3 136  ARG136     -0.0865
     53  CZ        16.7990   16.3320   65.6820 C.cat 136  ARG136      0.5346
     54  NH1       16.9760   15.1830   66.3350 N.pl3 136  ARG136      0.1354
     55  NH2       17.7590   17.2560   65.7250 N.pl3 136  ARG136      0.1354
     56  N         10.7390   17.6470   64.5710 N.3   138  GLY138     -0.1210
     57  CA        10.3760   16.2790   64.8440 C.3   138  GLY138      0.1956
     58  C          9.5320   15.6490   63.7490 C.2   138  GLY138      0.2611
     59  O          8.9680   16.3040   62.8710 O.2   138  GLY138     -0.2717
     60  N          9.4110   14.3370   63.8670 N.am  139  LEU139     -0.1979
     61  CA         8.6940   13.5260   62.8950 C.3   139  LEU139      0.1596
     62  C          7.2400   13.9760   62.7060 C.2   139  LEU139      0.2287
     63  O          6.7820   14.1600   61.5720 O.2   139  LEU139     -0.2864
     64  CB         8.7690   12.0820   63.3830 C.3   139  LEU139      0.0297
     65  CG         7.8650   11.0160   62.8210 C.3   139  LEU139      0.0022
     66  CD1        8.5460   10.5690   61.5200 C.3   139  LEU139      0.0001
     67  CD2        7.6670    9.8860   63.8270 C.3   139  LEU139      0.0001
     68  N          6.7290   17.1400   60.7730 N.3   142  ALA142     -0.1231
     69  CA         7.2810   17.0020   59.4260 C.3   142  ALA142      0.1694
     70  C          6.3380   16.2350   58.5100 C.2   142  ALA142      0.2591
     71  O          6.1180   16.6290   57.3590 O.2   142  ALA142     -0.2718
     72  CB         8.6460   16.3190   59.4810 C.3   142  ALA142      0.0304
     73  N          5.7860   15.1190   58.9900 N.am  143  ARG143     -0.1980
     74  CA         4.8120   14.4170   58.1680 C.3   143  ARG143      0.1597
     75  C          3.6330   15.3290   57.8180 C.2   143  ARG143      0.2287
     76  O          3.0650   15.2230   56.7240 O.2   143  ARG143     -0.2864
     77  CB         4.3020   13.1600   58.8740 C.3   143  ARG143      0.0334
     78  CG         5.2840   11.9990   59.0930 C.3   143  ARG143      0.0492
     79  CD         4.4690   10.8570   59.7250 C.3   143  ARG143      0.2205
     80  NE         5.1860    9.9420   60.6110 N.pl3 143  ARG143     -0.0865
     81  CZ         6.0220    8.9750   60.2450 C.cat 143  ARG143      0.5346
     82  NH1        6.3260    8.7740   58.9660 N.pl3 143  ARG143      0.1354
     83  NH2        6.5840    8.2210   61.1900 N.pl3 143  ARG143      0.1354
     84  N          9.8370    5.5390   56.4020 N.3   159  ASP159     -0.1225
     85  CA        11.0650    6.0130   57.0290 C.3   159  ASP159      0.1805
     86  C         12.1750    6.1510   55.9870 C.2   159  ASP159      0.2598
     87  O         12.1080    5.5940   54.8960 O.2   159  ASP159     -0.2718
     88  CB        11.5060    5.0620   58.1360 C.3   159  ASP159      0.1424
     89  CG        10.6320    5.1680   59.3670 C.2   159  ASP159      0.3668
     90  OD1        9.5230    5.7380   59.2480 O.co2 159  ASP159     -0.2456
     91  OD2       11.0460    4.6860   60.4510 O.co2 159  ASP159     -0.2456
     92  N         13.2090    6.9080   56.3310 N.am  160  SER160     -0.1938
     93  CA        14.3170    7.1040   55.4020 C.3   160  SER160      0.2055
     94  C         15.2480    5.9000   55.3290 C.2   160  SER160      0.2643
     95  O         16.2360    5.9400   54.5890 O.2   160  SER160     -0.2714
     96  CB        15.1320    8.3480   55.7760 C.3   160  SER160      0.2130
     97  OG        15.4900    8.3140   57.1330 O.3   160  SER160     -0.2179
     98  N         15.0090    4.8630   56.1150 N.am  161  HIS161     -0.1973
     99  CA        15.8520    3.6770   56.0300 C.3   161  HIS161      0.1656
    100  C         14.9860    2.4620   55.7070 C.2   161  HIS161      0.2291
    101  O         14.9110    1.5170   56.4980 O.2   161  HIS161     -0.2864
    102  CB        16.6510    3.5050   57.3280 C.3   161  HIS161      0.0771
    103  CG        15.8730    3.8590   58.5540 C.ar  161  HIS161      0.0820
    104  ND1       15.7170    5.1570   58.9860 N.ar  161  HIS161     -0.2267
    105  CD2       15.2010    3.0850   59.4370 C.ar  161  HIS161      0.1154
    106  CE1       14.9710    5.1680   60.0770 C.ar  161  HIS161      0.1986
    107  NE2       14.6520    3.9230   60.3760 N.ar  161  HIS161     -0.2212
    108  N          7.7730   15.7350   70.3880 N.3   266  ILE266     -0.1245
    109  CA         8.4690   14.7480   69.5550 C.3   266  ILE266      0.1561
    110  C          8.2350   13.3040   70.0290 C.2   266  ILE266      0.2260
    111  O          8.0590   12.3900   69.2080 O.2   266  ILE266     -0.2867
    112  CB         9.9680   15.0910   69.4910 C.3   266  ILE266      0.0252
    113  CG1       10.1390   16.5050   68.9200 C.3   266  ILE266      0.0019
    114  CG2       10.7370   14.0150   68.6960 C.3   266  ILE266      0.0019
    115  CD1       11.5250   16.8070   68.4190 C.3   266  ILE266      0.0001
    116  N         12.8550   -2.5140   56.6060 N.3   295  HIS295     -0.1241
    117  CA        13.1940   -1.3830   57.4680 C.3   295  HIS295      0.1621
    118  C         14.4480   -1.7340   58.2620 C.2   295  HIS295      0.2264
    119  O         14.6430   -2.8950   58.6470 O.2   295  HIS295     -0.2867
    120  CB        12.0160   -1.0290   58.4010 C.3   295  HIS295      0.0745
    121  CG        12.3580   -0.0910   59.5230 C.ar  295  HIS295      0.0817
    122  ND1       12.3440   -0.4810   60.8470 N.ar  295  HIS295     -0.2268
    123  CD2       12.6780    1.2230   59.5280 C.ar  295  HIS295      0.1154
    124  CE1       12.6580    0.5450   61.6180 C.ar  295  HIS295      0.1986
    125  NE2       12.8740    1.5900   60.8420 N.ar  295  HIS295     -0.2212
    126  N         16.8830   -0.3200   64.5590 N.3   298  ARG298     -0.1245
    127  CA        18.0160    0.1470   65.3440 C.3   298  ARG298      0.1563
    128  C         17.7850   -0.1250   66.8270 C.2   298  ARG298      0.2260
    129  O         16.6460   -0.0770   67.3080 O.2   298  ARG298     -0.2867
    130  CB        18.2400    1.6430   65.1640 C.3   298  ARG298      0.0307
    131  CG        18.4130    2.1620   63.7590 C.3   298  ARG298      0.0489
    132  CD        19.0590    3.5310   63.8920 C.3   298  ARG298      0.2205
    133  NE        18.7890    4.5200   62.8480 N.pl3 298  ARG298     -0.0865
    134  CZ        17.7310    5.3170   62.8270 C.cat 298  ARG298      0.5346
    135  NH1       16.8020    5.2140   63.7690 N.pl3 298  ARG298      0.1354
    136  NH2       17.6010    6.2060   61.8510 N.pl3 298  ARG298      0.1354
    137  N         17.9960    5.3600   69.1180 N.3   301  SER301     -0.1217
    138  CA        17.8820    6.5030   68.2040 C.3   301  SER301      0.1889
    139  C         18.9110    7.5720   68.5490 C.2   301  SER301      0.2288
    140  O         19.0110    7.9670   69.7200 O.2   301  SER301     -0.2866
    141  CB        16.4840    7.1110   68.2580 C.3   301  SER301      0.2089
    142  OG        16.4580    8.2300   69.1260 O.3   301  SER301     -0.2183
    143  N         19.1390   10.8390   68.2600 N.3   303  TYR303     -0.1241
    144  CA        18.5420   12.1550   68.0800 C.3   303  TYR303      0.1605
    145  C         18.6660   12.9920   69.3520 C.2   303  TYR303      0.2264
    146  O         18.7070   12.4560   70.4640 O.2   303  TYR303     -0.2867
    147  CB        17.0670   12.0230   67.7040 C.3   303  TYR303      0.0534
    148  CG        16.8560   11.2360   66.4420 C.ar  303  TYR303     -0.0201
    149  CD1       17.6560   11.4500   65.3290 C.ar  303  TYR303     -0.0009
    150  CD2       15.8500   10.2790   66.3580 C.ar  303  TYR303     -0.0009
    151  CE1       17.4700   10.7260   64.1690 C.ar  303  TYR303      0.0417
    152  CE2       15.6540    9.5500   65.2050 C.ar  303  TYR303      0.0417
    153  CZ        16.4680    9.7770   64.1120 C.ar  303  TYR303      0.1957
    154  OH        16.2810    9.0550   62.9550 O.3   303  TYR303     -0.2866
@<TRIPOS>BOND
     1    15    17   ar
     2    15    13   ar
     3    17    16   ar
     4    13    12   ar
     5    95    94    2
     6    16    14   ar
     7    87    86    2
     8    94    93    1
     9    94    98   am
    10    93    96    1
    11    93    92    1
    12    12    14   ar
    13    12    11    1
    14     1     2    1
    15   100    99    1
    16   100   101    2
    17    96    97    1
    18    31    30    2
    19    86    92   am
    20    86    85    1
    21    99    98    1
    22    99   102    1
    23    33    32    1
    24    33    34    1
    25    11     8    1
    26    84    85    1
    27    30    29    1
    28     2     3    1
    29     2     5    1
    30    32    29    1
    31   116   117    1
    32    76    75    2
    33     3     4    2
    34     3     7   am
    35    85    88    1
    36     7     8    1
    37    34    36   ar
    38    34    35   ar
    39   102   103    1
    40    29    28    1
    41    71    70    2
    42   117   118    1
    43   117   120    1
    44     6     5    1
    45     8     9    1
    46    75    74    1
    47    37    38    1
    48    88    89    1
    49    74    77    1
    50    74    73    1
    51   118   119    2
    52   120   121    1
    53     9    10    2
    54     9    18   am
    55    70    73   am
    56    70    69    1
    57   103   104   ar
    58   103   105   ar
    59    77    78    1
    60    82    81    1
    61   104   106   ar
    62    78    79    1
    63    18    19    1
    64    90    89   ar
    65    38    39    1
    66    38    41    1
    67    89    91   ar
    68    69    72    1
    69    69    68    1
    70   105   107   ar
    71   121   123   ar
    72   121   122   ar
    73   123   125   ar
    74    79    80    1
    75    19    20    1
    76    19    22    1
    77    39    40    2
    78    20    21    2
    79   106   107   ar
    80    41    42    1
    81    81    80    2
    82    81    83    1
    83   125   124   ar
    84   122   124   ar
    85    22    23    1
    86    66    65    1
    87    42    43   ar
    88    42    44   ar
    89    63    62    2
    90   136   134    1
    91    23    24   ar
    92    23    25   ar
    93    24    26   ar
    94    62    61    1
    95    25    27   ar
    96    26    27   ar
    97    65    64    1
    98    65    67    1
    99   134   133    2
   100   134   135    1
   101   133   132    1
   102    59    58    2
   103    61    64    1
   104    61    60    1
   105   154   153    1
   106    45    46    1
   107    58    60   am
   108    58    57    1
   109   131   132    1
   110   131   130    1
   111    46    47    1
   112    46    49    1
   113   153   151   ar
   114   153   152   ar
   115   151   149   ar
   116    51    52    1
   117    51    50    1
   118   126   127    1
   119    56    57    1
   120    47    48    2
   121    49    50    1
   122    52    53    2
   123   130   127    1
   124   152   150   ar
   125   149   148   ar
   126   127   128    1
   127    53    55    1
   128    53    54    1
   129   150   148   ar
   130   148   147    1
   131   128   129    2
   132   147   144    1
   133   144   143    1
   134   144   145    1
   135   138   141    1
   136   138   139    1
   137   138   137    1
   138   141   142    1
   139   115   113    1
   140   139   140    2
   141   114   112    1
   142   113   112    1
   143   111   110    2
   144   145   146    2
   145   112   109    1
   146   109   110    1
   147   109   108    1
