@<TRIPOS>MOLECULE
tmp/6e4tB00.pdb
 83 76 0 0 0
SMALL
GASTEIGER

@<TRIPOS>ATOM
      1  N         49.1300  -71.7680  -42.8960 N.3     3  VAL3       -0.1245
      2  CA        48.8580  -73.2010  -43.0770 C.3     3  VAL3        0.1561
      3  C         48.5140  -73.4960  -44.5500 C.2     3  VAL3        0.2260
      4  O         47.7820  -72.7280  -45.1950 O.2     3  VAL3       -0.2867
      5  CB        47.7430  -73.6910  -42.1350 C.3     3  VAL3        0.0252
      6  CG1       47.6170  -75.1960  -42.1730 C.3     3  VAL3        0.0019
      7  CG2       47.9800  -73.2220  -40.7110 C.3     3  VAL3        0.0019
      8  N         47.0050  -76.6700  -46.5260 N.3     5  ARG5       -0.1245
      9  CA        46.4100  -78.0060  -46.4300 C.3     5  ARG5        0.1563
     10  C         45.7130  -78.4730  -47.7320 C.2     5  ARG5        0.2260
     11  O         44.8280  -77.7720  -48.2410 O.2     5  ARG5       -0.2867
     12  CB        45.4390  -78.0370  -45.2400 C.3     5  ARG5        0.0307
     13  CG        45.4560  -79.3130  -44.4170 C.3     5  ARG5        0.0489
     14  CD        44.6350  -79.1450  -43.1570 C.3     5  ARG5        0.2205
     15  NE        43.2070  -79.3550  -43.4090 N.pl3   5  ARG5       -0.0865
     16  CZ        42.2710  -78.4140  -43.3310 C.cat   5  ARG5        0.5346
     17  NH1       42.5930  -77.1680  -42.9810 N.pl3   5  ARG5        0.1354
     18  NH2       41.0000  -78.7140  -43.5770 N.pl3   5  ARG5        0.1354
     19  N         43.2580  -81.0690  -49.2330 N.3     7  THR7       -0.1218
     20  CA        42.2310  -82.0180  -48.8280 C.3     7  THR7        0.1862
     21  C         41.8240  -82.8650  -49.9920 C.2     7  THR7        0.2287
     22  O         41.1750  -82.4040  -50.9310 O.2     7  THR7       -0.2866
     23  CB        41.0520  -81.3390  -48.1820 C.3     7  THR7        0.1770
     24  OG1       41.4760  -80.1610  -47.5020 O.3     7  THR7       -0.2211
     25  CG2       40.3400  -82.2510  -47.2450 C.3     7  THR7        0.0375
     26  N         53.4640  -82.9710  -45.9260 N.3    28  THR28      -0.1203
     27  CA        53.3560  -84.1690  -45.1190 C.3    28  THR28       0.1994
     28  C         51.8680  -84.5430  -45.0420 C.2    28  THR28       0.2617
     29  O         51.0400  -83.6570  -44.8400 O.2    28  THR28      -0.2717
     30  CB        53.9160  -83.8180  -43.7400 C.3    28  THR28       0.1784
     31  OG1       55.2200  -83.2700  -43.9050 O.3    28  THR28      -0.2211
     32  CG2       53.9660  -84.9910  -42.8140 C.3    28  THR28       0.0376
     33  N         51.5230  -85.8330  -45.2170 N.am   29  ARG29      -0.1979
     34  CA        50.1160  -86.2420  -45.1220 C.3    29  ARG29       0.1597
     35  C         49.8270  -86.9110  -43.8070 C.2    29  ARG29       0.2287
     36  O         50.5550  -87.8310  -43.4340 O.2    29  ARG29      -0.2864
     37  CB        49.6920  -87.2080  -46.2420 C.3    29  ARG29       0.0334
     38  CG        48.1580  -87.3800  -46.3060 C.3    29  ARG29       0.0492
     39  CD        47.6420  -88.4400  -47.2500 C.3    29  ARG29       0.2205
     40  NE        47.6110  -89.7560  -46.6350 N.pl3  29  ARG29      -0.0865
     41  CZ        48.3700  -90.7700  -47.0210 C.cat  29  ARG29       0.5346
     42  NH1       49.2230  -90.6250  -48.0370 N.pl3  29  ARG29       0.1354
     43  NH2       48.2770  -91.9440  -46.4070 N.pl3  29  ARG29       0.1354
     44  N         46.2370  -87.8900  -43.0850 N.3    30  GLN30      -0.1231
     45  CA        45.1630  -88.8190  -43.4340 C.3    30  GLN30       0.1698
     46  C         44.5980  -88.5970  -44.8300 C.2    30  GLN30       0.2592
     47  O         44.8920  -89.3660  -45.7500 O.2    30  GLN30      -0.2718
     48  CB        44.0850  -88.7020  -42.3510 C.3    30  GLN30       0.0381
     49  CG        42.9410  -89.6690  -42.4240 C.3    30  GLN30       0.0905
     50  CD        41.9430  -89.2590  -41.3880 C.2    30  GLN30       0.2608
     51  OE1       41.3620  -88.1650  -41.4480 O.2    30  GLN30      -0.2717
     52  NE2       41.7910  -90.0890  -40.3780 N.am   30  GLN30      -0.0878
     53  N         43.7460  -87.5880  -44.9710 N.am   31  ASN31      -0.1960
     54  CA        43.1460  -87.2170  -46.2470 C.3    31  ASN31       0.1819
     55  C         43.5280  -85.7380  -46.4810 C.2    31  ASN31       0.2621
     56  O         43.2360  -85.1570  -47.5380 O.2    31  ASN31      -0.2715
     57  CB        41.6350  -87.4920  -46.2370 C.3    31  ASN31       0.1195
     58  CG        40.7240  -86.3620  -45.8340 C.2    31  ASN31       0.2630
     59  OD1       40.3020  -85.5820  -46.6810 O.2    31  ASN31      -0.2716
     60  ND2       40.3150  -86.3120  -44.5620 N.am   31  ASN31      -0.0877
     61  N         44.2660  -85.1730  -45.4730 N.am   32  ASN32      -0.1972
     62  CA        44.8240  -83.8250  -45.3990 C.3    32  ASN32       0.1688
     63  C         46.3650  -83.9020  -45.4730 C.2    32  ASN32       0.2292
     64  O         46.9860  -84.6870  -44.7390 O.2    32  ASN32      -0.2864
     65  CB        44.3880  -83.1510  -44.0940 C.3    32  ASN32       0.1181
     66  CG        42.9270  -82.7710  -44.0310 C.2    32  ASN32       0.2629
     67  OD1       42.4890  -81.8140  -44.6720 O.2    32  ASN32      -0.2716
     68  ND2       42.1520  -83.4490  -43.1880 N.am   32  ASN32      -0.0877
     69  N         49.5660  -81.3700  -45.2610 N.3    34  VAL34      -0.1245
     70  CA        49.8240  -80.0320  -44.7700 C.3    34  VAL34       0.1561
     71  C         51.3080  -79.6140  -44.6180 C.2    34  VAL34       0.2260
     72  O         52.1970  -80.4590  -44.4780 O.2    34  VAL34      -0.2867
     73  CB        49.0620  -79.9180  -43.4360 C.3    34  VAL34       0.0252
     74  CG1       49.8780  -80.4620  -42.2710 C.3    34  VAL34       0.0019
     75  CG2       48.6190  -78.4970  -43.1710 C.3    34  VAL34       0.0019
     76  N         53.2390  -75.7440  -42.8000 N.3    36  ILE36      -0.1245
     77  CA        53.0670  -74.4540  -42.1470 C.3    36  ILE36       0.1561
     78  C         54.3830  -73.7170  -42.3490 C.2    36  ILE36       0.2260
     79  O         55.4460  -74.3180  -42.1710 O.2    36  ILE36      -0.2867
     80  CB        52.6800  -74.5750  -40.6590 C.3    36  ILE36       0.0252
     81  CG1       51.4890  -75.5470  -40.4490 C.3    36  ILE36       0.0019
     82  CG2       52.3970  -73.1780  -40.0730 C.3    36  ILE36       0.0019
     83  CD1       51.2160  -75.9610  -38.9610 C.3    36  ILE36       0.0001
@<TRIPOS>BOND
     1    22    21    2
     2    21    20    1
     3    19    20    1
     4    20    23    1
     5    11    10    2
     6    23    24    1
     7    23    25    1
     8    42    41    1
     9    10     9    1
    10    56    55    2
    11    39    40    1
    12    39    38    1
    13    41    40    2
    14    41    43    1
    15    59    58    2
    16     8     9    1
    17    55    54    1
    18    55    61   am
    19     9    12    1
    20    38    37    1
    21    54    57    1
    22    54    53    1
    23    37    34    1
    24    57    58    1
    25    26    27    1
    26    58    60   am
    27    47    46    2
    28    61    62    1
    29    63    62    1
    30    63    64    2
    31    62    65    1
    32    69    70    1
    33    12    13    1
    34    33    34    1
    35    33    28   am
    36     4     3    2
    37    34    35    1
    38    27    28    1
    39    27    30    1
    40    28    29    2
    41    53    46   am
    42    46    45    1
    43    70    71    1
    44    70    73    1
    45    67    66    2
    46    71    72    2
    47     3     2    1
    48    13    14    1
    49    65    66    1
    50    66    68   am
    51    31    30    1
    52    35    36    2
    53    30    32    1
    54    18    16    1
    55    73    75    1
    56    73    74    1
    57    45    44    1
    58    45    48    1
    59    15    16    2
    60    15    14    1
    61    16    17    1
    62     2     1    1
    63     2     5    1
    64    76    77    1
    65    49    48    1
    66    49    50    1
    67    78    79    2
    68    78    77    1
    69     6     5    1
    70    77    80    1
    71     5     7    1
    72    51    50    2
    73    50    52   am
    74    80    81    1
    75    80    82    1
    76    81    83    1
