@<TRIPOS>MOLECULE
tmp/6e4tA00.pdb
 92 83 0 0 0
SMALL
GASTEIGER

@<TRIPOS>ATOM
      1  N         56.1300  -80.7940  -39.6950 N.3     3  VAL3       -0.1245
      2  CA        55.0900  -79.7600  -39.5810 C.3     3  VAL3        0.1561
      3  C         55.2280  -79.0670  -38.2120 C.2     3  VAL3        0.2260
      4  O         55.0410  -79.7210  -37.1840 O.2     3  VAL3       -0.2867
      5  CB        53.6710  -80.3280  -39.8530 C.3     3  VAL3        0.0252
      6  CG1       52.6040  -79.2690  -39.6490 C.3     3  VAL3        0.0019
      7  CG2       53.5710  -80.8930  -41.2610 C.3     3  VAL3        0.0019
      8  N         54.4610  -80.7850  -34.7430 N.3    10  LEU10      -0.1231
      9  CA        53.1420  -81.3860  -34.5960 C.3    10  LEU10       0.1693
     10  C         53.2720  -82.8520  -34.9290 C.2    10  LEU10       0.2592
     11  O         53.7460  -83.2140  -35.9990 O.2    10  LEU10      -0.2718
     12  CB        52.0920  -80.7220  -35.5140 C.3    10  LEU10       0.0284
     13  CG        51.6710  -79.3100  -35.1620 C.3    10  LEU10       0.0019
     14  CD1       50.8730  -78.7150  -36.2690 C.3    10  LEU10       0.0001
     15  CD2       50.8640  -79.2760  -33.8880 C.3    10  LEU10       0.0001
     16  N         52.9340  -83.6730  -33.9660 N.am   11  GLY11      -0.1957
     17  CA        52.9750  -85.1130  -34.0910 C.3    11  GLY11       0.1869
     18  C         51.5830  -85.6820  -34.2120 C.2    11  GLY11       0.2309
     19  O         50.7510  -85.1660  -34.9700 O.2    11  GLY11      -0.2863
     20  N         40.1070  -86.0230  -30.4070 N.3    16  VAL16      -0.1245
     21  CA        39.2410  -85.0020  -31.0130 C.3    16  VAL16       0.1561
     22  C         38.3230  -84.4710  -29.9210 C.2    16  VAL16       0.2260
     23  O         37.5410  -85.2260  -29.3290 O.2    16  VAL16      -0.2867
     24  CB        38.4480  -85.4480  -32.2560 C.3    16  VAL16       0.0252
     25  CG1       37.4560  -84.3680  -32.6820 C.3    16  VAL16       0.0019
     26  CG2       39.3800  -85.7920  -33.3960 C.3    16  VAL16       0.0019
     27  N         37.5780  -79.3060  -32.1300 N.3    20  GLY20      -0.1210
     28  CA        38.7700  -79.5630  -32.9410 C.3    20  GLY20       0.1956
     29  C         39.7240  -80.6540  -32.5120 C.2    20  GLY20       0.2611
     30  O         39.6810  -81.0930  -31.3640 O.2    20  GLY20      -0.2717
     31  N         40.6160  -81.0860  -33.4520 N.am   21  LYS21      -0.1979
     32  CA        41.6560  -82.1130  -33.2350 C.3    21  LYS21       0.1596
     33  C         42.6580  -81.6100  -32.2100 C.2    21  LYS21       0.2287
     34  O         42.9250  -80.4030  -32.1510 O.2    21  LYS21      -0.2864
     35  CB        42.4260  -82.4270  -34.5420 C.3    21  LYS21       0.0298
     36  CG        41.8750  -83.5770  -35.3920 C.3    21  LYS21       0.0038
     37  CD        42.7400  -83.8410  -36.6330 C.3    21  LYS21       0.0206
     38  CE        42.5430  -85.2120  -37.2460 C.3    21  LYS21       0.1093
     39  NZ        43.1670  -85.3030  -38.5990 N.3    21  LYS21      -0.1314
     40  N         46.5680  -82.4020  -31.0660 N.3    23  LYS23      -0.1245
     41  CA        47.7880  -83.0880  -31.4840 C.3    23  LYS23       0.1561
     42  C         48.9690  -82.7890  -30.5810 C.2    23  LYS23       0.2260
     43  O         48.9880  -81.7330  -29.9390 O.2    23  LYS23      -0.2867
     44  CB        48.1380  -82.7550  -32.9450 C.3    23  LYS23       0.0271
     45  CG        47.0680  -83.1800  -33.9370 C.3    23  LYS23       0.0035
     46  CD        47.3190  -82.6610  -35.3420 C.3    23  LYS23       0.0206
     47  CE        47.2000  -83.7590  -36.3490 C.3    23  LYS23       0.1093
     48  NZ        48.2330  -84.7870  -36.1090 N.3    23  LYS23      -0.1314
     49  N         43.5600  -77.5490  -32.5060 N.3    38  ILE38      -0.1245
     50  CA        43.4920  -76.8770  -33.8090 C.3    38  ILE38       0.1561
     51  C         42.0390  -76.4670  -34.0870 C.2    38  ILE38       0.2260
     52  O         41.1850  -77.3420  -34.2580 O.2    38  ILE38      -0.2867
     53  CB        44.0920  -77.7080  -34.9910 C.3    38  ILE38       0.0252
     54  CG1       45.4950  -78.2550  -34.6740 C.3    38  ILE38       0.0019
     55  CG2       44.1150  -76.8660  -36.2800 C.3    38  ILE38       0.0019
     56  CD1       46.0820  -79.1660  -35.7500 C.3    38  ILE38       0.0001
     57  N         39.8250  -74.6340  -36.8210 N.3    40  ASN40      -0.1240
     58  CA        39.7530  -74.0080  -38.1310 C.3    40  ASN40       0.1653
     59  C         38.7550  -72.8820  -38.0740 C.2    40  ASN40       0.2266
     60  O         37.5880  -73.1040  -37.7580 O.2    40  ASN40      -0.2867
     61  CB        39.3970  -74.9850  -39.2300 C.3    40  ASN40       0.1155
     62  CG        38.9070  -74.3160  -40.4860 C.2    40  ASN40       0.2627
     63  OD1       37.7470  -74.4470  -40.8480 O.2    40  ASN40      -0.2716
     64  ND2       39.7470  -73.5310  -41.1470 N.am   40  ASN40      -0.0877
     65  N         35.4270  -73.2610  -39.8060 N.3    43  LYS43      -0.1245
     66  CA        34.5290  -74.2150  -39.1440 C.3    43  LYS43       0.1561
     67  C         33.9980  -73.5960  -37.8640 C.2    43  LYS43       0.2260
     68  O         32.7940  -73.6490  -37.6410 O.2    43  LYS43      -0.2867
     69  CB        35.2080  -75.5770  -38.8850 C.3    43  LYS43       0.0271
     70  CG        34.2600  -76.6800  -38.4100 C.3    43  LYS43       0.0035
     71  CD        34.9850  -77.6990  -37.5170 C.3    43  LYS43       0.0206
     72  CE        34.1110  -78.8550  -37.0510 C.3    43  LYS43       0.1093
     73  NZ        34.8670  -79.8960  -36.2760 N.3    43  LYS43      -0.1314
     74  N         43.7210  -71.2710  -39.5310 N.3    80  ASP80      -0.1239
     75  CA        43.3020  -71.8600  -38.2540 C.3    80  ASP80       0.1674
     76  C         43.9010  -71.1780  -36.9880 C.2    80  ASP80       0.2266
     77  O         44.7550  -70.2970  -37.0740 O.2    80  ASP80      -0.2867
     78  CB        43.6050  -73.3870  -38.2480 C.3    80  ASP80       0.1410
     79  CG        43.6130  -74.0580  -39.6250 C.2    80  ASP80       0.3668
     80  OD1       44.6840  -74.0920  -40.2650 O.co2  80  ASP80      -0.2456
     81  OD2       42.5360  -74.4900  -40.0840 O.co2  80  ASP80      -0.2456
     82  N         45.6030  -72.0760  -33.1680 N.3    82  PHE82      -0.1241
     83  CA        46.3400  -73.1120  -32.4510 C.3    82  PHE82       0.1605
     84  C         46.4410  -72.8450  -30.9520 C.2    82  PHE82       0.2264
     85  O         47.0700  -71.8720  -30.5440 O.2    82  PHE82      -0.2867
     86  CB        47.7370  -73.2770  -33.0870 C.3    82  PHE82       0.0534
     87  CG        47.7580  -73.7830  -34.5170 C.ar   82  PHE82      -0.0203
     88  CD1       47.8310  -75.1470  -34.7910 C.ar   82  PHE82      -0.0042
     89  CD2       47.7410  -72.8950  -35.5870 C.ar   82  PHE82      -0.0042
     90  CE1       47.8880  -75.6140  -36.1080 C.ar   82  PHE82      -0.0003
     91  CE2       47.7810  -73.3630  -36.9020 C.ar   82  PHE82      -0.0003
     92  CZ        47.8670  -74.7170  -37.1540 C.ar   82  PHE82      -0.0000
@<TRIPOS>BOND
     1     7     5    1
     2    64    62   am
     3    63    62    2
     4    62    61    1
     5    80    79   ar
     6    81    79   ar
     7     5     6    1
     8     5     2    1
     9    65    66    1
    10     1     2    1
    11    79    78    1
    12     2     3    1
    13    74    75    1
    14    61    58    1
    15    66    69    1
    16    66    67    1
    17    69    70    1
    18    39    38    1
    19    70    71    1
    20    75    78    1
    21    75    76    1
    22     3     4    2
    23    58    59    1
    24    58    57    1
    25    59    60    2
    26    67    68    2
    27    71    72    1
    28    38    37    1
    29    92    91   ar
    30    92    90   ar
    31    77    76    2
    32    72    73    1
    33    91    89   ar
    34    37    36    1
    35    47    48    1
    36    47    46    1
    37    55    53    1
    38    14    13    1
    39    90    88   ar
    40    11    10    2
    41    56    54    1
    42    89    87   ar
    43    12    13    1
    44    12     9    1
    45    36    35    1
    46    46    45    1
    47    13    15    1
    48    53    54    1
    49    53    50    1
    50    19    18    2
    51    10     9    1
    52    10    16   am
    53    88    87   ar
    54     8     9    1
    55    35    32    1
    56    87    86    1
    57    52    51    2
    58    18    17    1
    59    17    16    1
    60    51    50    1
    61    45    44    1
    62    50    49    1
    63    31    32    1
    64    31    29   am
    65    26    24    1
    66    32    33    1
    67    82    83    1
    68    86    83    1
    69    44    41    1
    70    28    29    1
    71    28    27    1
    72    25    24    1
    73    29    30    2
    74    83    84    1
    75    24    21    1
    76    33    34    2
    77    41    40    1
    78    41    42    1
    79    21    20    1
    80    21    22    1
    81    84    85    2
    82    42    43    2
    83    22    23    2
