@<TRIPOS>MOLECULE
tmp/6e4uB00.pdb
 83 76 0 0 0
SMALL
GASTEIGER

@<TRIPOS>ATOM
      1  N         49.2450  -72.2340  -42.7350 N.3     5  VAL5       -0.1245
      2  CA        48.9490  -73.6540  -42.9470 C.3     5  VAL5        0.1561
      3  C         48.5330  -73.9010  -44.3970 C.2     5  VAL5        0.2260
      4  O         47.6610  -73.1990  -44.9120 O.2     5  VAL5       -0.2867
      5  CB        47.8910  -74.1830  -41.9450 C.3     5  VAL5        0.0252
      6  CG1       47.5920  -75.6540  -42.1800 C.3     5  VAL5        0.0019
      7  CG2       48.3180  -73.9540  -40.4990 C.3     5  VAL5        0.0019
      8  N         47.0330  -76.9050  -46.5300 N.3     7  ARG7       -0.1245
      9  CA        46.4140  -78.2270  -46.4780 C.3     7  ARG7        0.1563
     10  C         45.7170  -78.6570  -47.7560 C.2     7  ARG7        0.2260
     11  O         44.7970  -77.9810  -48.2250 O.2     7  ARG7       -0.2867
     12  CB        45.4480  -78.3150  -45.2910 C.3     7  ARG7        0.0307
     13  CG        45.3700  -79.6870  -44.6570 C.3     7  ARG7        0.0489
     14  CD        44.5640  -79.6450  -43.3750 C.3     7  ARG7        0.2205
     15  NE        43.1440  -79.9310  -43.5950 N.pl3   7  ARG7       -0.0865
     16  CZ        42.1590  -79.0550  -43.4190 C.cat   7  ARG7        0.5346
     17  NH1       42.4260  -77.8150  -43.0200 N.pl3   7  ARG7        0.1354
     18  NH2       40.8990  -79.4160  -43.6220 N.pl3   7  ARG7        0.1354
     19  N         43.2740  -81.3500  -49.2650 N.3     9  THR9       -0.1218
     20  CA        42.3080  -82.3540  -48.8320 C.3     9  THR9        0.1862
     21  C         41.9070  -83.2540  -49.9890 C.2     9  THR9        0.2287
     22  O         40.9660  -82.9700  -50.7330 O.2     9  THR9       -0.2866
     23  CB        41.1390  -81.7340  -48.0890 C.3     9  THR9        0.1770
     24  OG1       41.6670  -80.9200  -47.0520 O.3     9  THR9       -0.2211
     25  CG2       40.2310  -82.7760  -47.4670 C.3     9  THR9        0.0375
     26  N         53.2890  -83.5750  -45.6980 N.3    30  THR30      -0.1203
     27  CA        53.1020  -84.7460  -44.8400 C.3    30  THR30       0.1994
     28  C         51.6240  -85.1080  -44.8280 C.2    30  THR30       0.2617
     29  O         50.7910  -84.2080  -44.7940 O.2    30  THR30      -0.2717
     30  CB        53.5860  -84.4360  -43.4140 C.3    30  THR30       0.1784
     31  OG1       54.7030  -83.5530  -43.4580 O.3    30  THR30      -0.2211
     32  CG2       53.9630  -85.6810  -42.6470 C.3    30  THR30       0.0376
     33  N         51.2880  -86.4070  -44.8480 N.am   31  ARG31      -0.1979
     34  CA        49.8800  -86.8070  -44.8080 C.3    31  ARG31       0.1597
     35  C         49.4520  -87.4020  -43.4790 C.2    31  ARG31       0.2287
     36  O         50.1650  -88.2430  -42.9220 O.2    31  ARG31      -0.2864
     37  CB        49.5150  -87.7580  -45.9580 C.3    31  ARG31       0.0334
     38  CG        48.1090  -88.3700  -45.8300 C.3    31  ARG31       0.0492
     39  CD        47.5590  -88.9640  -47.1050 C.3    31  ARG31       0.2205
     40  NE        48.4930  -89.8830  -47.7520 N.pl3  31  ARG31      -0.0865
     41  CZ        48.5980  -91.1720  -47.4620 C.cat  31  ARG31       0.5346
     42  NH1       47.8270  -91.7160  -46.5240 N.pl3  31  ARG31       0.1354
     43  NH2       49.4820  -91.9300  -48.1020 N.pl3  31  ARG31       0.1354
     44  N         45.7240  -88.3280  -43.1060 N.3    32  GLN32      -0.1231
     45  CA        44.7570  -89.3030  -43.6000 C.3    32  GLN32       0.1698
     46  C         44.3490  -89.0020  -45.0330 C.2    32  GLN32       0.2592
     47  O         44.7870  -89.6890  -45.9520 O.2    32  GLN32      -0.2718
     48  CB        43.5400  -89.3450  -42.6710 C.3    32  GLN32       0.0381
     49  CG        43.1570  -90.7460  -42.2470 C.3    32  GLN32       0.0905
     50  CD        42.2420  -90.7160  -41.0560 C.2    32  GLN32       0.2608
     51  OE1       41.1460  -90.1480  -41.0970 O.2    32  GLN32      -0.2717
     52  NE2       42.6700  -91.3360  -39.9680 N.am   32  GLN32      -0.0878
     53  N         43.4890  -87.9940  -45.2150 N.am   33  ASN33      -0.1960
     54  CA        43.0080  -87.5250  -46.5110 C.3    33  ASN33       0.1819
     55  C         43.3960  -86.0500  -46.6400 C.2    33  ASN33       0.2621
     56  O         42.8960  -85.3290  -47.5030 O.2    33  ASN33      -0.2715
     57  CB        41.4950  -87.7680  -46.6590 C.3    33  ASN33       0.1195
     58  CG        40.5760  -86.8320  -45.9200 C.2    33  ASN33       0.2630
     59  OD1       39.7410  -86.1630  -46.5340 O.2    33  ASN33      -0.2716
     60  ND2       40.6470  -86.8120  -44.5920 N.am   33  ASN33      -0.0877
     61  N         44.3100  -85.6200  -45.7530 N.am   34  ASN34      -0.1972
     62  CA        44.8530  -84.2720  -45.6780 C.3    34  ASN34       0.1688
     63  C         46.3770  -84.3350  -45.7230 C.2    34  ASN34       0.2292
     64  O         46.9910  -85.1680  -45.0420 O.2    34  ASN34      -0.2864
     65  CB        44.3920  -83.5660  -44.4030 C.3    34  ASN34       0.1181
     66  CG        42.9110  -83.3420  -44.3070 C.2    34  ASN34       0.2629
     67  OD1       42.3770  -82.3590  -44.8200 O.2    34  ASN34      -0.2716
     68  ND2       42.2240  -84.2240  -43.6010 N.am   34  ASN34      -0.0877
     69  N         49.6220  -81.7270  -45.3140 N.3    36  VAL36      -0.1245
     70  CA        49.8830  -80.4060  -44.7710 C.3    36  VAL36       0.1561
     71  C         51.3600  -80.0080  -44.7070 C.2    36  VAL36       0.2260
     72  O         52.2630  -80.8490  -44.7590 O.2    36  VAL36      -0.2867
     73  CB        49.2080  -80.2890  -43.3900 C.3    36  VAL36       0.0252
     74  CG1       50.1320  -80.7500  -42.2710 C.3    36  VAL36       0.0019
     75  CG2       48.7110  -78.8770  -43.1400 C.3    36  VAL36       0.0019
     76  N         53.1560  -76.3530  -42.6290 N.3    38  ILE38      -0.1245
     77  CA        53.0340  -75.0700  -41.9470 C.3    38  ILE38       0.1561
     78  C         54.3590  -74.3790  -42.2330 C.2    38  ILE38       0.2260
     79  O         55.4110  -74.9920  -42.0340 O.2    38  ILE38      -0.2867
     80  CB        52.7680  -75.2000  -40.4180 C.3    38  ILE38       0.0252
     81  CG1       51.5180  -76.0490  -40.1170 C.3    38  ILE38       0.0019
     82  CG2       52.6680  -73.8120  -39.7680 C.3    38  ILE38       0.0019
     83  CD1       51.3360  -76.4390  -38.6540 C.3    38  ILE38       0.0001
@<TRIPOS>BOND
     1    22    21    2
     2    21    20    1
     3    19    20    1
     4    20    23    1
     5    11    10    2
     6    43    41    1
     7    23    25    1
     8    23    24    1
     9    10     9    1
    10    40    41    2
    11    40    39    1
    12    56    55    2
    13    41    42    1
    14    39    38    1
    15    57    54    1
    16    57    58    1
    17    55    54    1
    18    55    61   am
    19    59    58    2
    20     8     9    1
    21    54    53    1
    22     9    12    1
    23    37    38    1
    24    37    34    1
    25    47    46    2
    26    58    60   am
    27    61    62    1
    28    63    62    1
    29    63    64    2
    30    26    27    1
    31    62    65    1
    32    69    70    1
    33    12    13    1
    34    53    46   am
    35    46    45    1
    36     4     3    2
    37    33    28   am
    38    33    34    1
    39    27    28    1
    40    27    30    1
    41    28    29    2
    42    67    66    2
    43    34    35    1
    44    70    71    1
    45    70    73    1
    46    72    71    2
    47    13    14    1
    48    65    66    1
    49     3     2    1
    50    66    68   am
    51    18    16    1
    52    45    44    1
    53    45    48    1
    54    15    16    2
    55    15    14    1
    56    35    36    2
    57    31    30    1
    58    16    17    1
    59    30    32    1
    60    73    75    1
    61    73    74    1
    62     2     1    1
    63     2     5    1
    64    48    49    1
    65    76    77    1
    66    49    50    1
    67    78    79    2
    68    78    77    1
    69     6     5    1
    70    77    80    1
    71     5     7    1
    72    51    50    2
    73    50    52   am
    74    80    81    1
    75    80    82    1
    76    81    83    1
