@<TRIPOS>MOLECULE
tmp/6e4uA01.pdb
 92 83 0 0 0
SMALL
GASTEIGER

@<TRIPOS>ATOM
      1  N         55.8860  -81.4420  -39.5970 N.3     3  VAL3       -0.1245
      2  CA        54.9130  -80.3680  -39.3750 C.3     3  VAL3        0.1561
      3  C         55.2400  -79.6420  -38.0600 C.2     3  VAL3        0.2260
      4  O         55.2810  -80.2820  -37.0120 O.2     3  VAL3       -0.2867
      5  CB        53.4690  -80.9260  -39.3890 C.3     3  VAL3        0.0252
      6  CG1       52.4460  -79.8010  -39.4140 C.3     3  VAL3        0.0019
      7  CG2       53.2550  -81.8650  -40.5670 C.3     3  VAL3        0.0019
      8  N         54.5480  -81.2680  -34.5740 N.3    10  LEU10      -0.1231
      9  CA        53.2420  -81.9150  -34.4580 C.3    10  LEU10       0.1693
     10  C         53.3180  -83.3860  -34.8590 C.2    10  LEU10       0.2592
     11  O         53.8860  -83.7290  -35.8970 O.2    10  LEU10      -0.2718
     12  CB        52.1620  -81.1770  -35.2650 C.3    10  LEU10       0.0284
     13  CG        51.7190  -79.8200  -34.7400 C.3    10  LEU10       0.0019
     14  CD1       50.7370  -79.1880  -35.6720 C.3    10  LEU10       0.0001
     15  CD2       51.0820  -79.9320  -33.3880 C.3    10  LEU10       0.0001
     16  N         52.7720  -84.2340  -34.0030 N.am   11  GLY11      -0.1957
     17  CA        52.7730  -85.6730  -34.1890 C.3    11  GLY11       0.1869
     18  C         51.4060  -86.3120  -34.0870 C.2    11  GLY11       0.2309
     19  O         50.4120  -85.7560  -34.5690 O.2    11  GLY11      -0.2863
     20  N         39.9920  -86.5950  -30.4460 N.3    16  VAL16      -0.1245
     21  CA        39.1900  -85.5440  -31.0740 C.3    16  VAL16       0.1561
     22  C         38.3250  -84.8900  -29.9900 C.2    16  VAL16       0.2260
     23  O         37.4050  -85.5180  -29.4520 O.2    16  VAL16      -0.2867
     24  CB        38.3740  -86.0500  -32.2790 C.3    16  VAL16       0.0252
     25  CG1       37.4400  -84.9630  -32.8000 C.3    16  VAL16       0.0019
     26  CG2       39.2950  -86.5440  -33.3860 C.3    16  VAL16       0.0019
     27  N         37.7640  -79.8400  -32.2110 N.3    20  GLY20      -0.1210
     28  CA        38.8870  -80.1700  -33.0880 C.3    20  GLY20       0.1956
     29  C         39.8050  -81.2740  -32.6090 C.2    20  GLY20       0.2611
     30  O         39.6960  -81.7160  -31.4640 O.2    20  GLY20      -0.2717
     31  N         40.7270  -81.7240  -33.4930 N.am   21  LYS21      -0.1979
     32  CA        41.7330  -82.7610  -33.1960 C.3    21  LYS21       0.1596
     33  C         42.7400  -82.2250  -32.1760 C.2    21  LYS21       0.2287
     34  O         43.0370  -81.0260  -32.1720 O.2    21  LYS21      -0.2864
     35  CB        42.5140  -83.1650  -34.4640 C.3    21  LYS21       0.0298
     36  CG        41.7320  -83.9740  -35.4910 C.3    21  LYS21       0.0038
     37  CD        42.4210  -83.9630  -36.8570 C.3    21  LYS21       0.0206
     38  CE        43.2630  -85.1920  -37.1210 C.3    21  LYS21       0.1093
     39  NZ        43.9580  -85.1190  -38.4390 N.3    21  LYS21      -0.1314
     40  N         46.5960  -83.0030  -31.0980 N.3    23  LYS23      -0.1245
     41  CA        47.8130  -83.7300  -31.4560 C.3    23  LYS23       0.1561
     42  C         48.9640  -83.4450  -30.4940 C.2    23  LYS23       0.2260
     43  O         49.0000  -82.3720  -29.8860 O.2    23  LYS23      -0.2867
     44  CB        48.2430  -83.3740  -32.8880 C.3    23  LYS23       0.0271
     45  CG        47.3290  -83.9180  -33.9640 C.3    23  LYS23       0.0035
     46  CD        47.7470  -83.4370  -35.3300 C.3    23  LYS23       0.0206
     47  CE        47.2750  -84.3680  -36.4170 C.3    23  LYS23       0.1093
     48  NZ        48.0360  -85.6460  -36.4180 N.3    23  LYS23      -0.1314
     49  N         43.6680  -78.2180  -32.5170 N.3    38  ILE38      -0.1245
     50  CA        43.5840  -77.5210  -33.8070 C.3    38  ILE38       0.1561
     51  C         42.1360  -77.1160  -34.1150 C.2    38  ILE38       0.2260
     52  O         41.2970  -77.9840  -34.3910 O.2    38  ILE38      -0.2867
     53  CB        44.2390  -78.3040  -34.9880 C.3    38  ILE38       0.0252
     54  CG1       45.6440  -78.8350  -34.6340 C.3    38  ILE38       0.0019
     55  CG2       44.2840  -77.4280  -36.2520 C.3    38  ILE38       0.0019
     56  CD1       46.1560  -79.9610  -35.5440 C.3    38  ILE38       0.0001
     57  N         39.8370  -75.1650  -36.7340 N.3    40  ASN40      -0.1240
     58  CA        39.7850  -74.5500  -38.0580 C.3    40  ASN40       0.1653
     59  C         38.8470  -73.3610  -37.9940 C.2    40  ASN40       0.2266
     60  O         37.6930  -73.5070  -37.5860 O.2    40  ASN40      -0.2867
     61  CB        39.3510  -75.5410  -39.1310 C.3    40  ASN40       0.1155
     62  CG        39.1610  -74.9120  -40.4820 C.2    40  ASN40       0.2627
     63  OD1       38.0470  -74.5650  -40.8690 O.2    40  ASN40      -0.2716
     64  ND2       40.2430  -74.7200  -41.2180 N.am   40  ASN40      -0.0877
     65  N         35.5550  -73.7770  -39.7680 N.3    43  LYS43      -0.1245
     66  CA        34.6810  -74.7680  -39.1290 C.3    43  LYS43       0.1561
     67  C         34.0520  -74.1980  -37.8550 C.2    43  LYS43       0.2260
     68  O         32.8650  -74.4350  -37.6210 O.2    43  LYS43      -0.2867
     69  CB        35.4300  -76.0840  -38.8480 C.3    43  LYS43       0.0271
     70  CG        34.5620  -77.2040  -38.2690 C.3    43  LYS43       0.0035
     71  CD        35.3970  -78.1990  -37.4700 C.3    43  LYS43       0.0206
     72  CE        34.5660  -79.2420  -36.7640 C.3    43  LYS43       0.1093
     73  NZ        35.4100  -80.3440  -36.2310 N.3    43  LYS43      -0.1314
     74  N         43.8240  -71.7320  -39.4700 N.3    80  ASP80      -0.1239
     75  CA        43.4940  -72.3600  -38.1790 C.3    80  ASP80       0.1674
     76  C         44.0480  -71.6450  -36.9300 C.2    80  ASP80       0.2266
     77  O         44.9660  -70.8330  -37.0160 O.2    80  ASP80      -0.2867
     78  CB        43.9930  -73.8230  -38.1590 C.3    80  ASP80       0.1410
     79  CG        43.7360  -74.6130  -39.4250 C.2    80  ASP80       0.3668
     80  OD1       44.5560  -74.5120  -40.3670 O.co2  80  ASP80      -0.2456
     81  OD2       42.7160  -75.3190  -39.4800 O.co2  80  ASP80      -0.2456
     82  N         45.6370  -72.5920  -33.1200 N.3    82  PHE82      -0.1241
     83  CA        46.3330  -73.6590  -32.3980 C.3    82  PHE82       0.1605
     84  C         46.4250  -73.3770  -30.9060 C.2    82  PHE82       0.2264
     85  O         47.0920  -72.4240  -30.5000 O.2    82  PHE82      -0.2867
     86  CB        47.7440  -73.8590  -32.9750 C.3    82  PHE82       0.0534
     87  CG        47.8060  -74.3640  -34.3950 C.ar   82  PHE82      -0.0203
     88  CD1       47.8280  -73.4770  -35.4640 C.ar   82  PHE82      -0.0042
     89  CD2       47.8790  -75.7250  -34.6640 C.ar   82  PHE82      -0.0042
     90  CE1       47.9020  -73.9420  -36.7740 C.ar   82  PHE82      -0.0003
     91  CE2       47.9640  -76.1910  -35.9740 C.ar   82  PHE82      -0.0003
     92  CZ        47.9760  -75.2950  -37.0200 C.ar   82  PHE82      -0.0000
@<TRIPOS>BOND
     1    64    62   am
     2    63    62    2
     3     7     5    1
     4    62    61    1
     5    80    79   ar
     6    65    66    1
     7     1     2    1
     8    81    79   ar
     9    74    75    1
    10    79    78    1
    11     6     5    1
    12     5     2    1
    13     2     3    1
    14    61    58    1
    15    66    69    1
    16    66    67    1
    17    69    70    1
    18    39    38    1
    19    70    71    1
    20    75    78    1
    21    75    76    1
    22     3     4    2
    23    58    59    1
    24    58    57    1
    25    59    60    2
    26    67    68    2
    27    71    72    1
    28    38    37    1
    29    92    90   ar
    30    92    91   ar
    31    77    76    2
    32    37    36    1
    33    90    88   ar
    34    72    73    1
    35    48    47    1
    36    47    46    1
    37    55    53    1
    38    91    89   ar
    39    11    10    2
    40    14    13    1
    41    56    54    1
    42    36    35    1
    43    88    87   ar
    44    46    45    1
    45    12    13    1
    46    12     9    1
    47    53    54    1
    48    53    50    1
    49    10     9    1
    50    10    16   am
    51    13    15    1
    52    89    87   ar
    53     8     9    1
    54    19    18    2
    55    35    32    1
    56    87    86    1
    57    52    51    2
    58    17    18    1
    59    17    16    1
    60    51    50    1
    61    45    44    1
    62    50    49    1
    63    31    32    1
    64    31    29   am
    65    26    24    1
    66    32    33    1
    67    82    83    1
    68    28    29    1
    69    28    27    1
    70    86    83    1
    71    44    41    1
    72    25    24    1
    73    29    30    2
    74    83    84    1
    75    24    21    1
    76    33    34    2
    77    41    40    1
    78    41    42    1
    79    21    20    1
    80    21    22    1
    81    84    85    2
    82    42    43    2
    83    22    23    2
