@<TRIPOS>MOLECULE
tmp/6e4wA01.pdb
 100 91 0 0 0
SMALL
GASTEIGER

@<TRIPOS>ATOM
      1  N         56.5020  -81.1070  -39.4970 N.3     3  VAL3       -0.1245
      2  CA        55.4920  -80.0510  -39.3910 C.3     3  VAL3        0.1561
      3  C         55.7000  -79.3530  -38.0500 C.2     3  VAL3        0.2260
      4  O         55.4990  -79.9720  -37.0040 O.2     3  VAL3       -0.2867
      5  CB        54.0490  -80.5950  -39.5410 C.3     3  VAL3        0.0252
      6  CG1       53.0120  -79.4780  -39.4140 C.3     3  VAL3        0.0019
      7  CG2       53.8770  -81.3460  -40.8540 C.3     3  VAL3        0.0019
      8  N         55.0450  -81.0540  -34.5170 N.3    10  LEU10      -0.1231
      9  CA        53.7530  -81.7200  -34.4260 C.3    10  LEU10       0.1693
     10  C         53.9200  -83.1660  -34.7890 C.2    10  LEU10       0.2593
     11  O         54.6090  -83.4930  -35.7530 O.2    10  LEU10      -0.2718
     12  CB        52.7050  -81.0870  -35.3610 C.3    10  LEU10       0.0284
     13  CG        52.2170  -79.7140  -34.9980 C.3    10  LEU10       0.0019
     14  CD1       51.3450  -79.1780  -36.0730 C.3    10  LEU10       0.0001
     15  CD2       51.4760  -79.7170  -33.6840 C.3    10  LEU10       0.0001
     16  N         53.2970  -84.0060  -34.0010 N.am   11  GLY11      -0.1942
     17  CA        53.3110  -85.4370  -34.1840 C.3    11  GLY11       0.2014
     18  C         51.9330  -86.0390  -34.0640 C.2    11  GLY11       0.2638
     19  O         50.9410  -85.4700  -34.5410 O.2    11  GLY11      -0.2714
     20  N         51.8870  -87.1930  -33.3820 N.am   12  ASP12      -0.1971
     21  CA        50.7130  -88.0330  -33.1820 C.3    12  ASP12       0.1709
     22  C         49.5300  -87.3080  -32.6060 C.2    12  ASP12       0.2293
     23  O         49.6950  -86.4060  -31.8020 O.2    12  ASP12      -0.2864
     24  CB        51.0670  -89.2670  -32.3250 C.3    12  ASP12       0.1436
     25  CG        51.9280  -90.3170  -33.0310 C.2    12  ASP12       0.3671
     26  OD1       51.4170  -90.9770  -33.9820 O.co2  12  ASP12      -0.2456
     27  OD2       53.0980  -90.5150  -32.6020 O.co2  12  ASP12      -0.2456
     28  N         40.5140  -86.3830  -30.4000 N.3    16  VAL16      -0.1245
     29  CA        39.6700  -85.3600  -30.9940 C.3    16  VAL16       0.1561
     30  C         38.7280  -84.7880  -29.9320 C.2    16  VAL16       0.2260
     31  O         37.8160  -85.4710  -29.4320 O.2    16  VAL16      -0.2867
     32  CB        38.9550  -85.7710  -32.2770 C.3    16  VAL16       0.0252
     33  CG1       38.1430  -84.6110  -32.8200 C.3    16  VAL16       0.0019
     34  CG2       39.9520  -86.2410  -33.3030 C.3    16  VAL16       0.0019
     35  N         38.2520  -79.3050  -31.6370 N.3    20  GLY20      -0.1210
     36  CA        39.3840  -79.6120  -32.5170 C.3    20  GLY20       0.1956
     37  C         40.1470  -80.9120  -32.3470 C.2    20  GLY20       0.2611
     38  O         39.8350  -81.7080  -31.4640 O.2    20  GLY20      -0.2717
     39  N         41.1580  -81.1360  -33.2220 N.am   21  LYS21      -0.1979
     40  CA        42.0950  -82.2670  -33.1720 C.3    21  LYS21       0.1596
     41  C         43.1930  -81.8640  -32.1690 C.2    21  LYS21       0.2287
     42  O         43.6200  -80.6960  -32.1590 O.2    21  LYS21      -0.2864
     43  CB        42.7570  -82.4370  -34.5370 C.3    21  LYS21       0.0298
     44  CG        43.0530  -83.8600  -34.9730 C.3    21  LYS21       0.0038
     45  CD        43.5070  -83.8720  -36.4500 C.3    21  LYS21       0.0206
     46  CE        43.2310  -85.1620  -37.1900 C.3    21  LYS21       0.1093
     47  NZ        43.7770  -85.1290  -38.5830 N.3    21  LYS21      -0.1314
     48  N         47.0810  -82.7150  -31.0780 N.3    23  LYS23      -0.1245
     49  CA        48.3160  -83.3930  -31.4860 C.3    23  LYS23       0.1561
     50  C         49.4680  -83.1380  -30.5430 C.2    23  LYS23       0.2260
     51  O         49.4770  -82.1040  -29.8610 O.2    23  LYS23      -0.2867
     52  CB        48.7230  -82.9700  -32.8950 C.3    23  LYS23       0.0271
     53  CG        47.9550  -83.6910  -33.9630 C.3    23  LYS23       0.0035
     54  CD        48.0640  -82.9630  -35.2720 C.3    23  LYS23       0.0206
     55  CE        47.7140  -83.8640  -36.4060 C.3    23  LYS23       0.1093
     56  NZ        48.5820  -85.0690  -36.3940 N.3    23  LYS23      -0.1314
     57  N         44.0700  -77.8980  -32.5320 N.3    38  ILE38      -0.1245
     58  CA        43.9470  -77.2210  -33.8370 C.3    38  ILE38       0.1561
     59  C         42.4820  -76.8370  -34.0920 C.2    38  ILE38       0.2260
     60  O         41.6310  -77.7160  -34.2170 O.2    38  ILE38      -0.2867
     61  CB        44.5190  -78.0450  -35.0300 C.3    38  ILE38       0.0252
     62  CG1       45.9050  -78.6280  -34.7420 C.3    38  ILE38       0.0019
     63  CG2       44.5550  -77.1950  -36.2920 C.3    38  ILE38       0.0019
     64  CD1       46.2980  -79.7720  -35.6950 C.3    38  ILE38       0.0001
     65  N         40.1680  -74.9930  -36.7800 N.3    40  ASN40      -0.1240
     66  CA        40.0800  -74.3590  -38.0840 C.3    40  ASN40       0.1653
     67  C         39.0890  -73.2390  -37.9690 C.2    40  ASN40       0.2266
     68  O         37.9670  -73.4340  -37.4990 O.2    40  ASN40      -0.2867
     69  CB        39.7200  -75.3330  -39.2000 C.3    40  ASN40       0.1155
     70  CG        39.1540  -74.6690  -40.4190 C.2    40  ASN40       0.2627
     71  OD1       38.0010  -74.8940  -40.7600 O.2    40  ASN40      -0.2716
     72  ND2       39.9060  -73.7700  -41.0590 N.am   40  ASN40      -0.0877
     73  N         35.7020  -73.7930  -39.6930 N.3    43  LYS43      -0.1245
     74  CA        34.8350  -74.7320  -38.9840 C.3    43  LYS43       0.1561
     75  C         34.3340  -74.0590  -37.7100 C.2    43  LYS43       0.2260
     76  O         33.1270  -74.0580  -37.4940 O.2    43  LYS43      -0.2867
     77  CB        35.5490  -76.0640  -38.6920 C.3    43  LYS43       0.0271
     78  CG        34.6180  -77.2270  -38.3210 C.3    43  LYS43       0.0035
     79  CD        35.1170  -78.0110  -37.0720 C.3    43  LYS43       0.0206
     80  CE        34.5310  -79.4150  -36.9260 C.3    43  LYS43       0.1093
     81  NZ        35.1020  -80.1700  -35.7630 N.3    43  LYS43      -0.1314
     82  N         44.0430  -71.5870  -39.4340 N.3    80  ASP80      -0.1239
     83  CA        43.6340  -72.1290  -38.1270 C.3    80  ASP80       0.1674
     84  C         44.3130  -71.5080  -36.9000 C.2    80  ASP80       0.2266
     85  O         45.3190  -70.8170  -37.0080 O.2    80  ASP80      -0.2867
     86  CB        43.8640  -73.6650  -38.0860 C.3    80  ASP80       0.1410
     87  CG        43.9500  -74.3380  -39.4450 C.2    80  ASP80       0.3668
     88  OD1       45.0640  -74.4160  -40.0000 O.co2  80  ASP80      -0.2456
     89  OD2       42.8950  -74.7120  -39.9870 O.co2  80  ASP80      -0.2456
     90  N         46.0180  -72.4060  -33.1420 N.3    82  PHE82      -0.1241
     91  CA        46.7570  -73.4360  -32.4480 C.3    82  PHE82       0.1605
     92  C         46.8630  -73.1470  -30.9720 C.2    82  PHE82       0.2264
     93  O         47.5730  -72.2250  -30.5700 O.2    82  PHE82      -0.2867
     94  CB        48.1460  -73.5820  -33.0720 C.3    82  PHE82       0.0534
     95  CG        48.1650  -74.1680  -34.4640 C.ar   82  PHE82      -0.0203
     96  CD1       48.2240  -75.5450  -34.6550 C.ar   82  PHE82      -0.0042
     97  CD2       48.1480  -73.3460  -35.5820 C.ar   82  PHE82      -0.0042
     98  CE1       48.2660  -76.0870  -35.9370 C.ar   82  PHE82      -0.0003
     99  CE2       48.1790  -73.8860  -36.8610 C.ar   82  PHE82      -0.0003
    100  CZ        48.2480  -75.2550  -37.0300 C.ar   82  PHE82      -0.0000
@<TRIPOS>BOND
     1    72    70   am
     2     7     5    1
     3    71    70    2
     4    70    69    1
     5    88    87   ar
     6    89    87   ar
     7    73    74    1
     8     5     6    1
     9     5     2    1
    10     1     2    1
    11    87    86    1
    12    82    83    1
    13     2     3    1
    14    69    66    1
    15    74    77    1
    16    74    75    1
    17    77    78    1
    18    47    46    1
    19    78    79    1
    20    83    86    1
    21    83    84    1
    22    66    67    1
    23    66    65    1
    24     3     4    2
    25    67    68    2
    26    75    76    2
    27    46    45    1
    28    79    80    1
    29   100    99   ar
    30   100    98   ar
    31    85    84    2
    32    80    81    1
    33    99    97   ar
    34    45    44    1
    35    55    56    1
    36    55    54    1
    37    63    61    1
    38    14    13    1
    39    98    96   ar
    40    11    10    2
    41    64    62    1
    42    97    95   ar
    43    12    13    1
    44    12     9    1
    45    54    53    1
    46    61    62    1
    47    61    58    1
    48    13    15    1
    49    44    43    1
    50    10     9    1
    51    10    16   am
    52    96    95   ar
    53    19    18    2
    54    43    40    1
    55     8     9    1
    56    95    94    1
    57    60    59    2
    58    17    18    1
    59    17    16    1
    60    59    58    1
    61    18    20   am
    62    26    25   ar
    63    53    52    1
    64    58    57    1
    65    20    21    1
    66    34    32    1
    67    39    40    1
    68    39    37   am
    69    21    22    1
    70    21    24    1
    71    40    41    1
    72    90    91    1
    73    94    91    1
    74    25    27   ar
    75    25    24    1
    76    52    49    1
    77    33    32    1
    78    22    23    2
    79    36    37    1
    80    36    35    1
    81    91    92    1
    82    37    38    2
    83    32    29    1
    84    41    42    2
    85    49    48    1
    86    49    50    1
    87    29    28    1
    88    29    30    1
    89    92    93    2
    90    50    51    2
    91    30    31    2
