@<TRIPOS>MOLECULE
tmp/6e4wB00.pdb
 83 76 0 0 0
SMALL
GASTEIGER

@<TRIPOS>ATOM
      1  N         49.5850  -72.1580  -42.8140 N.3     3  VAL3       -0.1245
      2  CA        49.3130  -73.6020  -42.9720 C.3     3  VAL3        0.1561
      3  C         48.9550  -73.8890  -44.4360 C.2     3  VAL3        0.2260
      4  O         48.1760  -73.1370  -45.0310 O.2     3  VAL3       -0.2867
      5  CB        48.1970  -74.1040  -42.0130 C.3     3  VAL3        0.0252
      6  CG1       47.8780  -75.5720  -42.2350 C.3     3  VAL3        0.0019
      7  CG2       48.5650  -73.8600  -40.5560 C.3     3  VAL3        0.0019
      8  N         47.4400  -76.9800  -46.4530 N.3     5  ARG5       -0.1245
      9  CA        46.8860  -78.3120  -46.3210 C.3     5  ARG5        0.1563
     10  C         46.1840  -78.8060  -47.5760 C.2     5  ARG5        0.2260
     11  O         45.3340  -78.0970  -48.1190 O.2     5  ARG5       -0.2867
     12  CB        45.9620  -78.3670  -45.1020 C.3     5  ARG5        0.0307
     13  CG        46.0680  -79.6460  -44.2900 C.3     5  ARG5        0.0489
     14  CD        45.2060  -79.5900  -43.0500 C.3     5  ARG5        0.2205
     15  NE        43.7960  -79.8530  -43.3530 N.pl3   5  ARG5       -0.0865
     16  CZ        42.8130  -78.9650  -43.2150 C.cat   5  ARG5        0.5346
     17  NH1       43.0750  -77.7320  -42.7830 N.pl3   5  ARG5        0.1354
     18  NH2       41.5590  -79.3060  -43.4950 N.pl3   5  ARG5        0.1354
     19  N         43.7150  -81.6360  -48.7800 N.3     7  THR7       -0.1218
     20  CA        42.7260  -82.6480  -48.4080 C.3     7  THR7        0.1862
     21  C         42.3880  -83.3540  -49.6900 C.2     7  THR7        0.2287
     22  O         41.9850  -82.7230  -50.6860 O.2     7  THR7       -0.2866
     23  CB        41.4970  -82.0360  -47.8120 C.3     7  THR7        0.1770
     24  OG1       41.8970  -80.9650  -46.9820 O.3     7  THR7       -0.2211
     25  CG2       40.7210  -83.0190  -47.0090 C.3     7  THR7        0.0375
     26  N         53.9520  -83.4060  -45.7570 N.3    28  THR28      -0.1203
     27  CA        53.8260  -84.6100  -44.9440 C.3    28  THR28       0.1994
     28  C         52.3450  -85.0200  -44.8370 C.2    28  THR28       0.2617
     29  O         51.4910  -84.1540  -44.6740 O.2    28  THR28      -0.2717
     30  CB        54.4310  -84.3270  -43.5570 C.3    28  THR28       0.1784
     31  OG1       55.7000  -83.6780  -43.6980 O.3    28  THR28      -0.2211
     32  CG2       54.6000  -85.5750  -42.7350 C.3    28  THR28       0.0376
     33  N         52.0430  -86.3360  -44.9370 N.am   29  ARG29      -0.1979
     34  CA        50.6680  -86.8500  -44.7780 C.3    29  ARG29       0.1597
     35  C         50.4850  -87.4420  -43.3890 C.2    29  ARG29       0.2287
     36  O         51.3100  -88.2470  -42.9370 O.2    29  ARG29      -0.2864
     37  CB        50.2810  -87.9330  -45.8400 C.3    29  ARG29       0.0334
     38  CG        48.8310  -88.5310  -45.6720 C.3    29  ARG29       0.0492
     39  CD        48.3480  -89.5340  -46.7310 C.3    29  ARG29       0.2205
     40  NE        49.0920  -90.7970  -46.7070 N.pl3  29  ARG29      -0.0865
     41  CZ        50.0220  -91.1570  -47.5970 C.cat  29  ARG29       0.5346
     42  NH1       50.3230  -90.3630  -48.6160 N.pl3  29  ARG29       0.1354
     43  NH2       50.6480  -92.3200  -47.4780 N.pl3  29  ARG29       0.1354
     44  N         46.9980  -88.4800  -42.6050 N.3    30  GLN30      -0.1231
     45  CA        45.9270  -89.3230  -43.1420 C.3    30  GLN30       0.1698
     46  C         45.0090  -88.3710  -43.8770 C.2    30  GLN30       0.2592
     47  O         44.5430  -87.4160  -43.2400 O.2    30  GLN30      -0.2718
     48  CB        45.1550  -90.0180  -41.9840 C.3    30  GLN30       0.0381
     49  CG        43.7010  -90.4250  -42.2800 C.3    30  GLN30       0.0905
     50  CD        42.7260  -89.8420  -41.2830 C.2    30  GLN30       0.2608
     51  OE1       42.1030  -88.8010  -41.5120 O.2    30  GLN30      -0.2717
     52  NE2       42.5640  -90.5070  -40.1550 N.am   30  GLN30      -0.0878
     53  N         44.7750  -88.6030  -45.2140 N.am   31  ASN31      -0.1960
     54  CA        43.8580  -87.8460  -46.1060 C.3    31  ASN31       0.1819
     55  C         44.2170  -86.3200  -46.2570 C.2    31  ASN31       0.2621
     56  O         43.8120  -85.6820  -47.2460 O.2    31  ASN31      -0.2715
     57  CB        42.3920  -88.0790  -45.6360 C.3    31  ASN31       0.1195
     58  CG        41.4060  -86.9570  -45.7710 C.2    31  ASN31       0.2630
     59  OD1       40.9660  -86.6380  -46.8690 O.2    31  ASN31      -0.2716
     60  ND2       40.9630  -86.4040  -44.6440 N.am   31  ASN31      -0.0877
     61  N         45.0070  -85.7820  -45.2710 N.am   32  ASN32      -0.1972
     62  CA        45.5270  -84.4230  -45.0950 C.3    32  ASN32       0.1688
     63  C         47.0550  -84.4320  -45.2120 C.2    32  ASN32       0.2292
     64  O         47.7330  -85.1720  -44.4790 O.2    32  ASN32      -0.2864
     65  CB        45.1330  -83.8630  -43.7070 C.3    32  ASN32       0.1181
     66  CG        43.6890  -83.4430  -43.5480 C.2    32  ASN32       0.2629
     67  OD1       43.1080  -82.7530  -44.3930 O.2    32  ASN32      -0.2716
     68  ND2       43.1000  -83.7880  -42.4120 N.am   32  ASN32      -0.0877
     69  N         50.1660  -81.7480  -45.1410 N.3    34  VAL34      -0.1245
     70  CA        50.3890  -80.3960  -44.6630 C.3    34  VAL34       0.1561
     71  C         51.8660  -79.9660  -44.5340 C.2    34  VAL34       0.2260
     72  O         52.7780  -80.7980  -44.4630 O.2    34  VAL34      -0.2867
     73  CB        49.6330  -80.2460  -43.3270 C.3    34  VAL34       0.0252
     74  CG1       50.4080  -80.8690  -42.1750 C.3    34  VAL34       0.0019
     75  CG2       49.3090  -78.7980  -43.0380 C.3    34  VAL34       0.0019
     76  N         53.5200  -76.1210  -42.6560 N.3    36  ILE36      -0.1245
     77  CA        53.3880  -74.8100  -42.0230 C.3    36  ILE36       0.1561
     78  C         54.7210  -74.1140  -42.3080 C.2    36  ILE36       0.2260
     79  O         55.7600  -74.7630  -42.2170 O.2    36  ILE36      -0.2867
     80  CB        53.1160  -74.9680  -40.4930 C.3    36  ILE36       0.0252
     81  CG1       51.7710  -75.6900  -40.2400 C.3    36  ILE36       0.0019
     82  CG2       53.1670  -73.6180  -39.7660 C.3    36  ILE36       0.0019
     83  CD1       51.4560  -76.0640  -38.7590 C.3    36  ILE36       0.0001
@<TRIPOS>BOND
     1    22    21    2
     2    21    20    1
     3    19    20    1
     4    42    41    1
     5    20    23    1
     6    11    10    2
     7    23    25    1
     8    23    24    1
     9    41    43    1
    10    41    40    2
    11    10     9    1
    12    56    55    2
    13    59    58    2
    14    39    40    1
    15    39    38    1
    16     8     9    1
    17     9    12    1
    18    55    54    1
    19    55    61   am
    20    54    57    1
    21    54    53    1
    22    37    38    1
    23    37    34    1
    24    58    57    1
    25    58    60   am
    26    26    27    1
    27    61    62    1
    28    53    46   am
    29    63    62    1
    30    63    64    2
    31    69    70    1
    32    12    13    1
    33    62    65    1
    34     4     3    2
    35    27    28    1
    36    27    30    1
    37    33    28   am
    38    33    34    1
    39    28    29    2
    40    34    35    1
    41    70    71    1
    42    70    73    1
    43    71    72    2
    44     3     2    1
    45    67    66    2
    46    13    14    1
    47    46    47    2
    48    46    45    1
    49    65    66    1
    50    31    30    1
    51    30    32    1
    52    66    68   am
    53    18    16    1
    54    35    36    2
    55    15    16    2
    56    15    14    1
    57    73    75    1
    58    73    74    1
    59    16    17    1
    60    45    44    1
    61    45    48    1
    62     2     1    1
    63     2     5    1
    64    76    77    1
    65    78    79    2
    66    78    77    1
    67    49    48    1
    68    49    50    1
    69     6     5    1
    70    77    80    1
    71     5     7    1
    72    51    50    2
    73    50    52   am
    74    80    81    1
    75    80    82    1
    76    81    83    1
