@<TRIPOS>MOLECULE
tmp/6e59A00.pdb
 211 206 0 0 0
SMALL
GASTEIGER

@<TRIPOS>ATOM
      1  N         -7.2100   48.2100   50.7700 N.3    59  THR59      -0.1218
      2  CA        -8.3720   47.8930   51.6280 C.3    59  THR59       0.1862
      3  C         -8.3570   46.4710   52.2450 C.2    59  THR59       0.2287
      4  O         -8.6790   46.2900   53.4460 O.2    59  THR59      -0.2866
      5  CB        -9.6560   48.1810   50.8400 C.3    59  THR59       0.1770
      6  OG1       -9.5020   49.4240   50.1510 O.3    59  THR59      -0.2211
      7  CG2      -10.8950   48.2350   51.7060 C.3    59  THR59       0.0375
      8  N         -8.6940   45.4770   56.1730 N.3    63  PHE63      -0.1298
      9  CA        -9.9240   44.9460   56.7820 C.3    63  PHE63       0.1290
     10  C         -9.6690   43.5370   57.3220 C.3    63  PHE63       0.2013
     11  O        -10.2500   43.1480   58.4140 O.3    63  PHE63      -0.2188
     12  CB       -11.1190   45.0040   55.8410 C.3    63  PHE63       0.0480
     13  CG       -11.8140   46.3380   55.8730 C.ar   63  PHE63      -0.0206
     14  CD1      -12.7100   46.6500   56.8850 C.ar   63  PHE63      -0.0042
     15  CD2      -11.5390   47.2960   54.9130 C.ar   63  PHE63      -0.0042
     16  CE1      -13.3490   47.8800   56.9110 C.ar   63  PHE63      -0.0003
     17  CE2      -12.1760   48.5290   54.9430 C.ar   63  PHE63      -0.0003
     18  CZ       -13.0750   48.8210   55.9450 C.ar   63  PHE63      -0.0000
     19  N         -5.9930   54.0310   55.5600 N.3    81  HIS81      -0.1226
     20  CA        -6.9570   52.9410   55.2940 C.3    81  HIS81       0.1752
     21  C         -8.3950   53.4400   55.4520 C.2    81  HIS81       0.2596
     22  O         -9.3430   52.9060   54.8090 O.2    81  HIS81      -0.2718
     23  CB        -6.7020   51.7890   56.2750 C.3    81  HIS81       0.0759
     24  CG        -7.9200   51.0140   56.6490 C.ar   81  HIS81       0.0818
     25  ND1       -8.6690   51.3040   57.7770 N.ar   81  HIS81      -0.2268
     26  CD2       -8.5290   49.9750   56.0490 C.ar   81  HIS81       0.1154
     27  CE1       -9.6810   50.4670   57.8570 C.ar   81  HIS81       0.1986
     28  NE2       -9.6120   49.6410   56.8120 N.ar   81  HIS81      -0.2212
     29  N         -8.5640   54.3820   56.3610 N.am   82  ASN82      -0.1974
     30  CA        -9.8680   55.0210   56.6100 C.3    82  ASN82       0.1688
     31  C        -10.1460   56.0760   55.5670 C.2    82  ASN82       0.2292
     32  O        -11.3430   56.2420   55.1480 O.2    82  ASN82      -0.2864
     33  CB        -9.9890   55.6260   58.0080 C.3    82  ASN82       0.1181
     34  CG       -11.3380   56.2830   58.2080 C.2    82  ASN82       0.2629
     35  OD1      -11.4430   57.5060   58.2680 O.2    82  ASN82      -0.2716
     36  ND2      -12.3760   55.4800   58.3360 N.am   82  ASN82      -0.0877
     37  N        -10.3670   54.5960   50.7700 N.3    85  PRO85      -0.2102
     38  CA       -11.4480   53.9720   50.0220 C.3    85  PRO85       0.1504
     39  C        -12.5070   54.9430   49.5110 C.2    85  PRO85       0.2575
     40  O        -13.0470   54.8370   48.3820 O.2    85  PRO85      -0.2718
     41  CB       -12.1140   53.0540   51.0570 C.3    85  PRO85       0.0282
     42  CG       -11.0320   52.7890   52.0690 C.3    85  PRO85       0.0208
     43  CD       -10.2760   54.1000   52.1530 C.3    85  PRO85       0.0893
     44  N        -12.6690   56.0100   50.2900 N.am   86  ILE86      -0.1980
     45  CA       -13.5700   57.1440   49.9710 C.3    86  ILE86       0.1595
     46  C        -13.0870   57.8950   48.7480 C.2    86  ILE86       0.2287
     47  O        -13.8900   58.1010   47.8220 O.2    86  ILE86      -0.2864
     48  CB       -13.7810   58.0930   51.1730 C.3    86  ILE86       0.0276
     49  CG1      -14.4640   57.3800   52.3460 C.3    86  ILE86       0.0022
     50  CG2      -14.5600   59.3280   50.7350 C.3    86  ILE86       0.0022
     51  CD1      -14.9940   58.3080   53.4190 C.3    86  ILE86       0.0001
     52  N        -12.9840   55.2780   45.4990 N.3    89  VAL89      -0.1245
     53  CA       -14.3190   54.9320   44.9610 C.3    89  VAL89       0.1561
     54  C        -14.9410   56.1810   44.3520 C.2    89  VAL89       0.2260
     55  O        -15.6320   56.0690   43.3230 O.2    89  VAL89      -0.2867
     56  CB       -15.2260   54.2920   46.0280 C.3    89  VAL89       0.0252
     57  CG1      -16.6900   54.2340   45.6020 C.3    89  VAL89       0.0019
     58  CG2      -14.7190   52.9060   46.3860 C.3    89  VAL89       0.0019
     59  N        -12.4910   63.1840   57.6020 N.3   138  GLN138     -0.1245
     60  CA       -12.7080   61.9580   58.3890 C.3   138  GLN138      0.1566
     61  C        -11.3710   61.2550   58.4580 C.2   138  GLN138      0.2260
     62  O        -11.0180   60.6630   59.4510 O.2   138  GLN138     -0.2867
     63  CB       -13.7670   61.0610   57.7250 C.3   138  GLN138      0.0367
     64  CG       -14.0170   59.7430   58.4490 C.3   138  GLN138      0.0905
     65  CD       -14.9190   58.8230   57.6630 C.2   138  GLN138      0.2608
     66  OE1      -14.5290   57.7220   57.2720 O.2   138  GLN138     -0.2717
     67  NE2      -16.1270   59.2910   57.3910 N.am  138  GLN138     -0.0878
     68  N        -12.8180   57.6150   64.2980 N.3   155  ILE155     -0.1231
     69  CA       -12.9440   59.0480   63.9240 C.3   155  ILE155      0.1692
     70  C        -14.2520   59.5930   64.4580 C.2   155  ILE155      0.2591
     71  O        -15.3180   59.2480   63.8920 O.2   155  ILE155     -0.2718
     72  CB       -12.9070   59.2250   62.3930 C.3   155  ILE155      0.0266
     73  CG1      -11.8790   58.3110   61.7220 C.3   155  ILE155      0.0019
     74  CG2      -12.7180   60.6920   62.0520 C.3   155  ILE155      0.0020
     75  CD1      -12.4230   56.9620   61.3140 C.3   155  ILE155      0.0001
     76  N        -14.1920   60.5310   65.4200 N.am  156  GLU156     -0.1979
     77  CA       -15.3980   61.1130   66.0370 C.3   156  GLU156      0.1602
     78  C        -15.0920   62.5000   66.6000 C.2   156  GLU156      0.2287
     79  O        -13.9240   62.8330   66.8160 O.2   156  GLU156     -0.2864
     80  CB       -15.9340   60.1960   67.1460 C.3   156  GLU156      0.0415
     81  CG       -16.8100   59.0480   66.6580 C.3   156  GLU156      0.1163
     82  CD       -16.0880   57.7740   66.2290 C.2   156  GLU156      0.3649
     83  OE1      -14.9140   57.6160   66.6100 O.co2 156  GLU156     -0.2457
     84  OE2      -16.6930   56.9360   65.5100 O.co2 156  GLU156     -0.2457
     85  N        -22.3510   62.6140   63.2480 N.3   166  GLU166     -0.1245
     86  CA       -22.1030   61.3550   62.5140 C.3   166  GLU166      0.1567
     87  C        -23.0760   61.1540   61.3640 C.2   166  GLU166      0.2260
     88  O        -22.6290   60.8960   60.2190 O.2   166  GLU166     -0.2867
     89  CB       -22.1620   60.1400   63.4430 C.3   166  GLU166      0.0388
     90  CG       -21.1300   60.1590   64.5620 C.3   166  GLU166      0.1160
     91  CD       -19.7560   59.6300   64.1990 C.2   166  GLU166      0.3649
     92  OE1      -19.1020   60.2170   63.3220 O.co2 166  GLU166     -0.2457
     93  OE2      -19.3400   58.6170   64.7970 O.co2 166  GLU166     -0.2457
     94  N        -22.3560   63.5010   58.3240 N.3   169  TYR169     -0.1227
     95  CA       -21.1450   63.2730   57.5070 C.3   169  TYR169      0.1736
     96  C        -21.3190   61.9940   56.6960 C.2   169  TYR169      0.2595
     97  O        -21.0110   61.9110   55.5010 O.2   169  TYR169     -0.2718
     98  CB       -19.8530   63.2670   58.3230 C.3   169  TYR169      0.0548
     99  CG       -18.6300   63.1070   57.4570 C.ar  169  TYR169     -0.0200
    100  CD1      -18.1960   61.8440   57.0790 C.ar  169  TYR169     -0.0009
    101  CD2      -17.9390   64.2070   56.9740 C.ar  169  TYR169     -0.0009
    102  CE1      -17.0900   61.6720   56.2680 C.ar  169  TYR169      0.0417
    103  CE2      -16.8290   64.0510   56.1610 C.ar  169  TYR169      0.0417
    104  CZ       -16.4080   62.7800   55.8080 C.ar  169  TYR169      0.1957
    105  OH       -15.3180   62.5600   55.0240 O.3   169  TYR169     -0.2866
    106  N        -21.8130   60.9910   57.3960 N.am  170  HIS170     -0.1975
    107  CA       -22.0450   59.6130   56.9060 C.3   170  HIS170      0.1656
    108  C        -22.9460   59.6410   55.6730 C.2   170  HIS170      0.2291
    109  O        -22.6630   59.0010   54.6420 O.2   170  HIS170     -0.2864
    110  CB       -22.6140   58.7940   58.0800 C.3   170  HIS170      0.0771
    111  CG       -23.3520   57.5580   57.7000 C.ar  170  HIS170      0.0820
    112  ND1      -24.5610   57.6040   57.0400 N.ar  170  HIS170     -0.2267
    113  CD2      -23.0950   56.2540   57.9400 C.ar  170  HIS170      0.1154
    114  CE1      -24.9940   56.3820   56.8530 C.ar  170  HIS170      0.1986
    115  NE2      -24.1160   55.5310   57.3960 N.ar  170  HIS170     -0.2212
    116  N        -21.3700   61.5570   52.4940 N.3   173  VAL173     -0.1231
    117  CA       -20.4030   60.7850   51.6770 C.3   173  VAL173      0.1692
    118  C        -21.1170   59.6210   51.0090 C.2   173  VAL173      0.2592
    119  O        -20.7410   59.2370   49.8860 O.2   173  VAL173     -0.2718
    120  CB       -19.1940   60.3050   52.5110 C.3   173  VAL173      0.0266
    121  CG1      -19.5880   59.3670   53.6440 C.3   173  VAL173      0.0020
    122  CG2      -18.1260   59.6510   51.6460 C.3   173  VAL173      0.0020
    123  N        -22.1180   59.0700   51.6870 N.am  174  THR174     -0.1953
    124  CA       -22.8770   57.9270   51.1290 C.3   174  THR174      0.1897
    125  C        -23.6620   58.3710   49.9150 C.2   174  THR174      0.2313
    126  O        -23.5880   57.7150   48.8860 O.2   174  THR174     -0.2863
    127  CB       -23.8600   57.3690   52.1670 C.3   174  THR174      0.1794
    128  OG1      -23.1280   56.7570   53.2300 O.3   174  THR174     -0.2208
    129  CG2      -24.8300   56.3680   51.5850 C.3   174  THR174      0.0378
    130  N        -21.1590   59.5540   47.0390 N.3   177  ILE177     -0.1245
    131  CA       -20.2880   58.5330   46.4240 C.3   177  ILE177      0.1561
    132  C        -21.1150   57.3960   45.8580 C.2   177  ILE177      0.2260
    133  O        -20.5330   56.6640   45.1150 O.2   177  ILE177     -0.2867
    134  CB       -19.2300   58.0060   47.4050 C.3   177  ILE177      0.0252
    135  CG1      -17.9400   57.6620   46.6610 C.3   177  ILE177      0.0019
    136  CG2      -19.7650   56.8240   48.2000 C.3   177  ILE177      0.0019
    137  CD1      -16.8040   57.2750   47.5710 C.3   177  ILE177      0.0001
    138  N        -22.2020   47.4120   46.1610 N.3   420  TRP420     -0.1241
    139  CA       -22.0370   48.4330   47.2150 C.3   420  TRP420      0.1605
    140  C        -23.3590   48.7940   47.8790 C.2   420  TRP420      0.2264
    141  O        -23.3670   49.6250   48.7840 O.2   420  TRP420     -0.2867
    142  CB       -21.3860   49.6920   46.6330 C.3   420  TRP420      0.0550
    143  CG       -19.9740   49.4900   46.1790 C.ar  420  TRP420      0.0003
    144  CD1      -19.5730   49.1010   44.9370 C.ar  420  TRP420      0.0946
    145  CD2      -18.7710   49.6730   46.9470 C.ar  420  TRP420      0.0152
    146  NE1      -18.2090   49.0310   44.8750 N.ar  420  TRP420     -0.2442
    147  CE2      -17.6880   49.3770   46.0910 C.ar  420  TRP420      0.0810
    148  CE3      -18.4970   50.0550   48.2650 C.ar  420  TRP420      0.0012
    149  CZ2      -16.3610   49.4430   46.5110 C.ar  420  TRP420      0.0191
    150  CZ3      -17.1840   50.1310   48.6780 C.ar  420  TRP420      0.0001
    151  CH2      -16.1310   49.8250   47.8130 C.ar  420  TRP420      0.0015
    152  N        -23.4020   47.1610   51.3750 N.3   423  PHE423     -0.1227
    153  CA       -22.3300   47.7490   52.1830 C.3   423  PHE423      0.1736
    154  C        -22.8010   49.0180   52.8710 C.2   423  PHE423      0.2595
    155  O        -22.6030   49.2130   54.0660 O.2   423  PHE423     -0.2718
    156  CB       -21.0210   47.9470   51.4110 C.3   423  PHE423      0.0547
    157  CG       -19.7760   47.9180   52.2710 C.ar  423  PHE423     -0.0202
    158  CD1      -19.6870   47.0970   53.3890 C.ar  423  PHE423     -0.0042
    159  CD2      -18.6730   48.6900   51.9450 C.ar  423  PHE423     -0.0042
    160  CE1      -18.5350   47.0600   54.1600 C.ar  423  PHE423     -0.0003
    161  CE2      -17.5230   48.6530   52.7170 C.ar  423  PHE423     -0.0003
    162  CZ       -17.4550   47.8410   53.8240 C.ar  423  PHE423     -0.0000
    163  N        -23.5730   49.8350   52.1310 N.am  424  HIS424     -0.1975
    164  CA       -24.0390   51.1480   52.6330 C.3   424  HIS424      0.1656
    165  C        -25.2500   51.0090   53.5410 C.2   424  HIS424      0.2291
    166  O        -25.2570   51.6150   54.6360 O.2   424  HIS424     -0.2864
    167  CB       -24.3530   52.0710   51.4420 C.3   424  HIS424      0.0771
    168  CG       -23.1320   52.6130   50.7860 C.ar  424  HIS424      0.0820
    169  ND1      -22.4140   51.8920   49.8610 N.ar  424  HIS424     -0.2267
    170  CD2      -22.4860   53.7870   50.9400 C.ar  424  HIS424      0.1154
    171  CE1      -21.3830   52.6070   49.4560 C.ar  424  HIS424      0.1986
    172  NE2      -21.4080   53.7750   50.1010 N.ar  424  HIS424     -0.2212
    173  N        -24.3040   49.9000   56.9170 N.3   427  PHE427     -0.1227
    174  CA       -23.7970   50.9820   57.7790 C.3   427  PHE427      0.1736
    175  C        -24.8660   52.0130   58.1130 C.2   427  PHE427      0.2595
    176  O        -24.7250   52.7240   59.1020 O.2   427  PHE427     -0.2718
    177  CB       -22.5810   51.6520   57.1340 C.3   427  PHE427      0.0547
    178  CG       -21.2700   50.9370   57.3620 C.ar  427  PHE427     -0.0202
    179  CD1      -21.0010   49.7260   56.7440 C.ar  427  PHE427     -0.0042
    180  CD2      -20.3000   51.4750   58.1900 C.ar  427  PHE427     -0.0042
    181  CE1      -19.7930   49.0730   56.9440 C.ar  427  PHE427     -0.0003
    182  CE2      -19.0900   50.8260   58.3880 C.ar  427  PHE427     -0.0003
    183  CZ       -18.8410   49.6210   57.7720 C.ar  427  PHE427     -0.0000
    184  N        -25.9140   52.0590   57.2940 N.am  428  LEU428     -0.1980
    185  CA       -26.9800   53.0840   57.3950 C.3   428  LEU428      0.1596
    186  C        -28.0690   52.6520   58.3740 C.2   428  LEU428      0.2287
    187  O        -28.9010   53.5300   58.7630 O.2   428  LEU428     -0.2864
    188  CB       -27.6530   53.2540   56.0170 C.3   428  LEU428      0.0297
    189  CG       -27.2800   54.4620   55.1470 C.3   428  LEU428      0.0022
    190  CD1      -25.8860   54.3180   54.5440 C.3   428  LEU428      0.0001
    191  CD2      -28.3000   54.6550   54.0360 C.3   428  LEU428      0.0001
    192  N        -29.6930   53.3400   63.0440 N.3   431  TYR431     -0.1298
    193  CA       -29.8860   54.7960   63.2440 C.3   431  TYR431      0.1290
    194  C        -31.3450   55.1220   63.5640 C.3   431  TYR431      0.2013
    195  O        -31.7250   55.6170   64.6910 O.3   431  TYR431     -0.2188
    196  CB       -29.4790   55.5630   61.9830 C.3   431  TYR431      0.0480
    197  CG       -27.9960   55.7400   61.7820 C.ar  431  TYR431     -0.0204
    198  CD1      -27.1960   54.7100   61.3120 C.ar  431  TYR431     -0.0009
    199  CD2      -27.3960   56.9600   62.0410 C.ar  431  TYR431     -0.0009
    200  CE1      -25.8340   54.8960   61.1100 C.ar  431  TYR431      0.0417
    201  CE2      -26.0390   57.1610   61.8480 C.ar  431  TYR431      0.0417
    202  CZ       -25.2520   56.1260   61.3810 C.ar  431  TYR431      0.1957
    203  OH       -23.9200   56.3590   61.2000 O.3   431  TYR431     -0.2866
    204  N        -16.1070   44.4910   48.0080 N.3   454  MET454     -0.1245
    205  CA       -14.6960   44.5380   47.5810 C.3   454  MET454      0.1570
    206  C        -14.5130   43.7420   46.2880 C.2   454  MET454      0.2261
    207  O        -13.5790   44.0220   45.5090 O.2   454  MET454     -0.2867
    208  CB       -13.7870   43.9400   48.6630 C.3   454  MET454      0.0387
    209  CG       -13.7280   44.7540   49.9540 C.3   454  MET454      0.0595
    210  SD       -13.0860   46.4290   49.7340 S.3   454  MET454     -0.1393
    211  CE       -11.4380   46.0730   49.1270 C.3   454  MET454      0.0692
@<TRIPOS>BOND
     1    55    54    2
     2    54    53    1
     3   146   144   ar
     4   146   147   ar
     5   144   143   ar
     6    53    52    1
     7    53    56    1
     8   133   132    2
     9   207   206    2
    10    57    56    1
    11   132   131    1
    12    56    58    1
    13   147   149   ar
    14   147   145   ar
    15   138   139    1
    16   143   142    1
    17   143   145   ar
    18   206   205    1
    19   131   130    1
    20   131   134    1
    21   149   151   ar
    22   142   139    1
    23   135   134    1
    24   135   137    1
    25   145   148   ar
    26   139   140    1
    27   134   136    1
    28   205   204    1
    29   205   208    1
    30   151   150   ar
    31    47    46    2
    32   140   141    2
    33   148   150   ar
    34    40    39    2
    35   208   209    1
    36    46    45    1
    37   126   125    2
    38   211   210    1
    39   171   169   ar
    40   171   172   ar
    41    39    38    1
    42    39    44   am
    43   210   209    1
    44   169   168   ar
    45   119   118    2
    46   125   124    1
    47    45    44    1
    48    45    48    1
    49    38    37    1
    50    38    41    1
    51   172   170   ar
    52     6     5    1
    53    50    48    1
    54     1     2    1
    55    37    43    1
    56   168   170   ar
    57   168   167    1
    58     5     2    1
    59     5     7    1
    60   118   117    1
    61   118   123   am
    62    41    42    1
    63   124   123    1
    64   124   127    1
    65    48    49    1
    66   152   153    1
    67   156   153    1
    68   156   157    1
    69   167   164    1
    70   129   127    1
    71     2     3    1
    72   122   120    1
    73   117   116    1
    74   117   120    1
    75   159   157   ar
    76   159   161   ar
    77    42    43    1
    78   163   164    1
    79   163   154   am
    80   127   128    1
    81   153   154    1
    82     3     4    2
    83   157   158   ar
    84    49    51    1
    85   120   121    1
    86   164   165    1
    87   161   162   ar
    88   154   155    2
    89   158   160   ar
    90   165   166    2
    91   162   160   ar
    92   191   189    1
    93   190   189    1
    94   109   108    2
    95    22    21    2
    96    15    17   ar
    97    15    13   ar
    98    17    18   ar
    99   105   104    1
   100   189   188    1
   101    32    31    2
   102    20    21    1
   103    20    19    1
   104    20    23    1
   105    21    29   am
   106    97    96    2
   107    31    30    1
   108   108   107    1
   109   104   103   ar
   110   104   102   ar
   111    12    13    1
   112    12     9    1
   113    13    14   ar
   114    18    16   ar
   115   188   185    1
   116    26    24   ar
   117    26    28   ar
   118   103   101   ar
   119     8     9    1
   120   102   100   ar
   121    23    24    1
   122    29    30    1
   123    30    33    1
   124    24    25   ar
   125    96   106   am
   126    96    95    1
   127   179   181   ar
   128   179   178   ar
   129     9    10    1
   130    28    27   ar
   131   114   112   ar
   132   114   115   ar
   133    14    16   ar
   134   107   106    1
   135   107   110    1
   136   173   174    1
   137   181   183   ar
   138   101    99   ar
   139   112   111   ar
   140   100    99   ar
   141   177   178    1
   142   177   174    1
   143    66    65    2
   144   184   185    1
   145   184   175   am
   146    10    11    1
   147   178   180   ar
   148    67    65   am
   149   185   186    1
   150   115   113   ar
   151    99    98    1
   152    95    98    1
   153    95    94    1
   154    59    60    1
   155    65    64    1
   156   111   113   ar
   157   111   110    1
   158    63    60    1
   159    63    64    1
   160   183   182   ar
   161    25    27   ar
   162   174   175    1
   163    33    34    1
   164   175   176    2
   165   180   182   ar
   166    34    35    2
   167    34    36   am
   168   186   187    2
   169    60    61    1
   170    61    62    2
   171    88    87    2
   172   200   198   ar
   173   200   202   ar
   174   203   202    1
   175   198   197   ar
   176    75    73    1
   177    87    86    1
   178   202   201   ar
   179    73    72    1
   180   197   196    1
   181   197   199   ar
   182   201   199   ar
   183   196   193    1
   184    74    72    1
   185    72    69    1
   186    86    85    1
   187    86    89    1
   188   192   193    1
   189   193   194    1
   190    92    91   ar
   191    89    90    1
   192   194   195    1
   193    71    70    2
   194    69    68    1
   195    69    70    1
   196    91    90    1
   197    91    93   ar
   198    70    76   am
   199    76    77    1
   200    84    82   ar
   201    77    78    1
   202    77    80    1
   203    82    83   ar
   204    82    81    1
   205    78    79    2
   206    81    80    1
