@<TRIPOS>MOLECULE
tmp/6e5aB00.pdb
 172 165 0 0 0
SMALL
GASTEIGER

@<TRIPOS>ATOM
      1  N         19.4670   -4.2340  161.7760 N.3    54  PHE54      -0.1227
      2  CA        18.8160   -3.2400  160.9290 C.3    54  PHE54       0.1736
      3  C         19.3710   -3.1540  159.5150 C.2    54  PHE54       0.2595
      4  O         19.7220   -4.1620  158.8940 O.2    54  PHE54      -0.2718
      5  CB        18.9330   -1.8490  161.5520 C.3    54  PHE54       0.0547
      6  CG        18.2590   -1.7170  162.8710 C.ar   54  PHE54      -0.0202
      7  CD1       18.9320   -2.0350  164.0280 C.ar   54  PHE54      -0.0042
      8  CD2       16.9540   -1.2650  162.9560 C.ar   54  PHE54      -0.0042
      9  CE1       18.3220   -1.9160  165.2370 C.ar   54  PHE54      -0.0003
     10  CE2       16.3330   -1.1410  164.1790 C.ar   54  PHE54      -0.0003
     11  CZ        17.0210   -1.4660  165.3230 C.ar   54  PHE54      -0.0000
     12  N         19.4190   -1.9240  159.0070 N.am   55  LYS55      -0.1966
     13  CA        20.0060   -1.5870  157.7200 C.3    55  LYS55       0.1728
     14  C         20.3920   -0.1150  157.7560 C.2    55  LYS55       0.2616
     15  O         21.1740    0.3580  156.9250 O.2    55  LYS55      -0.2715
     16  CB        19.0310   -1.8780  156.5820 C.3    55  LYS55       0.0311
     17  CG        18.1230   -0.7160  156.2080 C.3    55  LYS55       0.0038
     18  CD        17.0940   -1.1650  155.1870 C.3    55  LYS55       0.0206
     19  CE        17.7360   -2.0510  154.1280 C.3    55  LYS55       0.1093
     20  NZ        16.7470   -2.9890  153.5370 N.3    55  LYS55      -0.1314
     21  N         19.8350    0.6140  158.7240 N.am   56  HIS56      -0.1973
     22  CA        20.2810    1.9640  159.0350 C.3    56  HIS56       0.1656
     23  C         21.5110    1.9770  159.9320 C.2    56  HIS56       0.2291
     24  O         22.0430    3.0560  160.2110 O.2    56  HIS56      -0.2864
     25  CB        19.1500    2.7510  159.7050 C.3    56  HIS56       0.0771
     26  CG        19.0740    2.5760  161.1950 C.ar   56  HIS56       0.0820
     27  ND1       18.3600    1.5670  161.7950 N.ar   56  HIS56      -0.2267
     28  CD2       19.5730    3.3150  162.2120 C.ar   56  HIS56       0.1154
     29  CE1       18.4120    1.6810  163.1070 C.ar   56  HIS56       0.1986
     30  NE2       19.1450    2.7400  163.3820 N.ar   56  HIS56      -0.2212
     31  N         19.1160    8.0740  159.4410 N.3    64  ILE64      -0.1231
     32  CA        17.7250    7.6400  159.3390 C.3    64  ILE64       0.1692
     33  C         17.2440    7.7480  157.8960 C.2    64  ILE64       0.2592
     34  O         16.5840    6.8410  157.3730 O.2    64  ILE64      -0.2718
     35  CB        16.8390    8.4530  160.3010 C.3    64  ILE64       0.0266
     36  CG1       17.3040    8.2500  161.7410 C.3    64  ILE64       0.0019
     37  CG2       15.3820    8.0500  160.1600 C.3    64  ILE64       0.0020
     38  CD1       16.4680    8.9890  162.7580 C.3    64  ILE64       0.0001
     39  N         17.5550    8.8670  157.2390 N.am   65  PHE65      -0.1976
     40  CA        17.1600    9.0670  155.8480 C.3    65  PHE65       0.1639
     41  C         17.7110    7.9820  154.9250 C.2    65  PHE65       0.2290
     42  O         16.9840    7.4770  154.0620 O.2    65  PHE65      -0.2864
     43  CB        17.6290   10.4450  155.3820 C.3    65  PHE65       0.0560
     44  CG        17.2340   10.7820  153.9760 C.ar   65  PHE65      -0.0200
     45  CD1       15.9550   11.2180  153.6820 C.ar   65  PHE65      -0.0042
     46  CD2       18.1530   10.6730  152.9460 C.ar   65  PHE65      -0.0042
     47  CE1       15.5980   11.5320  152.3850 C.ar   65  PHE65      -0.0003
     48  CE2       17.8010   10.9840  151.6490 C.ar   65  PHE65      -0.0003
     49  CZ        16.5220   11.4140  151.3690 C.ar   65  PHE65      -0.0000
     50  N         18.5060    4.8920  155.5640 N.3    67  GLY67      -0.1225
     51  CA        17.7260    3.6910  155.8000 C.3    67  GLY67       0.1811
     52  C         16.3440    3.6460  155.1880 C.2    67  GLY67       0.2280
     53  O         15.7500    2.5750  155.0750 O.2    67  GLY67      -0.2866
     54  N         16.0030    0.4800  152.3190 N.3    70  ARG70      -0.1245
     55  CA        14.7870   -0.3230  152.3790 C.3    70  ARG70       0.1563
     56  C         14.0240   -0.2250  151.0660 C.2    70  ARG70       0.2260
     57  O         13.4310   -1.2090  150.6060 O.2    70  ARG70      -0.2867
     58  CB        13.9280    0.1430  153.5560 C.3    70  ARG70       0.0307
     59  CG        13.1710   -0.9440  154.2980 C.3    70  ARG70       0.0489
     60  CD        11.9990   -1.5000  153.5050 C.3    70  ARG70       0.2205
     61  NE        12.1150   -2.9320  153.2560 N.pl3  70  ARG70      -0.0865
     62  CZ        11.2050   -3.6510  152.6070 C.cat  70  ARG70       0.5346
     63  NH1       10.1080   -3.0710  152.1410 N.pl3  70  ARG70       0.1354
     64  NH2       11.3950   -4.9490  152.4200 N.pl3  70  ARG70       0.1354
     65  N          3.7540    0.9120  152.2140 N.3   112  LEU112     -0.1245
     66  CA         4.2290    1.5370  153.4450 C.3   112  LEU112      0.1561
     67  C          3.0590    1.9250  154.3410 C.2   112  LEU112      0.2260
     68  O          3.1550    1.8480  155.5700 O.2   112  LEU112     -0.2867
     69  CB         5.0950    2.7540  153.1210 C.3   112  LEU112      0.0270
     70  CG         5.7950    3.4700  154.2760 C.3   112  LEU112      0.0019
     71  CD1        6.7750    2.5380  154.9770 C.3   112  LEU112      0.0001
     72  CD2        6.4980    4.7240  153.7800 C.3   112  LEU112      0.0001
     73  N          2.1910   -0.5650  156.9010 N.3   115  LEU115     -0.1245
     74  CA         3.0220   -0.6510  158.0920 C.3   115  LEU115      0.1561
     75  C          2.9050    0.5790  158.9800 C.2   115  LEU115      0.2260
     76  O          3.6110    0.6680  159.9910 O.2   115  LEU115     -0.2867
     77  CB         4.4890   -0.8620  157.7080 C.3   115  LEU115      0.0270
     78  CG         4.8220   -1.8590  156.5960 C.3   115  LEU115      0.0019
     79  CD1        6.3220   -1.8660  156.3590 C.3   115  LEU115      0.0001
     80  CD2        4.3060   -3.2560  156.8950 C.3   115  LEU115      0.0001
     81  N          5.5770    4.0600  162.2610 N.3   121  VAL121     -0.1231
     82  CA         5.7590    3.1120  161.1680 C.3   121  VAL121      0.1692
     83  C          6.6390    1.9670  161.6520 C.2   121  VAL121      0.2592
     84  O          7.6250    2.1830  162.3640 O.2   121  VAL121     -0.2718
     85  CB         6.3770    3.8020  159.9290 C.3   121  VAL121      0.0266
     86  CG1        7.6450    4.5580  160.3100 C.3   121  VAL121      0.0020
     87  CG2        6.6690    2.7890  158.8280 C.3   121  VAL121      0.0020
     88  N          6.2750    0.7440  161.2710 N.am  122  LEU122     -0.1966
     89  CA         7.1040   -0.4140  161.5710 C.3   122  LEU122      0.1728
     90  C          8.3770   -0.4070  160.7350 C.2   122  LEU122      0.2616
     91  O          8.3940    0.0480  159.5890 O.2   122  LEU122     -0.2715
     92  CB         6.3270   -1.7040  161.3180 C.3   122  LEU122      0.0311
     93  CG         5.1200   -1.9400  162.2250 C.3   122  LEU122      0.0022
     94  CD1        4.3780   -3.1910  161.8040 C.3   122  LEU122      0.0001
     95  CD2        5.5780   -2.0530  163.6700 C.3   122  LEU122      0.0001
     96  N          9.4560   -0.9230  161.3240 N.am  123  ILE123     -0.1963
     97  CA        10.7490   -1.0170  160.6600 C.3   123  ILE123      0.1727
     98  C         11.3630   -2.3720  160.9830 C.2   123  ILE123      0.2617
     99  O         10.9900   -3.0370  161.9530 O.2   123  ILE123     -0.2715
    100  CB        11.7260    0.1170  161.0500 C.3   123  ILE123      0.0290
    101  CG1       12.0170    0.0920  162.5480 C.3   123  ILE123      0.0022
    102  CG2       11.1770    1.4730  160.6210 C.3   123  ILE123      0.0023
    103  CD1       13.0400    1.1170  162.9730 C.3   123  ILE123      0.0001
    104  N         12.3190   -2.7730  160.1450 N.am  124  SER124     -0.1936
    105  CA        13.1050   -3.9910  160.3330 C.3   124  SER124      0.2055
    106  C         12.2060   -5.2280  160.3900 C.2   124  SER124      0.2642
    107  O         12.2060   -5.9930  161.3560 O.2   124  SER124     -0.2714
    108  CB        13.9770   -3.8800  161.5900 C.3   124  SER124      0.2130
    109  OG        14.7070   -5.0720  161.8200 O.3   124  SER124     -0.2179
    110  N         11.4280   -5.4010  159.3200 N.am  125  GLU125     -0.1976
    111  CA        10.5340   -6.5510  159.1580 C.3   125  GLU125      0.1602
    112  C          9.5860   -6.6970  160.3450 C.2   125  GLU125      0.2287
    113  O          9.2060   -7.8070  160.7230 O.2   125  GLU125     -0.2864
    114  CB        11.3320   -7.8390  158.9380 C.3   125  GLU125      0.0415
    115  CG        12.1720   -7.8410  157.6670 C.3   125  GLU125      0.1163
    116  CD        13.6610   -7.7530  157.9470 C.2   125  GLU125      0.3649
    117  OE1       14.0610   -7.9570  159.1130 O.co2 125  GLU125     -0.2457
    118  OE2       14.4310   -7.4780  157.0020 O.co2 125  GLU125     -0.2457
    119  N          9.3160    2.9230  164.6880 N.3   130  MET130     -0.1245
    120  CA         9.7930    4.2890  164.8390 C.3   130  MET130      0.1570
    121  C          8.5920    5.2250  164.8800 C.2   130  MET130      0.2261
    122  O          7.7460    5.1990  163.9780 O.2   130  MET130     -0.2867
    123  CB        10.7360    4.6600  163.6940 C.3   130  MET130      0.0387
    124  CG        11.3200    6.0560  163.7940 C.3   130  MET130      0.0595
    125  SD        12.7450    6.2650  162.7110 S.3   130  MET130     -0.1393
    126  CE        13.9750    5.2930  163.5770 C.3   130  MET130      0.0692
    127  N         10.2320   11.1290  164.0590 N.3   135  LEU135     -0.1245
    128  CA        10.5740   11.5110  162.6930 C.3   135  LEU135      0.1561
    129  C         10.3840   13.0070  162.4720 C.2   135  LEU135      0.2260
    130  O         11.1730   13.6400  161.7610 O.2   135  LEU135     -0.2867
    131  CB         9.7340   10.7090  161.7010 C.3   135  LEU135      0.0270
    132  CG        10.1160    9.2340  161.5840 C.3   135  LEU135      0.0019
    133  CD1        9.0820    8.4670  160.7760 C.3   135  LEU135      0.0001
    134  CD2       11.4960    9.0980  160.9640 C.3   135  LEU135      0.0001
    135  N         13.3170   15.2900  163.8120 N.3   138  LEU138     -0.1245
    136  CA        14.5670   15.3740  163.0710 C.3   138  LEU138      0.1561
    137  C         14.7430   16.7700  162.4870 C.2   138  LEU138      0.2260
    138  O         13.7730   17.4510  162.1430 O.2   138  LEU138     -0.2867
    139  CB        14.5970   14.3310  161.9540 C.3   138  LEU138      0.0270
    140  CG        14.5270   12.8660  162.3850 C.3   138  LEU138      0.0019
    141  CD1       14.8820   11.9550  161.2210 C.3   138  LEU138      0.0001
    142  CD2       15.4580   12.6180  163.5600 C.3   138  LEU138      0.0001
    143  N         15.0690   16.9330  156.9970 N.3   142  PHE142     -0.1241
    144  CA        14.7290   15.5340  157.2350 C.3   142  PHE142      0.1605
    145  C         13.5020   15.3260  158.1140 C.2   142  PHE142      0.2264
    146  O         12.9860   14.2040  158.1490 O.2   142  PHE142     -0.2867
    147  CB        15.9240   14.8190  157.8660 C.3   142  PHE142      0.0534
    148  CG        17.1400   14.7910  156.9890 C.ar  142  PHE142     -0.0203
    149  CD1       17.2300   13.8960  155.9390 C.ar  142  PHE142     -0.0042
    150  CD2       18.1930   15.6630  157.2140 C.ar  142  PHE142     -0.0042
    151  CE1       18.3480   13.8700  155.1290 C.ar  142  PHE142     -0.0003
    152  CE2       19.3130   15.6400  156.4060 C.ar  142  PHE142     -0.0003
    153  CZ        19.3910   14.7420  155.3630 C.ar  142  PHE142     -0.0000
    154  N         10.1500   14.7620  155.8070 N.3   145  PHE145     -0.1227
    155  CA        10.2770   13.7390  154.7760 C.3   145  PHE145      0.1736
    156  C          9.1710   12.6960  154.8720 C.2   145  PHE145      0.2595
    157  O          8.6190   12.2780  153.8480 O.2   145  PHE145     -0.2718
    158  CB        11.6520   13.0760  154.8800 C.3   145  PHE145      0.0547
    159  CG        11.8520   11.9330  153.9290 C.ar  145  PHE145     -0.0202
    160  CD1       12.1550   12.1650  152.6000 C.ar  145  PHE145     -0.0042
    161  CD2       11.7530   10.6240  154.3690 C.ar  145  PHE145     -0.0042
    162  CE1       12.3440   11.1190  151.7260 C.ar  145  PHE145     -0.0003
    163  CE2       11.9420    9.5720  153.4980 C.ar  145  PHE145     -0.0003
    164  CZ        12.2380    9.8190  152.1750 C.ar  145  PHE145     -0.0000
    165  N          8.8200   12.2810  156.0870 N.am  146  MET146     -0.1979
    166  CA         7.8950   11.1760  156.2960 C.3   146  MET146      0.1605
    167  C          6.4760   11.6400  156.5890 C.2   146  MET146      0.2287
    168  O          5.5340   10.8720  156.3650 O.2   146  MET146     -0.2864
    169  CB         8.3850   10.2710  157.4330 C.3   146  MET146      0.0413
    170  CG         9.6040    9.4280  157.0680 C.3   146  MET146      0.0598
    171  SD         9.3570    8.3860  155.6100 S.3   146  MET146     -0.1393
    172  CE         7.9530    7.3970  156.1180 C.3   146  MET146      0.0692
@<TRIPOS>BOND
     1    57    56    2
     2    56    55    1
     3    49    48   ar
     4    49    47   ar
     5    48    46   ar
     6   162   164   ar
     7   162   160   ar
     8    63    62    1
     9   164   163   ar
    10    65    66    1
    11    54    55    1
    12    55    58    1
    13    47    45   ar
    14    64    62    1
    15   160   159   ar
    16    62    61    2
    17    46    44   ar
    18    69    66    1
    19    69    70    1
    20    61    60    1
    21    66    67    1
    22   163   161   ar
    23    60    59    1
    24    20    19    1
    25    58    59    1
    26    45    44   ar
    27    72    70    1
    28   157   156    2
    29   159   161   ar
    30   159   158    1
    31    44    43    1
    32    42    41    2
    33    19    18    1
    34    70    71    1
    35    67    68    2
    36   155   156    1
    37   155   158    1
    38   155   154    1
    39   156   165   am
    40    41    40    1
    41    53    52    2
    42   151   153   ar
    43   151   149   ar
    44    18    17    1
    45    52    51    1
    46   153   152   ar
    47    43    40    1
    48    50    51    1
    49   171   172    1
    50   171   170    1
    51    40    39    1
    52   149   148   ar
    53   165   166    1
    54    17    16    1
    55   166   167    1
    56   166   169    1
    57    79    78    1
    58   168   167    2
    59   152   150   ar
    60    16    13    1
    61    78    80    1
    62    78    77    1
    63    73    74    1
    64    15    14    2
    65   148   150   ar
    66   148   147    1
    67   143   144    1
    68   118   116   ar
    69   170   169    1
    70   144   147    1
    71   144   145    1
    72    39    33   am
    73    34    33    2
    74   115   116    1
    75   115   114    1
    76    77    74    1
    77    13    14    1
    78    13    12    1
    79    14    21   am
    80    33    32    1
    81   116   117   ar
    82    74    75    1
    83   145   146    2
    84    21    22    1
    85    87    85    1
    86     4     3    2
    87   114   111    1
    88    75    76    2
    89    12     3   am
    90    22    25    1
    91    22    23    1
    92   111   110    1
    93   111   112    1
    94   110   106   am
    95    32    31    1
    96    32    35    1
    97     3     2    1
    98    91    90    2
    99    25    26    1
   100    85    86    1
   101    85    82    1
   102    23    24    2
   103   104   105    1
   104   104    98   am
   105    37    35    1
   106    35    36    1
   107   105   106    1
   108   105   108    1
   109   112   113    2
   110   106   107    2
   111   102   100    1
   112    97    98    1
   113    97   100    1
   114    97    96    1
   115    90    96   am
   116    90    89    1
   117   133   132    1
   118     2     5    1
   119     2     1    1
   120   134   132    1
   121    98    99    2
   122   100   101    1
   123    82    83    1
   124    82    81    1
   125    26    27   ar
   126    26    28   ar
   127   141   140    1
   128    88    89    1
   129    88    83   am
   130    92    89    1
   131    92    93    1
   132     5     6    1
   133   132   131    1
   134   108   109    1
   135    83    84    2
   136   131   128    1
   137    36    38    1
   138   130   129    2
   139    27    29   ar
   140    94    93    1
   141   139   140    1
   142   139   136    1
   143   138   137    2
   144    28    30   ar
   145    93    95    1
   146   140   142    1
   147   129   128    1
   148   137   136    1
   149   101   103    1
   150   128   127    1
   151   125   126    1
   152   125   124    1
   153     6     8   ar
   154     6     7   ar
   155     8    10   ar
   156   136   135    1
   157    29    30   ar
   158   123   124    1
   159   123   120    1
   160   122   121    2
   161     7     9   ar
   162    10    11   ar
   163   119   120    1
   164   120   121    1
   165     9    11   ar
