@<TRIPOS>MOLECULE
tmp/6e5lA00.pdb
 205 190 0 0 0
SMALL
GASTEIGER

@<TRIPOS>ATOM
      1  N        -12.5170  -10.3380    3.6960 N.3    10  MET10      -0.1245
      2  CA       -11.4100   -9.4210    3.9420 C.3    10  MET10       0.1570
      3  C        -10.1900   -9.7770    3.1070 C.2    10  MET10       0.2261
      4  O         -9.7050  -10.9120    3.1360 O.2    10  MET10      -0.2867
      5  CB       -11.0370   -9.4290    5.4250 C.3    10  MET10       0.0387
      6  CG        -9.9150   -8.4650    5.7520 C.3    10  MET10       0.0595
      7  SD        -9.6140   -8.3080    7.5130 S.3    10  MET10      -0.1393
      8  CE       -10.9620   -7.2380    7.9700 C.3    10  MET10       0.0692
      9  N         -6.0600   -5.4640    5.7540 N.3    13  ASN13      -0.1240
     10  CA        -6.4250   -4.7560    6.9750 C.3    13  ASN13       0.1653
     11  C         -5.1590   -4.0550    7.4460 C.2    13  ASN13       0.2266
     12  O         -4.2700   -4.6890    8.0130 O.2    13  ASN13      -0.2867
     13  CB        -6.9420   -5.7340    8.0160 C.3    13  ASN13       0.1155
     14  CG        -7.3560   -5.0560    9.2970 C.2    13  ASN13       0.2627
     15  OD1       -7.5300   -3.8400    9.3450 O.2    13  ASN13      -0.2716
     16  ND2       -7.5350   -5.8500   10.3430 N.am   13  ASN13      -0.0877
     17  N         -4.4980   -1.6900   11.7970 N.3    16  PHE16      -0.1241
     18  CA        -5.5750   -1.9350   12.7580 C.3    16  PHE16       0.1605
     19  C         -5.0730   -1.9050   14.1970 C.2    16  PHE16       0.2264
     20  O         -5.7740   -1.4250   15.0870 O.2    16  PHE16      -0.2867
     21  CB        -6.2170   -3.2820   12.4390 C.3    16  PHE16       0.0534
     22  CG        -7.5180   -3.5640   13.1600 C.ar   16  PHE16      -0.0203
     23  CD1       -8.5560   -2.6500   13.1640 C.ar   16  PHE16      -0.0042
     24  CD2       -7.7220   -4.7920   13.7670 C.ar   16  PHE16      -0.0042
     25  CE1       -9.7720   -2.9530   13.7730 C.ar   16  PHE16      -0.0003
     26  CE2       -8.9220   -5.1040   14.3760 C.ar   16  PHE16      -0.0003
     27  CZ        -9.9510   -4.1840   14.3770 C.ar   16  PHE16      -0.0000
     28  N         -4.9200    1.6470   15.4150 N.3    19  TYR19      -0.1227
     29  CA        -6.2800    2.1140   15.6260 C.3    19  TYR19       0.1736
     30  C         -6.8220    1.5860   16.9550 C.2    19  TYR19       0.2595
     31  O         -7.3610    2.3490   17.7620 O.2    19  TYR19      -0.2718
     32  CB        -7.1400    1.7100   14.4180 C.3    19  TYR19       0.0548
     33  CG        -8.6240    1.9340   14.5980 C.ar   19  TYR19      -0.0200
     34  CD1       -9.2170    3.1560   14.3110 C.ar   19  TYR19      -0.0009
     35  CD2       -9.4280    0.9230   15.1000 C.ar   19  TYR19      -0.0009
     36  CE1      -10.5720    3.3520   14.5260 C.ar   19  TYR19       0.0417
     37  CE2      -10.7620    1.1060   15.3040 C.ar   19  TYR19       0.0417
     38  CZ       -11.3350    2.3190   15.0240 C.ar   19  TYR19       0.1957
     39  OH       -12.6790    2.4560   15.2510 O.3    19  TYR19      -0.2866
     40  N         -6.6380    0.2890   17.2240 N.am   20  LEU20      -0.1980
     41  CA        -7.1000   -0.2710   18.4930 C.3    20  LEU20       0.1596
     42  C         -6.3400    0.3230   19.6770 C.2    20  LEU20       0.2287
     43  O         -6.9100    0.5200   20.7540 O.2    20  LEU20      -0.2864
     44  CB        -6.9890   -1.7940   18.4810 C.3    20  LEU20       0.0297
     45  CG        -7.9320   -2.5360   17.5170 C.3    20  LEU20       0.0022
     46  CD1       -7.7110   -4.0180   17.6300 C.3    20  LEU20       0.0001
     47  CD2       -9.4000   -2.2040   17.7550 C.3    20  LEU20       0.0001
     48  N         -7.8790    3.3990   20.7730 N.3    23  LEU23      -0.1245
     49  CA        -9.0710    3.1210   21.5640 C.3    23  LEU23       0.1561
     50  C         -8.7490    2.5260   22.9300 C.2    23  LEU23       0.2260
     51  O         -9.6750    2.1870   23.6740 O.2    23  LEU23      -0.2867
     52  CB        -9.9890    2.1560   20.8100 C.3    23  LEU23       0.0270
     53  CG       -10.5860    2.6710   19.5050 C.3    23  LEU23       0.0019
     54  CD1      -11.4390    1.5780   18.8710 C.3    23  LEU23       0.0001
     55  CD2      -11.4230    3.9260   19.7240 C.3    23  LEU23       0.0001
     56  N         -7.5250   -0.3490   23.6750 N.3    25  VAL25      -0.1245
     57  CA        -7.7300   -1.7880   23.7760 C.3    25  VAL25       0.1561
     58  C         -6.4430   -2.4280   24.2840 C.2    25  VAL25       0.2260
     59  O         -5.3510   -2.1090   23.8050 O.2    25  VAL25      -0.2867
     60  CB        -8.1440   -2.3420   22.4010 C.3    25  VAL25       0.0252
     61  CG1       -8.2350   -3.8600   22.3950 C.3    25  VAL25       0.0019
     62  CG2       -9.4650   -1.7240   21.9580 C.3    25  VAL25       0.0019
     63  N         -5.5770   -8.2820   23.6770 N.3    29  LEU29      -0.1245
     64  CA        -6.7420   -8.2940   22.8020 C.3    29  LEU29       0.1561
     65  C         -6.4290   -7.6880   21.4330 C.2    29  LEU29       0.2260
     66  O         -6.9660   -8.1430   20.4190 O.2    29  LEU29      -0.2867
     67  CB        -7.9070   -7.5840   23.4780 C.3    29  LEU29       0.0270
     68  CG        -9.2080   -7.5310   22.6760 C.3    29  LEU29       0.0019
     69  CD1       -9.6540   -8.8990   22.1720 C.3    29  LEU29       0.0001
     70  CD2      -10.3160   -6.9040   23.5090 C.3    29  LEU29       0.0001
     71  N         -7.2390   -9.6120   18.1040 N.3    33  ALA33      -0.1245
     72  CA        -8.1750   -8.9950   17.1710 C.3    33  ALA33       0.1562
     73  C         -7.5720   -8.8220   15.7900 C.2    33  ALA33       0.2260
     74  O         -8.2830   -8.9150   14.7780 O.2    33  ALA33      -0.2867
     75  CB        -8.6260   -7.6460   17.7250 C.3    33  ALA33       0.0290
     76  N         -7.8360  -11.7230   13.3300 N.3    36  LEU36      -0.1245
     77  CA        -9.1490  -12.0460   12.8060 C.3    36  LEU36       0.1561
     78  C         -9.3530  -11.4200   11.4390 C.2    36  LEU36       0.2260
     79  O         -8.9210  -10.2920   11.1770 O.2    36  LEU36      -0.2867
     80  CB       -10.2270  -11.5220   13.7490 C.3    36  LEU36       0.0270
     81  CG       -10.1190  -12.0160   15.1930 C.3    36  LEU36       0.0019
     82  CD1      -11.1960  -11.4140   16.0640 C.3    36  LEU36       0.0001
     83  CD2      -10.1830  -13.5390   15.2740 C.3    36  LEU36       0.0001
     84  N        -12.6190  -11.0320    9.6310 N.3    38  PRO38      -0.2116
     85  CA       -14.0690  -11.2000    9.5320 C.3    38  PRO38       0.1372
     86  C        -14.5730  -10.9290    8.1260 C.2    38  PRO38       0.2244
     87  O        -14.0240  -10.1070    7.3870 O.2    38  PRO38      -0.2868
     88  CB       -14.6150  -10.1690   10.5230 C.3    38  PRO38       0.0268
     89  CG       -13.5690   -9.1240   10.5630 C.3    38  PRO38       0.0207
     90  CD       -12.2600   -9.8770   10.4640 C.3    38  PRO38       0.0892
     91  N        -17.9520   -9.5530    5.8910 N.3    40  LYS40      -0.1245
     92  CA       -19.0510   -8.6100    6.0480 C.3    40  LYS40       0.1561
     93  C        -20.2330   -9.1000    5.2410 C.2    40  LYS40       0.2260
     94  O        -20.1020   -9.3940    4.0520 O.2    40  LYS40      -0.2867
     95  CB       -18.6890   -7.2070    5.5710 C.3    40  LYS40       0.0271
     96  CG       -17.5080   -6.5850    6.2360 C.3    40  LYS40       0.0035
     97  CD       -17.8960   -5.5940    7.2640 C.3    40  LYS40       0.0206
     98  CE       -16.7050   -4.8560    7.8030 C.3    40  LYS40       0.1093
     99  NZ       -17.1700   -4.1690    9.0000 N.3    40  LYS40      -0.1314
    100  N        -20.5210   -7.9130   10.7630 N.3    53  THR53      -0.1218
    101  CA       -19.1130   -8.2690   10.7450 C.3    53  THR53       0.1862
    102  C        -19.0220   -9.6220   11.4320 C.2    53  THR53       0.2287
    103  O        -19.3740   -9.7460   12.6060 O.2    53  THR53      -0.2866
    104  CB       -18.3100   -7.1900   11.4670 C.3    53  THR53       0.1770
    105  OG1      -18.4940   -5.9370   10.7940 O.3    53  THR53      -0.2211
    106  CG2      -16.8300   -7.5230   11.4800 C.3    53  THR53       0.0375
    107  N        -17.2910  -13.3790   12.3820 N.3    55  SER55      -0.1217
    108  CA       -16.1600  -14.2660   12.6120 C.3    55  SER55       0.1889
    109  C        -16.5290  -15.2800   13.6900 C.2    55  SER55       0.2288
    110  O        -17.4410  -15.0660   14.4890 O.2    55  SER55      -0.2866
    111  CB       -14.9170  -13.4820   13.0320 C.3    55  SER55       0.2089
    112  OG       -15.0010  -13.0700   14.3780 O.3    55  SER55      -0.2183
    113  N        -14.7340  -15.8270   16.2280 N.3    57  PHE57      -0.1227
    114  CA       -14.4210  -15.1770   17.4930 C.3    57  PHE57       0.1736
    115  C        -15.5990  -14.3570   17.9900 C.2    57  PHE57       0.2595
    116  O        -15.9410  -14.4070   19.1780 O.2    57  PHE57      -0.2718
    117  CB       -13.1980  -14.2880   17.3120 C.3    57  PHE57       0.0547
    118  CG       -12.8140  -13.5100   18.5340 C.ar   57  PHE57      -0.0202
    119  CD1      -12.0720  -14.0980   19.5330 C.ar   57  PHE57      -0.0042
    120  CD2      -13.1570  -12.1730   18.6600 C.ar   57  PHE57      -0.0042
    121  CE1      -11.6870  -13.3800   20.6430 C.ar   57  PHE57      -0.0003
    122  CE2      -12.7780  -11.4530   19.7680 C.ar   57  PHE57      -0.0003
    123  CZ       -12.0390  -12.0540   20.7600 C.ar   57  PHE57      -0.0000
    124  N        -16.2360  -13.6080   17.0940 N.am   58  ARG58      -0.1980
    125  CA       -17.3330  -12.7450   17.4740 C.3    58  ARG58       0.1597
    126  C        -17.9650  -12.1620   16.2250 C.2    58  ARG58       0.2287
    127  O        -17.2860  -11.8590   15.2350 O.2    58  ARG58      -0.2864
    128  CB       -16.8490  -11.6010   18.3620 C.3    58  ARG58       0.0334
    129  CG       -17.9770  -11.0240   19.1840 C.3    58  ARG58       0.0492
    130  CD       -17.5310   -9.8740   20.0130 C.3    58  ARG58       0.2205
    131  NE       -16.4690  -10.2760   20.9280 N.pl3  58  ARG58      -0.0865
    132  CZ       -15.8000   -9.4410   21.6980 C.cat  58  ARG58       0.5346
    133  NH1      -16.0930   -8.1450   21.6780 N.pl3  58  ARG58       0.1354
    134  NH2      -14.8320   -9.9040   22.4700 N.pl3  58  ARG58       0.1354
    135  N        -20.2080   -8.7500   15.1650 N.3    60  TYR60      -0.1241
    136  CA       -20.5950   -7.4030   15.5620 C.3    60  TYR60       0.1605
    137  C        -21.6020   -6.9300   14.5360 C.2    60  TYR60       0.2264
    138  O        -21.2940   -6.8690   13.3410 O.2    60  TYR60      -0.2867
    139  CB       -19.4000   -6.4550   15.6410 C.3    60  TYR60       0.0534
    140  CG       -19.8450   -5.0780   16.0320 C.ar   60  TYR60      -0.0201
    141  CD1      -20.2800   -4.8250   17.3230 C.ar   60  TYR60      -0.0009
    142  CD2      -19.8920   -4.0460   15.1090 C.ar   60  TYR60      -0.0009
    143  CE1      -20.7290   -3.5810   17.6960 C.ar   60  TYR60       0.0417
    144  CE2      -20.3290   -2.7790   15.4750 C.ar   60  TYR60       0.0417
    145  CZ       -20.7580   -2.5700   16.7670 C.ar   60  TYR60       0.1957
    146  OH       -21.2180   -1.3380   17.1610 O.3    60  TYR60      -0.2866
    147  N        -20.4190   -0.4110   21.7690 N.3    74  LEU74      -0.1245
    148  CA       -19.0890   -0.8970   21.4400 C.3    74  LEU74       0.1561
    149  C        -18.3510   -1.3890   22.6740 C.2    74  LEU74       0.2260
    150  O        -17.1210   -1.4810   22.6650 O.2    74  LEU74      -0.2867
    151  CB       -18.3030    0.2150   20.7440 C.3    74  LEU74       0.0270
    152  CG       -18.8660    0.6020   19.3690 C.3    74  LEU74       0.0019
    153  CD1      -18.7450    2.1010   19.1120 C.3    74  LEU74       0.0001
    154  CD2      -18.1670   -0.1840   18.2770 C.3    74  LEU74       0.0001
    155  N        -17.8970   -4.2000   23.9770 N.3    76  GLY76      -0.1210
    156  CA       -17.0500   -5.3630   23.7700 C.3    76  GLY76       0.1956
    157  C        -15.7890   -5.0880   22.9710 C.2    76  GLY76       0.2611
    158  O        -14.9060   -5.9490   22.9170 O.2    76  GLY76      -0.2717
    159  N        -15.6810   -3.9200   22.3570 N.am   77  ILE77      -0.1979
    160  CA       -14.4900   -3.5400   21.6090 C.3    77  ILE77       0.1595
    161  C        -13.5700   -2.7900   22.5560 C.2    77  ILE77       0.2287
    162  O        -12.4890   -3.2710   22.9060 O.2    77  ILE77      -0.2864
    163  CB       -14.8560   -2.6680   20.3960 C.3    77  ILE77       0.0276
    164  CG1      -15.8800   -3.3800   19.5050 C.3    77  ILE77       0.0022
    165  CG2      -13.6110   -2.2800   19.6250 C.3    77  ILE77       0.0022
    166  CD1      -15.4520   -4.7190   18.9820 C.3    77  ILE77       0.0001
    167  N        -13.8210   10.0050   16.0370 N.3   104  ARG104     -0.1245
    168  CA       -14.0950    8.5900   15.8390 C.3   104  ARG104      0.1563
    169  C        -15.1600    8.4190   14.7650 C.2   104  ARG104      0.2260
    170  O        -16.2390    9.0140   14.8460 O.2   104  ARG104     -0.2867
    171  CB       -14.5650    7.9730   17.1580 C.3   104  ARG104      0.0307
    172  CG       -14.6340    6.4580   17.1520 C.3   104  ARG104      0.0489
    173  CD       -15.1180    5.9490   18.5000 C.3   104  ARG104      0.2205
    174  NE       -15.1540    4.4940   18.5240 N.pl3 104  ARG104     -0.0865
    175  CZ       -15.1030    3.7560   19.6290 C.cat 104  ARG104      0.5346
    176  NH1      -15.0560    4.3260   20.8270 N.pl3 104  ARG104      0.1354
    177  NH2      -15.0960    2.4400   19.5340 N.pl3 104  ARG104      0.1354
    178  N        -11.4120    3.4660    8.8310 N.3   119  MET119     -0.1245
    179  CA       -11.8190    3.7490   10.2030 C.3   119  MET119      0.1570
    180  C        -10.8110    4.7030   10.8260 C.2   119  MET119      0.2261
    181  O         -9.6110    4.5710   10.5870 O.2   119  MET119     -0.2867
    182  CB       -11.8420    2.4600   11.0300 C.3   119  MET119      0.0387
    183  CG       -12.8240    1.4110   10.5270 C.3   119  MET119      0.0595
    184  SD       -12.8930   -0.0880   11.5420 S.3   119  MET119     -0.1393
    185  CE       -11.3380   -0.8650   11.1180 C.3   119  MET119      0.0692
    186  N         -9.2820   -0.9730    5.4750 N.3   128  GLN128     -0.1245
    187  CA        -9.6120   -2.3440    5.1240 C.3   128  GLN128      0.1566
    188  C        -10.2010   -2.3780    3.7270 C.2   128  GLN128      0.2260
    189  O        -10.8870   -1.4460    3.2910 O.2   128  GLN128     -0.2867
    190  CB       -10.6150   -2.9400    6.1030 C.3   128  GLN128      0.0367
    191  CG       -10.1270   -2.8480    7.5310 C.3   128  GLN128      0.0905
    192  CD       -11.0480   -3.4760    8.5320 C.2   128  GLN128      0.2608
    193  OE1      -12.2300   -3.6480    8.2740 O.2   128  GLN128     -0.2717
    194  NE2      -10.5150   -3.7990    9.6950 N.am  128  GLN128     -0.0878
    195  N        -12.2890   -5.3420    1.2680 N.3   130  PHE130     -0.1241
    196  CA       -12.9250   -6.6400    1.1600 C.3   130  PHE130      0.1605
    197  C        -13.2310   -6.8860   -0.3100 C.2   130  PHE130      0.2264
    198  O        -13.4620   -5.9390   -1.0680 O.2   130  PHE130     -0.2867
    199  CB       -14.2560   -6.6920    1.9440 C.3   130  PHE130      0.0534
    200  CG       -14.1210   -6.3960    3.4120 C.ar  130  PHE130     -0.0203
    201  CD1      -13.9130   -5.0940    3.8680 C.ar  130  PHE130     -0.0042
    202  CD2      -14.2180   -7.4080    4.3420 C.ar  130  PHE130     -0.0042
    203  CE1      -13.7580   -4.8270    5.2030 C.ar  130  PHE130     -0.0003
    204  CE2      -14.0680   -7.1360    5.6830 C.ar  130  PHE130     -0.0003
    205  CZ       -13.8370   -5.8420    6.1100 C.ar  130  PHE130     -0.0000
@<TRIPOS>BOND
     1   198   197    2
     2   197   196    1
     3   196   195    1
     4   196   199    1
     5   199   200    1
     6     3     4    2
     7     3     2    1
     8   189   188    2
     9   200   201   ar
    10   200   202   ar
    11     1     2    1
    12   188   187    1
    13   201   203   ar
    14     2     5    1
    15    94    93    2
    16   202   204   ar
    17   187   186    1
    18   187   190    1
    19   203   205   ar
    20    93    92    1
    21     5     6    1
    22    95    92    1
    23    95    96    1
    24   204   205   ar
    25     6     7    1
    26     9    10    1
    27    91    92    1
    28   190   191    1
    29    96    97    1
    30    10    11    1
    31    10    13    1
    32    97    98    1
    33    87    86    2
    34    11    12    2
    35     7     8    1
    36   191   192    1
    37    98    99    1
    38    13    14    1
    39    86    85    1
    40   193   192    2
    41   192   194   am
    42   178   179    1
    43    14    15    2
    44    14    16   am
    45    85    84    1
    46    85    88    1
    47    84    90    1
    48   179   180    1
    49   179   182    1
    50    90    89    1
    51    88    89    1
    52   183   182    1
    53   183   184    1
    54   181   180    2
    55   101   100    1
    56   101   102    1
    57   101   104    1
    58   105   104    1
    59   185   184    1
    60    79    78    2
    61   102   103    2
    62    78    77    1
    63   104   106    1
    64    17    18    1
    65   107   108    1
    66    21    18    1
    67    21    22    1
    68   108   111    1
    69   108   109    1
    70    18    19    1
    71    77    76    1
    72    77    80    1
    73   111   112    1
    74    22    23   ar
    75    22    24   ar
    76    23    25   ar
    77   138   137    2
    78   109   110    2
    79    80    81    1
    80    24    26   ar
    81    25    27   ar
    82    19    20    2
    83    34    36   ar
    84    34    33   ar
    85    26    27   ar
    86    32    33    1
    87    32    29    1
    88    36    38   ar
    89   137   136    1
    90    33    35   ar
    91   169   170    2
    92   169   168    1
    93    74    73    2
    94    38    39    1
    95    38    37   ar
    96    35    37   ar
    97   142   144   ar
    98   142   140   ar
    99   135   136    1
   100    81    83    1
   101    81    82    1
   102   127   126    2
   103    28    29    1
   104   144   145   ar
   105   136   139    1
   106    29    30    1
   107   139   140    1
   108    73    72    1
   109   168   167    1
   110   168   171    1
   111   140   141   ar
   112   126   125    1
   113   113   114    1
   114   145   146    1
   115   145   143   ar
   116    30    40   am
   117    30    31    2
   118   124   125    1
   119   124   115   am
   120   172   171    1
   121   172   173    1
   122    72    75    1
   123    72    71    1
   124    40    41    1
   125   117   114    1
   126   117   118    1
   127   141   143   ar
   128   125   128    1
   129   114   115    1
   130    45    46    1
   131    45    47    1
   132    45    44    1
   133   115   116    2
   134   154   152    1
   135   128   129    1
   136    44    41    1
   137    41    42    1
   138   173   174    1
   139   174   175    2
   140   118   120   ar
   141   118   119   ar
   142   120   122   ar
   143    54    53    1
   144   166   164    1
   145   153   152    1
   146   129   130    1
   147   152   151    1
   148    53    55    1
   149    53    52    1
   150   164   163    1
   151   119   121   ar
   152   177   175    1
   153   165   163    1
   154   175   176    1
   155    42    43    2
   156   122   123   ar
   157   130   131    1
   158   163   160    1
   159    66    65    2
   160   121   123   ar
   161   151   148    1
   162    48    49    1
   163    52    49    1
   164   131   132    2
   165    65    64    1
   166   148   147    1
   167   148   149    1
   168    49    50    1
   169   160   159    1
   170   160   161    1
   171   133   132    1
   172   132   134    1
   173    62    60    1
   174    69    68    1
   175   159   157   am
   176    61    60    1
   177    60    57    1
   178   161   162    2
   179   150   149    2
   180    68    67    1
   181    68    70    1
   182    64    67    1
   183    64    63    1
   184   158   157    2
   185    50    51    2
   186   157   156    1
   187    56    57    1
   188   156   155    1
   189    57    58    1
   190    59    58    2
