@<TRIPOS>MOLECULE
tmp/6e5tA00.pdb
 166 153 0 0 0
SMALL
GASTEIGER

@<TRIPOS>ATOM
      1  N         12.8450   51.0060   95.7750 N.3    10  MET10      -0.1245
      2  CA        11.7410   50.0800   96.0080 C.3    10  MET10       0.1570
      3  C         10.5200   50.4310   95.1620 C.2    10  MET10       0.2261
      4  O         10.0500   51.5700   95.1790 O.2    10  MET10      -0.2867
      5  CB        11.3510   50.0860   97.4870 C.3    10  MET10       0.0387
      6  CG        10.2120   49.1380   97.7740 C.3    10  MET10       0.0595
      7  SD         9.9140   48.9120   99.5430 S.3    10  MET10      -0.1393
      8  CE        11.2620   47.8190   99.9510 C.3    10  MET10       0.0692
      9  N          6.3790   46.0700   97.7500 N.3    13  ASN13      -0.1240
     10  CA         6.7190   45.3440   98.9620 C.3    13  ASN13       0.1653
     11  C          5.4330   44.6670   99.4400 C.2    13  ASN13       0.2266
     12  O          4.5450   45.3300   99.9950 O.2    13  ASN13      -0.2867
     13  CB         7.2760   46.3000  100.0000 C.3    13  ASN13       0.1155
     14  CG         7.6990   45.6040  101.2610 C.2    13  ASN13       0.2627
     15  OD1        7.8880   44.3970  101.2680 O.2    13  ASN13      -0.2716
     16  ND2        7.9230   46.3760  102.3090 N.am   13  ASN13      -0.0877
     17  N          4.8690   42.1670  103.7620 N.3    16  PHE16      -0.1241
     18  CA         5.9720   42.4190  104.6910 C.3    16  PHE16       0.1605
     19  C          5.4970   42.3990  106.1380 C.2    16  PHE16       0.2264
     20  O          6.2190   41.9440  107.0300 O.2    16  PHE16      -0.2867
     21  CB         6.5990   43.7670  104.3440 C.3    16  PHE16       0.0534
     22  CG         7.8920   44.0810  105.0590 C.ar   16  PHE16      -0.0203
     23  CD1        8.9260   43.1750  105.0500 C.ar   16  PHE16      -0.0042
     24  CD2        8.0750   45.3030  105.6930 C.ar   16  PHE16      -0.0042
     25  CE1       10.1310   43.4650  105.6310 C.ar   16  PHE16      -0.0003
     26  CE2        9.2830   45.5950  106.3300 C.ar   16  PHE16      -0.0003
     27  CZ        10.3120   44.6760  106.2840 C.ar   16  PHE16      -0.0000
     28  N          7.0430   40.1910  109.1740 N.3    20  LEU20      -0.1245
     29  CA         7.5300   40.7430  110.4350 C.3    20  LEU20       0.1561
     30  C          6.7610   40.1650  111.6130 C.2    20  LEU20       0.2260
     31  O          7.3450   39.9100  112.6730 O.2    20  LEU20      -0.2867
     32  CB         7.4150   42.2630  110.4230 C.3    20  LEU20       0.0270
     33  CG         8.2790   43.0160  109.4240 C.3    20  LEU20       0.0019
     34  CD1        8.0520   44.5080  109.6210 C.3    20  LEU20       0.0001
     35  CD2        9.7390   42.6840  109.5730 C.3    20  LEU20       0.0001
     36  N          7.7860   40.7920  115.6390 N.3    25  VAL25      -0.1245
     37  CA         7.9370   42.2430  115.7420 C.3    25  VAL25       0.1561
     38  C          6.6250   42.8590  116.2090 C.2    25  VAL25       0.2260
     39  O          5.5360   42.4410  115.7860 O.2    25  VAL25      -0.2867
     40  CB         8.3870   42.8130  114.3810 C.3    25  VAL25       0.0252
     41  CG1        8.5560   44.3250  114.4430 C.3    25  VAL25       0.0019
     42  CG2        9.7510   42.1960  113.9310 C.3    25  VAL25       0.0019
     43  N          5.7260   48.7120  115.5510 N.3    29  LEU29      -0.1245
     44  CA         6.9010   48.7390  114.6820 C.3    29  LEU29       0.1561
     45  C          6.6270   48.1030  113.3210 C.2    29  LEU29       0.2260
     46  O          7.2110   48.5150  112.3140 O.2    29  LEU29      -0.2867
     47  CB         8.0760   48.0290  115.3520 C.3    29  LEU29       0.0270
     48  CG         9.3710   47.9920  114.5260 C.3    29  LEU29       0.0019
     49  CD1        9.8320   49.3980  114.1050 C.3    29  LEU29       0.0001
     50  CD2       10.4870   47.2880  115.2810 C.3    29  LEU29       0.0001
     51  N          7.5380   50.0700  110.0110 N.3    33  ALA33      -0.1245
     52  CA         8.4870   49.4620  109.0950 C.3    33  ALA33       0.1562
     53  C          7.9070   49.2630  107.7050 C.2    33  ALA33       0.2260
     54  O          8.6450   49.3460  106.7160 O.2    33  ALA33      -0.2867
     55  CB         8.9580   48.1210  109.6570 C.3    33  ALA33       0.0290
     56  N          8.0710   52.1860  105.3040 N.3    36  LEU36      -0.1245
     57  CA         9.3770   52.5710  104.7870 C.3    36  LEU36       0.1561
     58  C          9.6110   51.9620  103.4140 C.2    36  LEU36       0.2260
     59  O          9.2330   50.8210  103.1500 O.2    36  LEU36      -0.2867
     60  CB        10.4840   52.1280  105.7310 C.3    36  LEU36       0.0270
     61  CG        10.4040   52.6970  107.1510 C.3    36  LEU36       0.0019
     62  CD1       11.4850   52.0830  108.0480 C.3    36  LEU36       0.0001
     63  CD2       10.4830   54.2090  107.1700 C.3    36  LEU36       0.0001
     64  N         12.9020   51.5830  101.6330 N.3    38  PRO38      -0.2116
     65  CA        14.3530   51.7440  101.5820 C.3    38  PRO38       0.1372
     66  C         14.8880   51.4790  100.1840 C.2    38  PRO38       0.2244
     67  O         14.3390   50.6920   99.4170 O.2    38  PRO38      -0.2868
     68  CB        14.8450   50.6950  102.5800 C.3    38  PRO38       0.0268
     69  CG        13.8380   49.6060  102.4680 C.3    38  PRO38       0.0207
     70  CD        12.5250   50.3710  102.3770 C.3    38  PRO38       0.0892
     71  N         18.2640   50.0930   97.9590 N.3    40  LYS40      -0.1245
     72  CA        19.3820   49.1510   98.0440 C.3    40  LYS40       0.1561
     73  C         20.5610   49.6920   97.2470 C.2    40  LYS40       0.2260
     74  O         20.4120   50.0840   96.0860 O.2    40  LYS40      -0.2867
     75  CB        19.0160   47.7810   97.4990 C.3    40  LYS40       0.0271
     76  CG        17.8290   47.1230   98.1530 C.3    40  LYS40       0.0035
     77  CD        18.2380   46.1600   99.1960 C.3    40  LYS40       0.0206
     78  CE        17.0270   45.4490   99.7810 C.3    40  LYS40       0.1093
     79  NZ        17.4570   44.7240  100.9740 N.3    40  LYS40      -0.1314
     80  N         20.8790   48.5020  102.8260 N.3    53  THR53      -0.1218
     81  CA        19.4500   48.8290  102.8140 C.3    53  THR53       0.1862
     82  C         19.2820   50.1640  103.5340 C.2    53  THR53       0.2287
     83  O         19.5110   50.2600  104.7410 O.2    53  THR53      -0.2866
     84  CB        18.6350   47.7110  103.4780 C.3    53  THR53       0.1770
     85  OG1       18.8670   46.4890  102.7820 O.3    53  THR53      -0.2211
     86  CG2       17.0910   47.9840  103.4520 C.3    53  THR53       0.0375
     87  N         17.5110   53.9590  104.4570 N.3    55  SER55      -0.1217
     88  CA        16.3610   54.8320  104.6540 C.3    55  SER55       0.1889
     89  C         16.7190   55.8560  105.7180 C.2    55  SER55       0.2288
     90  O         17.7000   55.7080  106.4480 O.2    55  SER55      -0.2866
     91  CB        15.1310   54.0350  105.0570 C.3    55  SER55       0.2089
     92  OG        15.1460   53.6690  106.4100 O.3    55  SER55      -0.2183
     93  N         14.7620   56.3140  108.2780 N.3    57  PHE57      -0.1227
     94  CA        14.4200   55.6750  109.5490 C.3    57  PHE57       0.1736
     95  C         15.5800   54.8410  110.0700 C.2    57  PHE57       0.2595
     96  O         15.8390   54.7960  111.2810 O.2    57  PHE57      -0.2718
     97  CB        13.1750   54.7980  109.3920 C.3    57  PHE57       0.0547
     98  CG        12.8170   54.0250  110.6310 C.ar   57  PHE57      -0.0202
     99  CD1       12.0580   54.6140  111.6160 C.ar   57  PHE57      -0.0042
    100  CD2       13.2180   52.7050  110.8000 C.ar   57  PHE57      -0.0042
    101  CE1       11.7170   53.9050  112.7370 C.ar   57  PHE57      -0.0003
    102  CE2       12.8810   51.9960  111.9120 C.ar   57  PHE57      -0.0003
    103  CZ        12.1190   52.5860  112.8790 C.ar   57  PHE57      -0.0000
    104  N         16.2680   54.1480  109.1740 N.am   58  ARG58      -0.1980
    105  CA        17.3220   53.2450  109.5840 C.3    58  ARG58       0.1597
    106  C         18.0460   52.7170  108.3600 C.2    58  ARG58       0.2287
    107  O         17.4580   52.5620  107.2830 O.2    58  ARG58      -0.2864
    108  CB        16.7490   52.0750  110.3880 C.3    58  ARG58       0.0334
    109  CG        17.8260   51.4160  111.2660 C.3    58  ARG58       0.0492
    110  CD        17.2790   50.2850  112.1040 C.3    58  ARG58       0.2205
    111  NE        16.3210   50.7730  113.0840 N.pl3  58  ARG58      -0.0865
    112  CZ        15.5660   49.9840  113.8340 C.cat  58  ARG58       0.5346
    113  NH1       15.6600   48.6650  113.7060 N.pl3  58  ARG58       0.1354
    114  NH2       14.7170   50.5060  114.7150 N.pl3  58  ARG58       0.1354
    115  N         20.3610   49.2430  107.3200 N.3    60  TYR60      -0.1241
    116  CA        20.8160   47.9070  107.6980 C.3    60  TYR60       0.1605
    117  C         21.8030   47.4370  106.6360 C.2    60  TYR60       0.2264
    118  O         21.4710   47.3650  105.4390 O.2    60  TYR60      -0.2867
    119  CB        19.6630   46.9180  107.8620 C.3    60  TYR60       0.0534
    120  CG        20.1750   45.5340  108.1580 C.ar   60  TYR60      -0.0201
    121  CD1       20.7530   45.2250  109.3920 C.ar   60  TYR60      -0.0009
    122  CD2       20.1460   44.5390  107.1780 C.ar   60  TYR60      -0.0009
    123  CE1       21.2580   43.9630  109.6460 C.ar   60  TYR60       0.0417
    124  CE2       20.6300   43.2610  107.4320 C.ar   60  TYR60       0.0417
    125  CZ        21.1830   42.9810  108.6710 C.ar   60  TYR60       0.1957
    126  OH        21.7000   41.7380  108.9230 O.3    60  TYR60      -0.2866
    127  N         18.0250   44.8560  115.8100 N.3    76  GLY76      -0.1210
    128  CA        17.2270   46.0410  115.5340 C.3    76  GLY76       0.1956
    129  C         15.9900   45.7600  114.7050 C.2    76  GLY76       0.2611
    130  O         15.0580   46.5730  114.6840 O.2    76  GLY76      -0.2717
    131  N         15.9610   44.6270  114.0180 N.am   77  ILE77      -0.1979
    132  CA        14.7830   44.2130  113.2690 C.3    77  ILE77       0.1595
    133  C         13.8940   43.3890  114.1990 C.2    77  ILE77       0.2287
    134  O         12.7870   43.8220  114.5380 O.2    77  ILE77      -0.2864
    135  CB        15.2080   43.4750  111.9770 C.3    77  ILE77       0.0276
    136  CG1       16.0190   44.4170  111.0860 C.3    77  ILE77       0.0022
    137  CG2       13.9960   42.9640  111.2120 C.3    77  ILE77       0.0022
    138  CD1       16.8140   43.7200  110.0120 C.3    77  ILE77       0.0001
    139  N         11.8050   37.1290  100.7100 N.3   119  MET119     -0.1245
    140  CA        12.2640   36.7720  102.0390 C.3   119  MET119      0.1570
    141  C         11.2160   35.9050  102.7220 C.2   119  MET119      0.2261
    142  O         10.0130   36.0810  102.5060 O.2   119  MET119     -0.2867
    143  CB        12.5780   38.0120  102.8780 C.3   119  MET119      0.0387
    144  CG        11.4620   38.9810  103.1800 C.3   119  MET119      0.0595
    145  SD        12.0470   40.5230  103.9300 S.3   119  MET119     -0.1393
    146  CE        12.8810   41.3250  102.5700 C.3   119  MET119      0.0692
    147  N          9.6510   41.4850   97.4110 N.3   128  GLN128     -0.1245
    148  CA         9.9550   42.8760   97.1070 C.3   128  GLN128      0.1566
    149  C         10.5450   42.9750   95.7090 C.2   128  GLN128      0.2260
    150  O         11.2060   42.0470   95.2230 O.2   128  GLN128     -0.2867
    151  CB        10.9340   43.4990   98.1120 C.3   128  GLN128      0.0367
    152  CG        10.4320   43.4320   99.5280 C.3   128  GLN128      0.0905
    153  CD        11.3630   44.0340  100.5390 C.2   128  GLN128      0.2608
    154  OE1       12.5650   44.1950  100.2900 O.2   128  GLN128     -0.2717
    155  NE2       10.8150   44.3640  101.7010 N.am  128  GLN128     -0.0878
    156  N         12.5910   45.9820   93.2630 N.3   130  PHE130     -0.1241
    157  CA        13.2520   47.2730   93.1690 C.3   130  PHE130      0.1605
    158  C         13.5770   47.5530   91.7060 C.2   130  PHE130      0.2264
    159  O         13.8080   46.6260   90.9180 O.2   130  PHE130     -0.2867
    160  CB        14.5760   47.3390   93.9410 C.3   130  PHE130      0.0534
    161  CG        14.4460   47.0120   95.4030 C.ar  130  PHE130     -0.0203
    162  CD1       14.2500   45.7030   95.8200 C.ar  130  PHE130     -0.0042
    163  CD2       14.4570   48.0210   96.3650 C.ar  130  PHE130     -0.0042
    164  CE1       14.0910   45.4070   97.1660 C.ar  130  PHE130     -0.0003
    165  CE2       14.2960   47.7150   97.7260 C.ar  130  PHE130     -0.0003
    166  CZ        14.0890   46.4100   98.1250 C.ar  130  PHE130     -0.0000
@<TRIPOS>BOND
     1   159   158    2
     2   158   157    1
     3   157   156    1
     4   157   160    1
     5   160   161    1
     6     3     4    2
     7     3     2    1
     8   150   149    2
     9   161   162   ar
    10   161   163   ar
    11   149   148    1
    12     1     2    1
    13   162   164   ar
    14     2     5    1
    15    74    73    2
    16   163   165   ar
    17   148   147    1
    18   148   151    1
    19   164   166   ar
    20    73    72    1
    21     5     6    1
    22    75    72    1
    23    75    76    1
    24   165   166   ar
    25     9    10    1
    26     6     7    1
    27    71    72    1
    28   151   152    1
    29    76    77    1
    30    10    11    1
    31    10    13    1
    32    77    78    1
    33    67    66    2
    34    11    12    2
    35   152   153    1
    36     7     8    1
    37    78    79    1
    38    13    14    1
    39    66    65    1
    40   154   153    2
    41   153   155   am
    42   139   140    1
    43    14    15    2
    44    14    16   am
    45    65    64    1
    46    65    68    1
    47    64    70    1
    48   140   141    1
    49   140   143    1
    50    70    69    1
    51    69    68    1
    52   142   141    2
    53   146   145    1
    54    85    84    1
    55    81    80    1
    56    81    84    1
    57    81    82    1
    58   143   144    1
    59    59    58    2
    60   144   145    1
    61    58    57    1
    62    86    84    1
    63    82    83    2
    64    17    18    1
    65    21    18    1
    66    21    22    1
    67    87    88    1
    68    88    91    1
    69    88    89    1
    70    18    19    1
    71    57    56    1
    72    57    60    1
    73    23    22   ar
    74    23    25   ar
    75    91    92    1
    76    22    24   ar
    77   118   117    2
    78    25    27   ar
    79    24    26   ar
    80    89    90    2
    81    60    61    1
    82    19    20    2
    83    27    26   ar
    84   117   116    1
    85    54    53    2
    86    61    63    1
    87    61    62    1
    88   122   124   ar
    89   122   120   ar
    90   107   106    2
    91   115   116    1
    92   124   125   ar
    93   116   119    1
    94    53    52    1
    95   119   120    1
    96   120   121   ar
    97    93    94    1
    98   106   105    1
    99   125   126    1
   100   125   123   ar
   101    52    55    1
   102    52    51    1
   103   104   105    1
   104   104    95   am
   105    28    29    1
   106   121   123   ar
   107    97    94    1
   108    97    98    1
   109    33    35    1
   110    33    34    1
   111    33    32    1
   112    94    95    1
   113   105   108    1
   114   138   136    1
   115    95    96    2
   116   108   109    1
   117    32    29    1
   118    29    30    1
   119    98   100   ar
   120    98    99   ar
   121   100   102   ar
   122   136   135    1
   123   137   135    1
   124   109   110    1
   125    30    31    2
   126    99   101   ar
   127   102   103   ar
   128   135   132    1
   129   110   111    1
   130    46    45    2
   131   101   103   ar
   132   111   112    2
   133   132   131    1
   134   132   133    1
   135    45    44    1
   136   113   112    1
   137   112   114    1
   138    42    40    1
   139   131   129   am
   140    49    48    1
   141   133   134    2
   142    40    41    1
   143    40    37    1
   144    48    50    1
   145    48    47    1
   146    44    47    1
   147    44    43    1
   148   130   129    2
   149   129   128    1
   150   128   127    1
   151    36    37    1
   152    37    38    1
   153    39    38    2
