@<TRIPOS>MOLECULE
tmp/6e5vB00.pdb
 131 122 0 0 0
SMALL
GASTEIGER

@<TRIPOS>ATOM
      1  N         33.4420  -68.4180   -1.2130 N.3    16  PRO16      -0.2116
      2  CA        32.5730  -69.5860   -1.0720 C.3    16  PRO16       0.1372
      3  C         33.1420  -70.6150   -0.0860 C.2    16  PRO16       0.2244
      4  O         33.6600  -71.6610   -0.4960 O.2    16  PRO16      -0.2868
      5  CB        32.4940  -70.1340   -2.5000 C.3    16  PRO16       0.0268
      6  CG        33.7750  -69.7210   -3.1400 C.3    16  PRO16       0.0207
      7  CD        34.3360  -68.5470   -2.3820 C.3    16  PRO16       0.0892
      8  N         33.9530  -76.0740    1.2310 N.3    31  LYS31      -0.1245
      9  CA        34.9630  -75.9730    0.1840 C.3    31  LYS31       0.1561
     10  C         36.3030  -75.6430    0.8340 C.2    31  LYS31       0.2260
     11  O         36.5070  -74.5270    1.3250 O.2    31  LYS31      -0.2867
     12  CB        34.5770  -74.9100   -0.8510 C.3    31  LYS31       0.0271
     13  CG        33.3970  -75.2880   -1.7330 C.3    31  LYS31       0.0035
     14  CD        33.0930  -74.1990   -2.7470 C.3    31  LYS31       0.0206
     15  CE        32.0940  -74.6780   -3.7880 C.3    31  LYS31       0.1093
     16  NZ        31.8400  -73.6400   -4.8240 N.3    31  LYS31      -0.1314
     17  N         38.5060  -73.8880   -2.5760 N.3    34  LYS34      -0.1245
     18  CA        37.7830  -72.7310   -3.1220 C.3    34  LYS34       0.1561
     19  C         37.3480  -71.7390   -2.0390 C.2    34  LYS34       0.2260
     20  O         37.1150  -70.5620   -2.3300 O.2    34  LYS34      -0.2867
     21  CB        36.5670  -73.1810   -3.9400 C.3    34  LYS34       0.0271
     22  CG        36.9050  -73.8940   -5.2390 C.3    34  LYS34       0.0035
     23  CD        35.6490  -74.3470   -5.9640 C.3    34  LYS34       0.0206
     24  CE        35.9970  -75.1500   -7.2060 C.3    34  LYS34       0.1093
     25  NZ        34.7770  -75.6390   -7.9050 N.3    34  LYS34      -0.1314
     26  N         41.4620  -69.3720   -0.2780 N.3    38  ARG38      -0.1245
     27  CA        41.2660  -68.0140   -0.8000 C.3    38  ARG38       0.1563
     28  C         40.9320  -67.0160    0.3090 C.2    38  ARG38       0.2260
     29  O         41.3990  -65.8760    0.2830 O.2    38  ARG38      -0.2867
     30  CB        40.1710  -67.9950   -1.8690 C.3    38  ARG38       0.0307
     31  CG        40.4770  -68.8010   -3.1220 C.3    38  ARG38       0.0489
     32  CD        39.3130  -68.7200   -4.0950 C.3    38  ARG38       0.2205
     33  NE        39.3230  -69.8020   -5.0780 N.pl3  38  ARG38      -0.0865
     34  CZ        38.2730  -70.1770   -5.8090 C.cat  38  ARG38       0.5346
     35  NH1       37.0990  -69.5680   -5.6810 N.pl3  38  ARG38       0.1354
     36  NH2       38.3960  -71.1740   -6.6720 N.pl3  38  ARG38       0.1354
     37  N         33.6020  -65.1560   -6.0240 N.3    99  ALA99      -0.1231
     38  CA        34.1600  -66.2260   -6.8540 C.3    99  ALA99       0.1694
     39  C         33.3390  -66.4760   -8.1240 C.2    99  ALA99       0.2592
     40  O         33.8010  -66.1730   -9.2290 O.2    99  ALA99      -0.2718
     41  CB        34.3270  -67.5050   -6.0470 C.3    99  ALA99       0.0304
     42  N         32.1310  -67.0180   -7.9560 N.am  100  ALA100     -0.1966
     43  CA        31.2370  -67.3290   -9.0730 C.3   100  ALA100      0.1728
     44  C         30.6740  -66.0640   -9.7160 C.2   100  ALA100      0.2616
     45  O         30.3830  -65.0790   -9.0260 O.2   100  ALA100     -0.2715
     46  CB        30.1140  -68.2490   -8.6200 C.3   100  ALA100      0.0334
     47  N         30.5330  -66.1110  -11.0410 N.am  101  SER101     -0.1950
     48  CA        30.0860  -64.9720  -11.8470 C.3   101  SER101      0.1924
     49  C         28.6500  -64.5360  -11.5580 C.2   101  SER101      0.2314
     50  O         28.3690  -63.3350  -11.5120 O.2   101  SER101     -0.2863
     51  CB        30.2640  -65.2730  -13.3340 C.3   101  SER101      0.2116
     52  OG        31.6330  -65.2320  -13.6970 O.3   101  SER101     -0.2180
     53  N         37.9680  -64.2260   -9.5000 N.3   122  ALA122     -0.1231
     54  CA        37.5650  -65.4490  -10.2060 C.3   122  ALA122      0.1694
     55  C         36.4570  -65.2910  -11.2530 C.2   122  ALA122      0.2593
     56  O         36.4020  -66.0740  -12.2070 O.2   122  ALA122     -0.2718
     57  CB        37.1830  -66.5260   -9.2020 C.3   122  ALA122      0.0304
     58  N         35.5810  -64.3020  -11.0690 N.am  123  SER123     -0.1938
     59  CA        34.4350  -64.0890  -11.9640 C.3   123  SER123      0.2055
     60  C         34.8590  -63.5930  -13.3450 C.2   123  SER123      0.2643
     61  O         35.5260  -62.5610  -13.4700 O.2   123  SER123     -0.2714
     62  CB        33.4170  -63.1470  -11.3250 C.3   123  SER123      0.2130
     63  OG        32.8810  -63.7360  -10.1560 O.3   123  SER123     -0.2179
     64  N         34.4610  -64.3420  -14.3730 N.am  124  THR124     -0.1950
     65  CA        34.9630  -64.1430  -15.7370 C.3   124  THR124      0.1897
     66  C         33.8920  -63.8100  -16.7920 C.2   124  THR124      0.2313
     67  O         34.2280  -63.5770  -17.9550 O.2   124  THR124     -0.2863
     68  CB        35.8050  -65.3520  -16.2130 C.3   124  THR124      0.1794
     69  OG1       35.0680  -66.5630  -16.0130 O.3   124  THR124     -0.2208
     70  CG2       37.1290  -65.4360  -15.4570 C.3   124  THR124      0.0378
     71  N         27.7410  -67.7660  -16.2220 N.3   172  TYR172     -0.1241
     72  CA        29.0780  -68.2100  -16.6330 C.3   172  TYR172      0.1605
     73  C         29.0510  -69.0790  -17.8950 C.2   172  TYR172      0.2264
     74  O         29.8410  -68.8600  -18.8170 O.2   172  TYR172     -0.2867
     75  CB        29.8000  -68.9290  -15.4810 C.3   172  TYR172      0.0534
     76  CG        31.1150  -69.5790  -15.8730 C.ar  172  TYR172     -0.0201
     77  CD1       32.2710  -68.8100  -16.0740 C.ar  172  TYR172     -0.0009
     78  CD2       31.2050  -70.9660  -16.0420 C.ar  172  TYR172     -0.0009
     79  CE1       33.4740  -69.4060  -16.4360 C.ar  172  TYR172      0.0417
     80  CE2       32.4030  -71.5690  -16.4060 C.ar  172  TYR172      0.0417
     81  CZ        33.5320  -70.7870  -16.5970 C.ar  172  TYR172      0.1957
     82  OH        34.7180  -71.3840  -16.9520 O.3   172  TYR172     -0.2866
     83  N         30.8020  -76.4710  -15.1510 N.3   226  ASN226     -0.1225
     84  CA        31.4910  -76.6570  -13.8670 C.3   226  ASN226      0.1785
     85  C         31.9190  -78.1070  -13.6050 C.2   226  ASN226      0.2597
     86  O         31.5170  -79.0160  -14.3380 O.2   226  ASN226     -0.2718
     87  CB        30.6560  -76.0890  -12.7030 C.3   226  ASN226      0.1169
     88  CG        29.2610  -76.6870  -12.6220 C.2   226  ASN226      0.2627
     89  OD1       29.0810  -77.8300  -12.1990 O.2   226  ASN226     -0.2716
     90  ND2       28.2610  -75.9030  -13.0080 N.am  226  ASN226     -0.0877
     91  N         32.7290  -78.2970  -12.5560 N.am  227  GLU227     -0.1979
     92  CA        33.3220  -79.5920  -12.1650 C.3   227  GLU227      0.1602
     93  C         32.3810  -80.8010  -12.1900 C.2   227  GLU227      0.2287
     94  O         32.7310  -81.8460  -12.7480 O.2   227  GLU227     -0.2864
     95  CB        33.9620  -79.4860  -10.7770 C.3   227  GLU227      0.0415
     96  CG        35.3590  -78.8900  -10.7640 C.3   227  GLU227      0.1163
     97  CD        36.0070  -78.9540   -9.3940 C.2   227  GLU227      0.3649
     98  OE1       35.5170  -78.2740   -8.4680 O.co2 227  GLU227     -0.2457
     99  OE2       37.0120  -79.6800   -9.2420 O.co2 227  GLU227     -0.2457
    100  N         38.1240  -72.5290  -18.0220 N.3   252  ASP252     -0.1225
    101  CA        38.8760  -72.4380  -16.7560 C.3   252  ASP252      0.1805
    102  C         38.2710  -73.2390  -15.5960 C.2   252  ASP252      0.2598
    103  O         38.9580  -73.5230  -14.6080 O.2   252  ASP252     -0.2718
    104  CB        39.0880  -70.9710  -16.3470 C.3   252  ASP252      0.1424
    105  CG        37.7830  -70.2190  -16.1390 C.2   252  ASP252      0.3668
    106  OD1       37.0530  -69.9920  -17.1290 O.co2 252  ASP252     -0.2456
    107  OD2       37.4970  -69.8390  -14.9830 O.co2 252  ASP252     -0.2456
    108  N         36.9920  -73.5960  -15.7270 N.am  253  SER253     -0.1952
    109  CA        36.3130  -74.4900  -14.7890 C.3   253  SER253      0.1924
    110  C         36.8490  -75.9200  -14.8600 C.2   253  SER253      0.2314
    111  O         36.8170  -76.6440  -13.8610 O.2   253  SER253     -0.2863
    112  CB        34.8050  -74.4730  -15.0240 C.3   253  SER253      0.2116
    113  OG        34.2210  -73.3150  -14.4560 O.3   253  SER253     -0.2180
    114  N         42.2170  -79.5890  -13.3450 N.3   257  LYS257     -0.1245
    115  CA        41.5770  -80.2640  -12.2140 C.3   257  LYS257      0.1561
    116  C         41.4870  -81.7710  -12.4210 C.2   257  LYS257      0.2260
    117  O         41.0120  -82.2420  -13.4570 O.2   257  LYS257     -0.2867
    118  CB        40.1900  -79.6740  -11.9350 C.3   257  LYS257      0.0271
    119  CG        40.2130  -78.2540  -11.3880 C.3   257  LYS257      0.0035
    120  CD        38.8190  -77.6530  -11.3570 C.3   257  LYS257      0.0206
    121  CE        38.8460  -76.2140  -10.8680 C.3   257  LYS257      0.1093
    122  NZ        37.4810  -75.6240  -10.7840 N.3   257  LYS257     -0.1314
    123  N         43.8200  -69.9690   -7.8030 N.3   344  LYS344     -0.1245
    124  CA        43.3690  -68.5710   -7.8450 C.3   344  LYS344      0.1561
    125  C         43.8890  -67.7370   -6.6620 C.2   344  LYS344      0.2260
    126  O         43.5530  -66.5530   -6.5400 O.2   344  LYS344     -0.2867
    127  CB        41.8370  -68.4920   -7.9420 C.3   344  LYS344      0.0271
    128  CG        41.2510  -69.0950   -9.2100 C.3   344  LYS344      0.0035
    129  CD        39.7390  -69.2070   -9.1160 C.3   344  LYS344      0.0206
    130  CE        39.1920  -70.3310   -9.9850 C.3   344  LYS344      0.1093
    131  NZ        39.2740  -70.0430  -11.4450 N.3   344  LYS344     -0.1314
@<TRIPOS>BOND
     1    74    73    2
     2   100   101    1
     3    67    66    2
     4    73    72    1
     5   106   105   ar
     6    82    81    1
     7    66    65    1
     8   101   104    1
     9   101   102    1
    10    72    71    1
    11    72    75    1
    12    81    79   ar
    13    81    80   ar
    14    79    77   ar
    15    80    78   ar
    16   104   105    1
    17    68    69    1
    18    68    65    1
    19    68    70    1
    20   105   107   ar
    21    77    76   ar
    22    78    76   ar
    23    76    75    1
    24    65    64    1
    25   108   102   am
    26   108   109    1
    27   102   103    2
    28    83    84    1
    29   112   109    1
    30   112   113    1
    31   110   109    1
    32   110   111    2
    33    64    60   am
    34    86    85    2
    35    84    85    1
    36    84    87    1
    37    52    51    1
    38    85    91   am
    39    61    60    2
    40   117   116    2
    41    60    59    1
    42   114   115    1
    43    51    48    1
    44    90    88   am
    45    94    93    2
    46    87    88    1
    47    88    89    2
    48    91    92    1
    49   116   115    1
    50   115   118    1
    51    56    55    2
    52    93    92    1
    53    92    95    1
    54    59    62    1
    55    59    58    1
    56   118   119    1
    57    48    49    1
    58    48    47    1
    59    49    50    2
    60   131   130    1
    61   119   120    1
    62   120   121    1
    63    62    63    1
    64    55    58   am
    65    55    54    1
    66    47    44   am
    67   121   122    1
    68    95    96    1
    69    96    97    1
    70    54    53    1
    71    54    57    1
    72   130   129    1
    73    44    43    1
    74    44    45    2
    75    97    99   ar
    76    97    98   ar
    77    40    39    2
    78   128   129    1
    79   128   127    1
    80    43    46    1
    81    43    42    1
    82    39    42   am
    83    39    38    1
    84   127   124    1
    85    25    24    1
    86   124   123    1
    87   124   125    1
    88    24    23    1
    89    38    41    1
    90    38    37    1
    91    36    34    1
    92   125   126    2
    93    23    22    1
    94    34    35    1
    95    34    33    2
    96    22    21    1
    97    33    32    1
    98    16    15    1
    99    32    31    1
   100    21    18    1
   101    15    14    1
   102     6     5    1
   103     6     7    1
   104    18    17    1
   105    18    19    1
   106    31    30    1
   107    14    13    1
   108     5     2    1
   109     7     1    1
   110    20    19    2
   111    30    27    1
   112    13    12    1
   113     1     2    1
   114     2     3    1
   115    12     9    1
   116    27    26    1
   117    27    28    1
   118     4     3    2
   119     9    10    1
   120     9     8    1
   121    29    28    2
   122    10    11    2
