@<TRIPOS>MOLECULE
tmp/6e5wC00.pdb
 233 217 0 0 0
SMALL
GASTEIGER

@<TRIPOS>ATOM
      1  N         19.3290   25.1840    7.5920 N.3    12  GLN12      -0.1245
      2  CA        19.3220   23.7530    7.3760 C.3    12  GLN12       0.1566
      3  C         18.1290   23.1290    8.0820 C.2    12  GLN12       0.2260
      4  O         17.5180   23.7390    8.9540 O.2    12  GLN12      -0.2867
      5  CB        20.6340   23.1430    7.8520 C.3    12  GLN12       0.0367
      6  CG        20.8420   23.1500    9.3230 C.3    12  GLN12       0.0905
      7  CD        22.2180   22.6460    9.6810 C.2    12  GLN12       0.2608
      8  OE1       23.0020   22.3000    8.8050 O.2    12  GLN12      -0.2717
      9  NE2       22.5500   22.6660   10.9590 N.am   12  GLN12      -0.0878
     10  N         19.4790   18.0900    9.9190 N.3    15  MET15      -0.1245
     11  CA        20.8900   17.7300   10.0160 C.3    15  MET15       0.1570
     12  C         21.1340   16.6740   11.1100 C.2    15  MET15       0.2261
     13  O         22.0010   15.8020   10.9410 O.2    15  MET15      -0.2867
     14  CB        21.7250   18.9940   10.2580 C.3    15  MET15       0.0387
     15  CG        23.2190   18.7710   10.4330 C.3    15  MET15       0.0595
     16  SD        24.0620   17.9320    9.0470 S.3    15  MET15      -0.1393
     17  CE        24.0790   19.2670    7.8760 C.3    15  MET15       0.0692
     18  N         20.7530   13.1800    9.5870 N.3    18  TYR18      -0.1227
     19  CA        21.8630   12.7720    8.7370 C.3    18  TYR18       0.1736
     20  C         23.0880   12.3720    9.5620 C.2    18  TYR18       0.2595
     21  O         23.7090   11.3260    9.3080 O.2    18  TYR18      -0.2718
     22  CB        22.2030   13.9120    7.7860 C.3    18  TYR18       0.0548
     23  CG        23.4340   13.7280    6.9510 C.ar   18  TYR18      -0.0200
     24  CD1       23.4570   12.8620    5.8710 C.ar   18  TYR18      -0.0009
     25  CD2       24.5620   14.4640    7.2210 C.ar   18  TYR18      -0.0009
     26  CE1       24.5990   12.7230    5.0740 C.ar   18  TYR18       0.0417
     27  CE2       25.7260   14.3310    6.4330 C.ar   18  TYR18       0.0417
     28  CZ        25.7330   13.4510    5.3580 C.ar   18  TYR18       0.1957
     29  OH        26.8890   13.3260    4.5950 O.3    18  TYR18      -0.2866
     30  N         23.4180   13.1800   10.5800 N.am   19  LEU19      -0.1980
     31  CA        24.5560   12.8810   11.4310 C.3    19  LEU19       0.1596
     32  C         24.3490   11.5760   12.1850 C.2    19  LEU19       0.2287
     33  O         25.2960   10.8050   12.3640 O.2    19  LEU19      -0.2864
     34  CB        24.7910   14.0400   12.3910 C.3    19  LEU19       0.0297
     35  CG        25.2840   15.3230   11.7050 C.3    19  LEU19       0.0022
     36  CD1       25.3280   16.4770   12.6840 C.3    19  LEU19       0.0001
     37  CD2       26.6490   15.1090   11.0800 C.3    19  LEU19       0.0001
     38  N         25.1110    8.6770    9.9100 N.3    22  LEU22      -0.1245
     39  CA        26.5360    8.4290    9.7860 C.3    22  LEU22       0.1561
     40  C         27.1740    7.9820   11.0830 C.2    22  LEU22       0.2260
     41  O         28.4000    7.8510   11.1280 O.2    22  LEU22      -0.2867
     42  CB        27.2700    9.6780    9.3060 C.3    22  LEU22       0.0270
     43  CG        26.9090   10.1890    7.9250 C.3    22  LEU22       0.0019
     44  CD1       27.6690   11.5080    7.6410 C.3    22  LEU22       0.0001
     45  CD2       27.1980    9.0930    6.8810 C.3    22  LEU22       0.0001
     46  N         27.6880    9.3740   13.8670 N.3    24  ILE24      -0.1245
     47  CA        28.5110   10.3690   14.5180 C.3    24  ILE24       0.1561
     48  C         28.0400   10.5070   15.9540 C.2    24  ILE24       0.2260
     49  O         26.8320   10.5110   16.2410 O.2    24  ILE24      -0.2867
     50  CB        28.4800   11.6760   13.7300 C.3    24  ILE24       0.0252
     51  CG1       29.3330   11.4480   12.4780 C.3    24  ILE24       0.0019
     52  CG2       29.0240   12.8310   14.5420 C.3    24  ILE24       0.0019
     53  CD1       28.9600   12.3560   11.3530 C.3    24  ILE24       0.0001
     54  N         29.7790   14.8310   19.3100 N.3    28  VAL28      -0.1245
     55  CA        30.1450   15.5990   18.1410 C.3    28  VAL28       0.1561
     56  C         28.9100   16.2320   17.4920 C.2    28  VAL28       0.2260
     57  O         29.0350   17.2460   16.7990 O.2    28  VAL28      -0.2867
     58  CB        30.9400   14.7220   17.1650 C.3    28  VAL28       0.0252
     59  CG1       31.3040   15.5280   15.9480 C.3    28  VAL28       0.0019
     60  CG2       32.1950   14.1570   17.8450 C.3    28  VAL28       0.0019
     61  N         28.2490   19.9070   16.0890 N.3    32  ALA32      -0.1245
     62  CA        28.0650   20.0570   14.6560 C.3    32  ALA32       0.1562
     63  C         26.7900   20.8090   14.3120 C.2    32  ALA32       0.2260
     64  O         26.7650   21.5630   13.3280 O.2    32  ALA32      -0.2867
     65  CB        28.0610   18.6800   14.0050 C.3    32  ALA32       0.0290
     66  N         27.0900   24.5780   14.0460 N.3    35  LEU35      -0.1245
     67  CA        27.9110   25.0850   12.9660 C.3    35  LEU35       0.1561
     68  C         27.0730   25.7230   11.8720 C.2    35  LEU35       0.2260
     69  O         25.9020   25.3890   11.6610 O.2    35  LEU35      -0.2867
     70  CB        28.7560   23.9570   12.3770 C.3    35  LEU35       0.0270
     71  CG        29.7240   23.3240   13.3690 C.3    35  LEU35       0.0019
     72  CD1       30.4250   22.1200   12.7320 C.3    35  LEU35       0.0001
     73  CD2       30.7250   24.3960   13.8740 C.3    35  LEU35       0.0001
     74  N         28.4070   26.3250    8.3420 N.3    37  PRO37      -0.2116
     75  CA        29.5450   26.2030    7.4240 C.3    37  PRO37       0.1372
     76  C         29.3060   26.9340    6.1160 C.2    37  PRO37       0.2244
     77  O         28.1730   27.0260    5.6350 O.2    37  PRO37      -0.2868
     78  CB        29.6200   24.6950    7.1730 C.3    37  PRO37       0.0268
     79  CG        28.2090   24.2770    7.1950 C.3    37  PRO37       0.0207
     80  CD        27.6030   25.0930    8.3640 C.3    37  PRO37       0.0892
     81  N         30.4450   27.2810    1.8490 N.3    39  LYS39      -0.1245
     82  CA        30.8990   26.4930    0.7050 C.3    39  LYS39       0.1561
     83  C         31.7110   27.3670   -0.2320 C.2    39  LYS39       0.2260
     84  O         31.2480   28.4370   -0.6290 O.2    39  LYS39      -0.2867
     85  CB        29.7370   25.9250   -0.1030 C.3    39  LYS39       0.0271
     86  CG        28.8520   24.9880    0.6110 C.3    39  LYS39       0.0035
     87  CD        29.4530   23.6280    0.7370 C.3    39  LYS39       0.0206
     88  CE        28.5950   22.8280    1.6460 C.3    39  LYS39       0.1093
     89  NZ        29.2330   21.5330    1.9710 N.3    39  LYS39      -0.1314
     90  N         34.0520   22.6410    2.2060 N.3    52  THR52      -0.1218
     91  CA        33.1370   22.9130    3.2990 C.3    52  THR52       0.1862
     92  C         33.9560   23.5030    4.4540 C.2    52  THR52       0.2287
     93  O         34.9410   22.9000    4.8910 O.2    52  THR52      -0.2866
     94  CB        32.4170   21.6150    3.6740 C.3    52  THR52       0.1770
     95  OG1       31.8130   21.0440    2.4860 O.3    52  THR52      -0.2211
     96  CG2       31.3460   21.8410    4.7700 C.3    52  THR52       0.0375
     97  N         34.3400   25.4330    8.2440 N.3    54  SER54      -0.1217
     98  CA        33.7920   25.8620    9.5230 C.3    54  SER54       0.1889
     99  C         34.9130   26.0860   10.5360 C.2    54  SER54       0.2288
    100  O         36.0430   25.6150   10.3700 O.2    54  SER54      -0.2866
    101  CB        32.7820   24.8440   10.0610 C.3    54  SER54       0.2089
    102  OG        33.4430   23.7520   10.6970 O.3    54  SER54      -0.2183
    103  N         35.0230   24.6860   13.3240 N.3    56  PHE56      -0.1227
    104  CA        35.3220   23.3780   13.8870 C.3    56  PHE56       0.1736
    105  C         36.2150   22.5440   12.9680 C.2    56  PHE56       0.2595
    106  O         37.0960   21.8200   13.4290 O.2    56  PHE56      -0.2718
    107  CB        34.0120   22.6290   14.1610 C.3    56  PHE56       0.0547
    108  CG        34.2160   21.2710   14.7720 C.ar   56  PHE56      -0.0202
    109  CD1       34.7070   21.1460   16.0660 C.ar   56  PHE56      -0.0042
    110  CD2       33.9540   20.1230   14.0470 C.ar   56  PHE56      -0.0042
    111  CE1       34.9160   19.9120   16.6400 C.ar   56  PHE56      -0.0003
    112  CE2       34.1770   18.8810   14.6090 C.ar   56  PHE56      -0.0003
    113  CZ        34.6620   18.7850   15.9200 C.ar   56  PHE56      -0.0000
    114  N         35.9960   22.5970   11.6730 N.am   57  ARG57      -0.1966
    115  CA        36.7050   21.6660   10.8110 C.3    57  ARG57       0.1729
    116  C         36.4190   22.0090    9.3500 C.2    57  ARG57       0.2616
    117  O         35.3430   22.5200    9.0360 O.2    57  ARG57      -0.2715
    118  CB        36.2910   20.2260   11.1370 C.3    57  ARG57       0.0348
    119  CG        37.2550   19.1990   10.5690 C.3    57  ARG57       0.0492
    120  CD        36.8310   17.7880   10.8820 C.3    57  ARG57       0.2205
    121  NE        37.2130   17.3830   12.2300 N.pl3  57  ARG57      -0.0865
    122  CZ        36.7040   16.3330   12.8660 C.cat  57  ARG57       0.5346
    123  NH1       35.7810   15.5610   12.2850 N.pl3  57  ARG57       0.1354
    124  NH2       37.1280   16.0540   14.0910 N.pl3  57  ARG57       0.1354
    125  N         37.3780   21.7890    8.4660 N.am   58  ASN58      -0.1958
    126  CA        37.1540   21.9560    7.0370 C.3    58  ASN58       0.1819
    127  C         37.1460   20.5800    6.3700 C.2    58  ASN58       0.2621
    128  O         37.8070   19.6510    6.8340 O.2    58  ASN58      -0.2715
    129  CB        38.2280   22.8510    6.4330 C.3    58  ASN58       0.1195
    130  CG        38.2160   24.2550    7.0210 C.2    58  ASN58       0.2630
    131  OD1       37.2010   24.7470    7.5340 O.2    58  ASN58      -0.2716
    132  ND2       39.3870   24.8810    7.0250 N.am   58  ASN58      -0.0877
    133  N         36.3490   20.4360    5.3160 N.am   59  TYR59      -0.1974
    134  CA        36.3920   19.2380    4.4850 C.3    59  TYR59       0.1639
    135  C         36.4320   19.6570    3.0190 C.2    59  TYR59       0.2290
    136  O         35.5890   20.4480    2.5820 O.2    59  TYR59      -0.2864
    137  CB        35.1920   18.3030    4.7240 C.3    59  TYR59       0.0560
    138  CG        35.3080   17.0650    3.8760 C.ar   59  TYR59      -0.0198
    139  CD1       36.3100   16.1590    4.1210 C.ar   59  TYR59      -0.0009
    140  CD2       34.4650   16.8350    2.7830 C.ar   59  TYR59      -0.0009
    141  CE1       36.4620   15.0300    3.3420 C.ar   59  TYR59       0.0417
    142  CE2       34.6040   15.6940    1.9810 C.ar   59  TYR59       0.0417
    143  CZ        35.6120   14.7960    2.2670 C.ar   59  TYR59       0.1957
    144  OH        35.7910   13.6560    1.4980 O.3    59  TYR59      -0.2866
    145  N         37.0400    8.3130   -2.0220 N.3    71  GLU71      -0.1245
    146  CA        36.8520    9.4890   -1.1910 C.3    71  GLU71       0.1567
    147  C         37.1330    9.1350    0.2690 C.2    71  GLU71       0.2260
    148  O         36.5040    8.2220    0.8470 O.2    71  GLU71      -0.2867
    149  CB        35.4460   10.0690   -1.3610 C.3    71  GLU71       0.0388
    150  CG        35.2630   11.4220   -0.6140 C.3    71  GLU71       0.1160
    151  CD        33.8660   12.0230   -0.7260 C.2    71  GLU71       0.3649
    152  OE1       32.9550   11.4450   -1.3780 O.co2  71  GLU71      -0.2457
    153  OE2       33.6820   13.1160   -0.1490 O.co2  71  GLU71      -0.2457
    154  N         36.7540    9.9600    3.8200 N.3    73  LEU73      -0.1245
    155  CA        35.9050   10.6480    4.7740 C.3    73  LEU73       0.1561
    156  C         36.2970   10.3260    6.2250 C.2    73  LEU73       0.2260
    157  O         35.4540   10.4020    7.1310 O.2    73  LEU73      -0.2867
    158  CB        34.4460   10.2770    4.4910 C.3    73  LEU73       0.0270
    159  CG        33.9530   10.9330    3.1880 C.3    73  LEU73       0.0019
    160  CD1       32.8540   10.0740    2.5070 C.3    73  LEU73       0.0001
    161  CD2       33.4860   12.3690    3.4030 C.3    73  LEU73       0.0001
    162  N         38.1460   11.8920    8.2790 N.3    75  SER75      -0.1202
    163  CA        37.9890   13.1130    9.0630 C.3    75  SER75       0.2020
    164  C         36.5250   13.5060    9.3260 C.2    75  SER75       0.2618
    165  O         36.2850   14.4630   10.0850 O.2    75  SER75      -0.2717
    166  CB        38.6930   14.2750    8.3630 C.3    75  SER75       0.2103
    167  OG        37.9780   14.6730    7.1870 O.3    75  SER75      -0.2182
    168  N         35.5450   12.8210    8.7360 N.am   76  VAL76      -0.1979
    169  CA        34.1300   13.0890    8.9810 C.3    76  VAL76       0.1595
    170  C         33.5090   11.9980    9.8640 C.2    76  VAL76       0.2287
    171  O         33.0430   12.2730   10.9660 O.2    76  VAL76      -0.2864
    172  CB        33.3560   13.2380    7.6530 C.3    76  VAL76       0.0276
    173  CG1       31.8230   13.3800    7.9000 C.3    76  VAL76       0.0022
    174  CG2       33.9340   14.3960    6.8220 C.3    76  VAL76       0.0022
    175  N         28.1210    8.0500   -2.9150 N.3    96  GLN96      -0.1245
    176  CA        29.2740    7.5870   -2.1470 C.3    96  GLN96       0.1566
    177  C         29.0150    6.1410   -1.7210 C.2    96  GLN96       0.2260
    178  O         28.3610    5.8990   -0.6970 O.2    96  GLN96      -0.2867
    179  CB        29.4940    8.4910   -0.9330 C.3    96  GLN96       0.0367
    180  CG        29.7570    9.9400   -1.2760 C.3    96  GLN96       0.0905
    181  CD        29.5480   10.8920   -0.1110 C.2    96  GLN96       0.2608
    182  OE1       28.5870   10.7730    0.6710 O.2    96  GLN96      -0.2717
    183  NE2       30.4400   11.8840   -0.0140 N.am   96  GLN96      -0.0878
    184  N         24.1030    6.8320    0.6180 N.3   103  ARG103     -0.1245
    185  CA        24.9140    7.9470    1.0490 C.3   103  ARG103      0.1563
    186  C         25.2640    8.7670   -0.1700 C.2   103  ARG103      0.2260
    187  O         25.6940    8.2180   -1.1950 O.2   103  ARG103     -0.2867
    188  CB        26.1760    7.4810    1.7740 C.3   103  ARG103      0.0307
    189  CG        26.8430    8.5710    2.5980 C.3   103  ARG103      0.0489
    190  CD        28.1930    8.1030    3.0230 C.3   103  ARG103      0.2205
    191  NE        29.0200    9.1250    3.6490 N.pl3 103  ARG103     -0.0865
    192  CZ        29.9980    8.8380    4.5170 C.cat 103  ARG103      0.5346
    193  NH1       30.2430    7.5750    4.8230 N.pl3 103  ARG103      0.1354
    194  NH2       30.7350    9.7860    5.0790 N.pl3 103  ARG103      0.1354
    195  N         24.9130   13.1780   -1.9490 N.3   105  TRP105     -0.1241
    196  CA        24.3680   14.5190   -1.8670 C.3   105  TRP105      0.1605
    197  C         24.0290   15.0060   -3.2520 C.2   105  TRP105      0.2264
    198  O         24.4960   14.4580   -4.2420 O.2   105  TRP105     -0.2867
    199  CB        25.3350   15.4740   -1.1800 C.3   105  TRP105      0.0550
    200  CG        26.7640   15.4200   -1.5970 C.ar  105  TRP105      0.0003
    201  CD1       27.7780   14.8090   -0.9180 C.ar  105  TRP105      0.0946
    202  CD2       27.3690   16.0400   -2.7390 C.ar  105  TRP105      0.0152
    203  NE1       28.9740   15.0020   -1.5620 N.ar  105  TRP105     -0.2442
    204  CE2       28.7530   15.7450   -2.6910 C.ar  105  TRP105      0.0810
    205  CE3       26.8850   16.8050   -3.7940 C.ar  105  TRP105      0.0012
    206  CZ2       29.6420   16.1980   -3.6400 C.ar  105  TRP105      0.0191
    207  CZ3       27.7820   17.2470   -4.7540 C.ar  105  TRP105      0.0001
    208  CH2       29.1440   16.9400   -4.6670 C.ar  105  TRP105      0.0015
    209  N         21.5590   22.2870   -1.0380 N.3   116  LEU116     -0.1245
    210  CA        22.2980   21.0580   -0.7990 C.3   116  LEU116      0.1561
    211  C         21.4050   20.0830   -0.0600 C.2   116  LEU116      0.2260
    212  O         20.8230   20.4390    0.9590 O.2   116  LEU116     -0.2867
    213  CB        23.5350   21.3160    0.0210 C.3   116  LEU116      0.0270
    214  CG        24.3390   20.0580    0.3750 C.3   116  LEU116      0.0019
    215  CD1       24.7630   19.3040   -0.8450 C.3   116  LEU116      0.0001
    216  CD2       25.5820   20.4510    1.1870 C.3   116  LEU116      0.0001
    217  N         21.5640   16.2890    1.7270 N.3   118  LEU118     -0.1245
    218  CA        22.4560   15.2370    2.2000 C.3   118  LEU118      0.1561
    219  C         21.6510   13.9920    2.5400 C.2   118  LEU118      0.2260
    220  O         20.5750   14.0930    3.1310 O.2   118  LEU118     -0.2867
    221  CB        23.2480   15.7010    3.4070 C.3   118  LEU118      0.0270
    222  CG        24.1580   16.8850    3.1100 C.3   118  LEU118      0.0019
    223  CD1       24.4180   17.6640    4.3950 C.3   118  LEU118      0.0001
    224  CD2       25.4490   16.3780    2.5610 C.3   118  LEU118      0.0001
    225  N         20.1210   21.7700    3.2300 N.3   127  GLN127     -0.1245
    226  CA        20.8100   23.0140    3.5440 C.3   127  GLN127      0.1566
    227  C         20.6100   24.0310    2.4270 C.2   127  GLN127      0.2260
    228  O         20.3230   23.6770    1.2880 O.2   127  GLN127     -0.2867
    229  CB        22.2950   22.7910    3.7430 C.3   127  GLN127      0.0367
    230  CG        22.5850   21.7740    4.8290 C.3   127  GLN127      0.0905
    231  CD        24.0340   21.7460    5.1740 C.2   127  GLN127      0.2608
    232  OE1       24.8940   21.6550    4.2960 O.2   127  GLN127     -0.2717
    233  NE2       24.3270   21.8030    6.4640 N.am  127  GLN127     -0.0878
@<TRIPOS>BOND
     1   207   208   ar
     2   207   205   ar
     3   208   206   ar
     4   198   197    2
     5   205   202   ar
     6   206   204   ar
     7   197   196    1
     8   175   176    1
     9   202   204   ar
    10   202   200   ar
    11   204   203   ar
    12   176   177    1
    13   176   179    1
    14   145   146    1
    15   195   196    1
    16   196   199    1
    17   177   178    2
    18   200   199    1
    19   200   201   ar
    20   203   201   ar
    21   152   151   ar
    22   149   146    1
    23   149   150    1
    24   180   179    1
    25   180   181    1
    26   187   186    2
    27   146   147    1
    28   209   210    1
    29   215   214    1
    30   210   211    1
    31   210   213    1
    32   151   150    1
    33   151   153   ar
    34    84    83    2
    35    83    82    1
    36   186   185    1
    37   181   183   am
    38   181   182    2
    39    85    86    1
    40    85    82    1
    41   211   212    2
    42   213   214    1
    43   147   148    2
    44   214   216    1
    45    86    87    1
    46   184   185    1
    47    82    81    1
    48    87    88    1
    49   185   188    1
    50   228   227    2
    51   144   143    1
    52    88    89    1
    53   217   218    1
    54   188   189    1
    55   142   143   ar
    56   142   140   ar
    57   218   219    1
    58   218   221    1
    59    90    91    1
    60   143   141   ar
    61   227   226    1
    62    95    94    1
    63   160   159    1
    64   219   220    2
    65   224   222    1
    66   136   135    2
    67   189   190    1
    68   140   138   ar
    69   135   134    1
    70   190   191    1
    71   222   221    1
    72   222   223    1
    73   159   161    1
    74   159   158    1
    75   225   226    1
    76    91    94    1
    77    91    92    1
    78   141   139   ar
    79   226   229    1
    80   191   192    2
    81    94    96    1
    82   229   230    1
    83   154   155    1
    84   138   139   ar
    85   138   137    1
    86   232   231    2
    87    92    93    2
    88   134   137    1
    89   134   133    1
    90   158   155    1
    91   192   193    1
    92   192   194    1
    93    29    28    1
    94   155   156    1
    95   230   231    1
    96    26    28   ar
    97    26    24   ar
    98   231   233   am
    99   133   127   am
   100    28    27   ar
   101    77    76    2
   102    24    23   ar
   103    76    75    1
   104   156   157    2
   105   127   128    2
   106   127   126    1
   107   129   130    1
   108   129   126    1
   109    27    25   ar
   110   174   172    1
   111    45    43    1
   112    23    25   ar
   113    23    22    1
   114   130   132   am
   115   130   131    2
   116   126   125    1
   117    78    79    1
   118    78    75    1
   119   167   166    1
   120    79    80    1
   121     2     1    1
   122     2     5    1
   123     2     3    1
   124    75    74    1
   125    44    43    1
   126   172   173    1
   127   172   169    1
   128    22    19    1
   129     5     6    1
   130    17    16    1
   131    43    42    1
   132     3     4    2
   133    97    98    1
   134   162   163    1
   135    74    80    1
   136   166   163    1
   137   125   116   am
   138   168   169    1
   139   168   164   am
   140    19    20    1
   141    19    18    1
   142     8     7    2
   143   169   170    1
   144   117   116    2
   145    16    15    1
   146   163   164    1
   147    42    39    1
   148    21    20    2
   149     6     7    1
   150   164   165    2
   151   116   115    1
   152    98   101    1
   153    98    99    1
   154    20    30   am
   155     7     9   am
   156    39    38    1
   157    39    40    1
   158   170   171    2
   159    10    11    1
   160    11    14    1
   161    11    12    1
   162   101   102    1
   163    14    15    1
   164   100    99    2
   165   119   120    1
   166   119   118    1
   167    30    31    1
   168   115   118    1
   169   115   114    1
   170   120   121    1
   171    13    12    2
   172    37    35    1
   173    40    41    2
   174    53    51    1
   175    31    32    1
   176    31    34    1
   177    69    68    2
   178   114   105   am
   179    35    34    1
   180    35    36    1
   181    68    67    1
   182    32    33    2
   183   121   122    2
   184   123   122    1
   185    70    67    1
   186    70    71    1
   187    51    50    1
   188    72    71    1
   189   122   124    1
   190    67    66    1
   191   105   106    2
   192   105   104    1
   193   103   104    1
   194    64    63    2
   195    71    73    1
   196    50    47    1
   197    50    52    1
   198    46    47    1
   199   104   107    1
   200    65    62    1
   201   110   112   ar
   202   110   108   ar
   203   107   108    1
   204    63    62    1
   205    47    48    1
   206   112   113   ar
   207    62    61    1
   208   108   109   ar
   209   113   111   ar
   210    59    58    1
   211    48    49    2
   212   109   111   ar
   213    57    56    2
   214    58    60    1
   215    58    55    1
   216    56    55    1
   217    55    54    1
