@<TRIPOS>MOLECULE
tmp/6e5yA01.pdb
 117 111 0 0 0
SMALL
GASTEIGER

@<TRIPOS>ATOM
      1  N        108.6490  -15.7210    7.9580 N.3    98  TYR98      -0.1241
      2  CA       108.1300  -16.3950    9.1420 C.3    98  TYR98       0.1605
      3  C        106.6530  -16.6650    8.9050 C.2    98  TYR98       0.2264
      4  O        105.8890  -15.7460    8.5660 O.2    98  TYR98      -0.2867
      5  CB       108.3130  -15.5510   10.4040 C.3    98  TYR98       0.0534
      6  CG       107.5100  -15.9790   11.6010 C.ar   98  TYR98      -0.0201
      7  CD1      107.5260  -17.2930   12.0670 C.ar   98  TYR98      -0.0009
      8  CD2      106.8060  -15.0570   12.3600 C.ar   98  TYR98      -0.0009
      9  CE1      106.8360  -17.6770   13.1980 C.ar   98  TYR98       0.0417
     10  CE2      106.1350  -15.4260   13.5080 C.ar   98  TYR98       0.0417
     11  CZ       106.1390  -16.7410   13.9390 C.ar   98  TYR98       0.1957
     12  OH       105.4810  -17.1580   15.0590 O.3    98  TYR98      -0.2866
     13  N        103.2440  -19.3270   15.6600 N.3   102  THR102     -0.1204
     14  CA       102.7990  -19.1530   17.0370 C.3   102  THR102      0.1979
     15  C        101.4510  -18.4460   17.0240 C.2   102  THR102      0.2459
     16  O        100.5280  -18.9240   17.6750 O.2   102  THR102     -0.2732
     17  CB       103.8590  -18.4750   17.9040 C.3   102  THR102      0.1783
     18  OG1      104.9610  -19.3840   18.0440 O.3   102  THR102     -0.2211
     19  CG2      103.3340  -18.1410   19.2800 C.3   102  THR102      0.0376
     20  N        101.2910  -17.3140   16.2990 N.am  103  PRO103     -0.2728
     21  CA        99.9850  -16.6520   16.2450 C.3   103  PRO103      0.1401
     22  C         98.8410  -17.5990   15.8720 C.2   103  PRO103      0.2269
     23  O         97.7740  -17.5270   16.4540 O.2   103  PRO103     -0.2865
     24  CB       100.1900  -15.5930   15.1570 C.3   103  PRO103      0.0296
     25  CG       101.6340  -15.2470   15.2220 C.3   103  PRO103      0.0237
     26  CD       102.3530  -16.4930   15.7090 C.3   103  PRO103      0.0939
     27  N        105.2220  -10.1320   26.6320 N.3   133  GLY133     -0.1210
     28  CA       105.1660  -10.7990   25.3330 C.3   133  GLY133      0.1956
     29  C        103.8960  -10.4780   24.5550 C.2   133  GLY133      0.2612
     30  O        103.0880   -9.6340   24.9620 O.2   133  GLY133     -0.2717
     31  N        103.7310  -11.1810   23.4340 N.am  134  ASN134     -0.1960
     32  CA       102.5810  -11.0130   22.5930 C.3   134  ASN134      0.1819
     33  C        101.4150  -11.8950   23.0460 C.2   134  ASN134      0.2621
     34  O        100.2640  -11.5000   22.8990 O.2   134  ASN134     -0.2715
     35  CB       102.8850  -11.4150   21.1690 C.3   134  ASN134      0.1195
     36  CG       103.9140  -10.5130   20.5300 C.2   134  ASN134      0.2630
     37  OD1      103.8440   -9.2880   20.6770 O.2   134  ASN134     -0.2716
     38  ND2      104.8300  -11.1110   19.7930 N.am  134  ASN134     -0.0877
     39  N        101.7370  -13.0860   23.5580 N.am  135  ASP135     -0.1971
     40  CA       100.7320  -14.1170   23.8750 C.3   135  ASP135      0.1709
     41  C         99.7190  -13.6810   24.9370 C.2   135  ASP135      0.2293
     42  O         98.5700  -14.1160   24.8810 O.2   135  ASP135     -0.2864
     43  CB       101.4100  -15.4190   24.2870 C.3   135  ASP135      0.1436
     44  CG       102.0700  -16.1330   23.1380 C.2   135  ASP135      0.3671
     45  OD1      101.6570  -15.9080   21.9720 O.co2 135  ASP135     -0.2456
     46  OD2      103.0060  -16.9010   23.3950 O.co2 135  ASP135     -0.2456
     47  N         97.0840  -11.9790   22.9260 N.3   138  ARG138     -0.1245
     48  CA        96.3950  -12.9130   22.0250 C.3   138  ARG138      0.1563
     49  C         95.3990  -13.7630   22.8240 C.2   138  ARG138      0.2260
     50  O         94.2320  -13.8830   22.4670 O.2   138  ARG138     -0.2867
     51  CB        97.3880  -13.8170   21.3020 C.3   138  ARG138      0.0307
     52  CG        98.3220  -13.1010   20.3290 C.3   138  ARG138      0.0489
     53  CD        99.3920  -14.0210   19.7950 C.3   138  ARG138      0.2205
     54  NE       100.3360  -13.3020   18.9480 N.pl3 138  ARG138     -0.0865
     55  CZ       101.6190  -13.6090   18.7660 C.cat 138  ARG138      0.5346
     56  NH1      102.1760  -14.6080   19.4430 N.pl3 138  ARG138      0.1354
     57  NH2      102.3430  -12.8770   17.9260 N.pl3 138  ARG138      0.1354
     58  N        109.4440  -21.9720   17.2480 N.3   200  THR200     -0.1218
     59  CA       110.1120  -20.7080   17.3950 C.3   200  THR200      0.1862
     60  C        111.1270  -20.8180   18.5340 C.2   200  THR200      0.2287
     61  O        110.8530  -21.4660   19.5570 O.2   200  THR200     -0.2866
     62  CB       109.1350  -19.5700   17.7030 C.3   200  THR200      0.1770
     63  OG1      108.7210  -19.6950   19.0580 O.3   200  THR200     -0.2211
     64  CG2      107.9250  -19.5540   16.8020 C.3   200  THR200      0.0375
     65  N        113.8110  -18.3750   20.8280 N.3   202  GLU202     -0.1245
     66  CA       114.0420  -16.9820   21.1780 C.3   202  GLU202      0.1567
     67  C        114.5700  -16.8800   22.6050 C.2   202  GLU202      0.2260
     68  O        114.6440  -17.8750   23.3250 O.2   202  GLU202     -0.2867
     69  CB       112.7420  -16.1870   21.0640 C.3   202  GLU202      0.0388
     70  CG       111.6810  -16.5560   22.0750 C.3   202  GLU202      0.1160
     71  CD       110.2830  -16.0750   21.7060 C.2   202  GLU202      0.3649
     72  OE1      109.3150  -16.7210   22.1390 O.co2 202  GLU202     -0.2457
     73  OE2      110.1680  -15.0690   20.9690 O.co2 202  GLU202     -0.2457
     74  N        111.6700   -8.8280   14.7100 N.3   279  GLU279     -0.1245
     75  CA       110.3060   -8.3960   14.4230 C.3   279  GLU279      0.1567
     76  C        109.8110   -7.4010   15.4640 C.2   279  GLU279      0.2260
     77  O        110.3580   -7.2770   16.5560 O.2   279  GLU279     -0.2867
     78  CB       109.3980   -9.6210   14.3990 C.3   279  GLU279      0.0388
     79  CG       109.1940  -10.2330   15.7640 C.3   279  GLU279      0.1160
     80  CD       108.8360  -11.7040   15.7380 C.2   279  GLU279      0.3649
     81  OE1      107.9410  -12.1150   16.5210 O.co2 279  GLU279     -0.2457
     82  OE2      109.4950  -12.4470   14.9600 O.co2 279  GLU279     -0.2457
     83  N        107.0380   -6.4430   18.0880 N.3   281  ARG281     -0.1245
     84  CA       106.0010   -7.0200   18.9210 C.3   281  ARG281      0.1563
     85  C        104.7900   -6.0900   18.9490 C.2   281  ARG281      0.2260
     86  O        104.8590   -4.9130   18.5710 O.2   281  ARG281     -0.2867
     87  CB       106.5000   -7.2260   20.3510 C.3   281  ARG281      0.0307
     88  CG       107.5630   -8.3040   20.4550 C.3   281  ARG281      0.0489
     89  CD       107.7430   -8.8190   21.8600 C.3   281  ARG281      0.2205
     90  NE       108.4680  -10.0790   21.8620 N.pl3 281  ARG281     -0.0865
     91  CZ       108.8280  -10.7300   22.9640 C.cat 281  ARG281      0.5346
     92  NH1      108.5420  -10.2210   24.1520 N.pl3 281  ARG281      0.1354
     93  NH2      109.4550  -11.8910   22.8680 N.pl3 281  ARG281      0.1354
     94  N        113.2900  -19.4630   13.4710 N.3   291  TYR291     -0.1241
     95  CA       112.0360  -20.1580   13.1900 C.3   291  TYR291      0.1605
     96  C        112.2180  -21.3990   12.3080 C.2   291  TYR291      0.2264
     97  O        113.0650  -21.4320   11.4130 O.2   291  TYR291     -0.2867
     98  CB       111.0830  -19.1860   12.4880 C.3   291  TYR291      0.0534
     99  CG       110.8050  -17.9580   13.3050 C.ar  291  TYR291     -0.0201
    100  CD1      109.8960  -17.9940   14.3390 C.ar  291  TYR291     -0.0009
    101  CD2      111.5160  -16.7900   13.0920 C.ar  291  TYR291     -0.0009
    102  CE1      109.6460  -16.8750   15.1170 C.ar  291  TYR291      0.0417
    103  CE2      111.3010  -15.6710   13.8760 C.ar  291  TYR291      0.0417
    104  CZ       110.3580  -15.7120   14.8840 C.ar  291  TYR291      0.1957
    105  OH       110.1720  -14.6010   15.6560 O.3   291  TYR291     -0.2866
    106  N         99.0520  -11.7070   13.8440 N.3   331  TYR331     -0.1241
    107  CA       100.0740  -11.5410   14.8670 C.3   331  TYR331      0.1605
    108  C         99.5480  -10.7950   16.0960 C.2   331  TYR331      0.2264
    109  O         99.9700  -11.0780   17.2250 O.2   331  TYR331     -0.2867
    110  CB       101.2480  -10.7940   14.2240 C.3   331  TYR331      0.0534
    111  CG       102.5040  -10.6880   15.0500 C.ar  331  TYR331     -0.0201
    112  CD1      103.4840  -11.6630   15.0090 C.ar  331  TYR331     -0.0009
    113  CD2      102.7220   -9.5990   15.8680 C.ar  331  TYR331     -0.0009
    114  CE1      104.6490  -11.5540   15.7660 C.ar  331  TYR331      0.0417
    115  CE2      103.8760   -9.4720   16.6300 C.ar  331  TYR331      0.0417
    116  CZ       104.8570  -10.4360   16.5470 C.ar  331  TYR331      0.1957
    117  OH       106.0080  -10.2740   17.2910 O.3   331  TYR331     -0.2866
@<TRIPOS>BOND
     1     1     2    1
     2     4     3    2
     3     3     2    1
     4     2     5    1
     5     5     6    1
     6    97    96    2
     7     6     7   ar
     8     6     8   ar
     9     7     9   ar
    10    96    95    1
    11     8    10   ar
    12    98    95    1
    13    98    99    1
    14   101    99   ar
    15   101   103   ar
    16    95    94    1
    17     9    11   ar
    18    99   100   ar
    19    10    11   ar
    20   106   107    1
    21   103   104   ar
    22    11    12    1
    23   110   107    1
    24   110   111    1
    25   100   102   ar
    26    78    75    1
    27    78    79    1
    28    75    74    1
    29    75    76    1
    30   107   108    1
    31   104   102   ar
    32   104   105    1
    33    82    80   ar
    34   112   111   ar
    35   112   114   ar
    36   111   113   ar
    37    24    25    1
    38    24    21    1
    39    25    26    1
    40    76    77    2
    41    13    14    1
    42    26    20    1
    43    80    79    1
    44    80    81   ar
    45   114   116   ar
    46   113   115   ar
    47    22    21    1
    48    22    23    2
    49   108   109    2
    50    21    20    1
    51    20    15   am
    52   116   115   ar
    53   116   117    1
    54    64    62    1
    55    15    14    1
    56    15    16    2
    57    14    17    1
    58    58    59    1
    59    59    62    1
    60    59    60    1
    61    62    63    1
    62    17    18    1
    63    17    19    1
    64    57    55    1
    65    83    84    1
    66    60    61    2
    67    86    85    2
    68    55    54    2
    69    55    56    1
    70    84    85    1
    71    84    87    1
    72    54    53    1
    73    38    36   am
    74    53    52    1
    75    52    51    1
    76    87    88    1
    77    88    89    1
    78    36    37    2
    79    36    35    1
    80    65    66    1
    81    73    71   ar
    82    69    66    1
    83    69    70    1
    84    35    32    1
    85    66    67    1
    86    51    48    1
    87    71    70    1
    88    71    72   ar
    89    89    90    1
    90    90    91    2
    91    45    44   ar
    92    48    49    1
    93    48    47    1
    94    50    49    2
    95    32    33    1
    96    32    31    1
    97    67    68    2
    98    93    91    1
    99    34    33    2
   100    91    92    1
   101    33    39   am
   102    44    46   ar
   103    44    43    1
   104    31    29   am
   105    39    40    1
   106    40    43    1
   107    40    41    1
   108    29    30    2
   109    29    28    1
   110    42    41    2
   111    28    27    1
