@<TRIPOS>MOLECULE
tmp/6e5yA00.pdb
 194 186 0 0 0
SMALL
GASTEIGER

@<TRIPOS>ATOM
      1  N         95.7000  -23.8340   31.1190 N.3    16  ALA16      -0.1231
      2  CA        96.1960  -24.3620   29.8680 C.3    16  ALA16       0.1694
      3  C         97.4630  -25.1200   30.2610 C.2    16  ALA16       0.2592
      4  O         98.5620  -24.5400   30.4940 O.2    16  ALA16      -0.2718
      5  CB        96.4250  -23.2560   28.8810 C.3    16  ALA16       0.0304
      6  N         97.2970  -26.4270   30.4130 N.am   17  PHE17      -0.1962
      7  CA        98.2730  -27.2420   31.1000 C.3    17  PHE17       0.1771
      8  C         99.2020  -27.9800   30.1390 C.2    17  PHE17       0.2620
      9  O         98.8630  -29.0300   29.6180 O.2    17  PHE17      -0.2715
     10  CB        97.5370  -28.2250   32.0090 C.3    17  PHE17       0.0574
     11  CG        98.4420  -28.9910   32.9280 C.ar   17  PHE17      -0.0200
     12  CD1       98.9460  -28.3910   34.0700 C.ar   17  PHE17      -0.0042
     13  CD2       98.7770  -30.3110   32.6840 C.ar   17  PHE17      -0.0042
     14  CE1       99.7950  -29.0830   34.9160 C.ar   17  PHE17      -0.0003
     15  CE2       99.6290  -31.0000   33.5340 C.ar   17  PHE17      -0.0003
     16  CZ       100.1420  -30.3850   34.6460 C.ar   17  PHE17      -0.0000
     17  N        100.4050  -27.4240   29.9690 N.am   18  SER18      -0.1950
     18  CA       101.4070  -27.9730   29.0660 C.3    18  SER18       0.1924
     19  C        102.1600  -29.1230   29.7420 C.2    18  SER18       0.2314
     20  O        102.7530  -29.9580   29.0650 O.2    18  SER18      -0.2863
     21  CB       102.3700  -26.8960   28.6460 C.3    18  SER18       0.2116
     22  OG       103.1420  -26.4750   29.7630 O.3    18  SER18      -0.2180
     23  N        106.3000  -24.7210   35.0630 N.3    22  ASP22      -0.1225
     24  CA       105.4920  -23.5630   35.4410 C.3    22  ASP22       0.1805
     25  C        104.0350  -23.9840   35.7070 C.2    22  ASP22       0.2598
     26  O        103.4800  -23.6640   36.7570 O.2    22  ASP22      -0.2718
     27  CB       105.5630  -22.4470   34.4020 C.3    22  ASP22       0.1424
     28  CG       106.9060  -21.7310   34.3190 C.2    22  ASP22       0.3668
     29  OD1      107.8570  -22.1750   34.9820 O.co2  22  ASP22      -0.2456
     30  OD2      106.9770  -20.7430   33.5840 O.co2  22  ASP22      -0.2456
     31  N        103.4420  -24.7260   34.7730 N.am   23  THR23      -0.1953
     32  CA       102.0150  -25.1030   34.9130 C.3    23  THR23       0.1897
     33  C        101.8320  -26.2140   35.9550 C.2    23  THR23       0.2313
     34  O        100.7860  -26.2520   36.6220 O.2    23  THR23      -0.2863
     35  CB       101.3820  -25.4340   33.5580 C.3    23  THR23       0.1794
     36  OG1      102.1120  -26.4890   32.9310 O.3    23  THR23      -0.2208
     37  CG2      101.3130  -24.2180   32.6650 C.3    23  THR23       0.0378
     38  N         93.5290  -28.3720   31.1130 N.3    40  TYR40      -0.1227
     39  CA        93.2010  -28.5640   29.7080 C.3    40  TYR40       0.1736
     40  C         94.4970  -28.5600   28.9060 C.2    40  TYR40       0.2596
     41  O         95.2340  -27.5650   28.9410 O.2    40  TYR40      -0.2718
     42  CB        92.2780  -27.4580   29.2100 C.3    40  TYR40       0.0548
     43  CG        90.9700  -27.4020   29.9470 C.ar   40  TYR40      -0.0200
     44  CD1       90.8700  -26.7540   31.1690 C.ar   40  TYR40      -0.0009
     45  CD2       89.8400  -28.0440   29.4560 C.ar   40  TYR40      -0.0009
     46  CE1       89.6850  -26.7610   31.8850 C.ar   40  TYR40       0.0417
     47  CE2       88.6390  -28.0250   30.1500 C.ar   40  TYR40       0.0417
     48  CZ        88.5730  -27.4000   31.3810 C.ar   40  TYR40       0.1957
     49  OH        87.3850  -27.3810   32.0560 O.3    40  TYR40      -0.2866
     50  N         94.7960  -29.6820   28.2580 N.am   41  THR41      -0.1939
     51  CA        95.9980  -29.8250   27.4560 C.3    41  THR41       0.2028
     52  C         95.5880  -29.8650   25.9830 C.2    41  THR41       0.2642
     53  O         94.6790  -30.6100   25.6130 O.2    41  THR41      -0.2714
     54  CB        96.7820  -31.0840   27.8390 C.3    41  THR41       0.1808
     55  OG1       97.1310  -31.0190   29.2260 O.3    41  THR41      -0.2208
     56  CG2       98.0440  -31.2440   27.0250 C.3    41  THR41       0.0379
     57  N         96.2120  -29.0180   25.1680 N.am   42  ALA42      -0.1977
     58  CA        95.8970  -29.0080   23.7480 C.3    42  ALA42       0.1597
     59  C         96.8360  -29.9690   23.0150 C.2    42  ALA42       0.2287
     60  O         98.0470  -29.8790   23.1550 O.2    42  ALA42      -0.2864
     61  CB        96.0600  -27.6100   23.1860 C.3    42  ALA42       0.0319
     62  N         98.5090  -30.4130   19.9480 N.3    44  LEU44      -0.1245
     63  CA        98.8430  -29.5380   18.8530 C.3    44  LEU44       0.1561
     64  C         99.8450  -30.2230   17.9250 C.2    44  LEU44       0.2260
     65  O        100.4420  -29.5610   17.0690 O.2    44  LEU44      -0.2867
     66  CB        99.4580  -28.2510   19.4180 C.3    44  LEU44       0.0270
     67  CG        98.4770  -27.3210   20.1290 C.3    44  LEU44       0.0019
     68  CD1       99.2110  -26.3350   21.0210 C.3    44  LEU44       0.0001
     69  CD2       97.5820  -26.6080   19.1310 C.3    44  LEU44       0.0001
     70  N        102.7850  -31.2910   18.6300 N.3    46  GLN46      -0.1245
     71  CA       104.1150  -30.7250   18.8470 C.3    46  GLN46       0.1566
     72  C        105.1930  -31.7240   18.4510 C.2    46  GLN46       0.2260
     73  O        105.1550  -32.8910   18.8330 O.2    46  GLN46      -0.2867
     74  CB       104.2620  -30.2730   20.2950 C.3    46  GLN46       0.0367
     75  CG       103.5020  -28.9860   20.5270 C.3    46  GLN46       0.0905
     76  CD       103.2130  -28.7360   21.9820 C.2    46  GLN46       0.2608
     77  OE1      102.2860  -29.3150   22.5620 O.2    46  GLN46      -0.2717
     78  NE2      103.9940  -27.8410   22.5680 N.am   46  GLN46      -0.0878
     79  N        101.2560  -37.1370   24.7510 N.3    52  TYR52      -0.1241
     80  CA       100.2160  -36.2340   25.2280 C.3    52  TYR52       0.1605
     81  C         99.3220  -36.9020   26.2830 C.2    52  TYR52       0.2264
     82  O         98.8510  -36.2190   27.1630 O.2    52  TYR52      -0.2867
     83  CB        99.3130  -35.7390   24.1000 C.3    52  TYR52       0.0534
     84  CG        99.8490  -34.5590   23.3280 C.ar   52  TYR52      -0.0201
     85  CD1       99.8420  -33.2910   23.8860 C.ar   52  TYR52      -0.0009
     86  CD2      100.3320  -34.6960   22.0360 C.ar   52  TYR52      -0.0009
     87  CE1      100.3210  -32.1910   23.1940 C.ar   52  TYR52       0.0417
     88  CE2      100.7930  -33.6030   21.3270 C.ar   52  TYR52       0.0417
     89  CZ       100.8020  -32.3480   21.9040 C.ar   52  TYR52       0.1957
     90  OH       101.2500  -31.2550   21.2020 O.3    52  TYR52      -0.2866
     91  N        100.0580  -36.3500   30.0350 N.3    55  ILE55      -0.1245
     92  CA        99.9680  -35.0160   30.6320 C.3    55  ILE55       0.1561
     93  C         98.7150  -34.8800   31.5040 C.2    55  ILE55       0.2260
     94  O         98.8330  -34.4330   32.6490 O.2    55  ILE55      -0.2867
     95  CB       100.1200  -33.9220   29.5560 C.3    55  ILE55       0.0252
     96  CG1      101.4730  -34.0720   28.8470 C.3    55  ILE55       0.0019
     97  CG2       99.9450  -32.5400   30.1700 C.3    55  ILE55       0.0019
     98  CD1      101.7110  -33.0990   27.7220 C.3    55  ILE55       0.0001
     99  N         98.0020  -19.8650   18.7620 N.3   106  ARG106     -0.1245
    100  CA        97.2990  -19.1780   19.8550 C.3   106  ARG106      0.1563
    101  C         95.8170  -18.9600   19.5130 C.2   106  ARG106      0.2260
    102  O         94.9630  -19.0240   20.4000 O.2   106  ARG106     -0.2867
    103  CB        97.9450  -17.8270   20.1580 C.3   106  ARG106      0.0307
    104  CG        99.3910  -17.9070   20.6090 C.3   106  ARG106      0.0489
    105  CD        99.7910  -19.0620   21.4890 C.3   106  ARG106      0.2205
    106  NE       101.1670  -18.9000   21.9230 N.pl3 106  ARG106     -0.0865
    107  CZ       101.8950  -19.8280   22.5300 C.cat 106  ARG106      0.5346
    108  NH1      101.3540  -20.9930   22.8670 N.pl3 106  ARG106      0.1354
    109  NH2      103.1580  -19.5620   22.8320 N.pl3 106  ARG106      0.1354
    110  N         94.3320  -22.4170   20.2180 N.3   109  THR109     -0.1218
    111  CA        94.2540  -22.8280   21.6650 C.3   109  THR109      0.1862
    112  C         93.4700  -21.8100   22.5060 C.2   109  THR109      0.2287
    113  O         92.8390  -22.1680   23.5210 O.2   109  THR109     -0.2866
    114  CB        95.6230  -23.1140   22.2950 C.3   109  THR109      0.1770
    115  OG1       96.4330  -21.9360   22.3160 O.3   109  THR109     -0.2211
    116  CG2       96.3470  -24.2320   21.5780 C.3   109  THR109      0.0375
    117  N         90.4710  -24.0720   23.9490 N.3   113  LEU113     -0.1245
    118  CA        90.6050  -24.3900   25.4050 C.3   113  LEU113      0.1561
    119  C         89.5920  -23.5780   26.2070 C.2   113  LEU113      0.2260
    120  O         89.0100  -24.1090   27.1480 O.2   113  LEU113     -0.2867
    121  CB        92.0300  -24.2040   25.9070 C.3   113  LEU113      0.0270
    122  CG        93.0680  -25.1460   25.2790 C.3   113  LEU113      0.0019
    123  CD1       94.3480  -25.1180   26.0810 C.3   113  LEU113      0.0001
    124  CD2       92.5370  -26.5650   25.1450 C.3   113  LEU113      0.0001
    125  N         90.3350  -18.3500   33.7110 N.3   125  TRP125     -0.1227
    126  CA        91.5400  -18.9350   33.1630 C.3   125  TRP125      0.1737
    127  C         92.7500  -18.3910   33.9250 C.2   125  TRP125      0.2596
    128  O         92.9600  -17.1780   34.0110 O.2   125  TRP125     -0.2718
    129  CB        91.6220  -18.6610   31.6490 C.3   125  TRP125      0.0564
    130  CG        92.8370  -19.1940   30.9520 C.ar  125  TRP125      0.0003
    131  CD1       93.7460  -20.0950   31.4260 C.ar  125  TRP125      0.0946
    132  CD2       93.1940  -18.9620   29.5720 C.ar  125  TRP125      0.0152
    133  NE1       94.6890  -20.3710   30.4660 N.ar  125  TRP125     -0.2442
    134  CE2       94.3610  -19.7100   29.3150 C.ar  125  TRP125      0.0810
    135  CE3       92.6620  -18.1730   28.5440 C.ar  125  TRP125      0.0012
    136  CZ2       95.0040  -19.6860   28.0760 C.ar  125  TRP125      0.0191
    137  CZ3       93.2930  -18.1560   27.3180 C.ar  125  TRP125      0.0001
    138  CH2       94.4430  -18.9080   27.0890 C.ar  125  TRP125      0.0015
    139  N         93.5250  -19.3070   34.5080 N.am  126  GLY126     -0.1942
    140  CA        94.7780  -18.9470   35.1600 C.3   126  GLY126      0.2014
    141  C         95.8680  -19.0100   34.1100 C.2   126  GLY126      0.2639
    142  O         96.4220  -20.0590   33.8430 O.2   126  GLY126     -0.2714
    143  N         96.1200  -17.8660   33.4810 N.am  127  ASP127     -0.1957
    144  CA        96.9910  -17.7660   32.3190 C.3   127  ASP127      0.1840
    145  C         98.2900  -17.0630   32.7060 C.2   127  ASP127      0.2623
    146  O         98.2680  -15.8840   33.0270 O.2   127  ASP127     -0.2715
    147  CB        96.2580  -17.0270   31.2000 C.3   127  ASP127      0.1450
    148  CG        97.1240  -16.7190   29.9980 C.2   127  ASP127      0.3671
    149  OD1       98.1920  -17.3420   29.8780 O.co2 127  ASP127     -0.2456
    150  OD2       96.7310  -15.8340   29.2130 O.co2 127  ASP127     -0.2456
    151  N         99.4100  -17.7880   32.6110 N.am  128  GLY128     -0.1940
    152  CA       100.7310  -17.2680   33.0060 C.3   128  GLY128      0.2014
    153  C        101.4520  -16.4530   31.9340 C.2   128  GLY128      0.2639
    154  O        102.5760  -16.0180   32.1660 O.2   128  GLY128     -0.2714
    155  N        100.8310  -16.2370   30.7690 N.am  129  SER129     -0.1949
    156  CA       101.5010  -15.4490   29.7260 C.3   129  SER129      0.1924
    157  C        102.0460  -14.1570   30.3510 C.2   129  SER129      0.2314
    158  O        101.3290  -13.4440   31.0720 O.2   129  SER129     -0.2863
    159  CB       100.6090  -15.1980   28.5360 C.3   129  SER129      0.2116
    160  OG        99.4240  -14.5110   28.9010 O.3   129  SER129     -0.2180
    161  N        101.7370  -13.0860   23.5580 N.3   135  ASP135     -0.1239
    162  CA       100.7320  -14.1170   23.8750 C.3   135  ASP135      0.1674
    163  C         99.7190  -13.6810   24.9370 C.2   135  ASP135      0.2266
    164  O         98.5700  -14.1160   24.8810 O.2   135  ASP135     -0.2867
    165  CB       101.4100  -15.4190   24.2870 C.3   135  ASP135      0.1410
    166  CG       102.0700  -16.1330   23.1380 C.2   135  ASP135      0.3668
    167  OD1      101.6570  -15.9080   21.9720 O.co2 135  ASP135     -0.2456
    168  OD2      103.0060  -16.9010   23.3950 O.co2 135  ASP135     -0.2456
    169  N         95.8720  -14.3650   23.9180 N.3   139  PHE139     -0.1241
    170  CA        94.9980  -15.2090   24.7060 C.3   139  PHE139      0.1605
    171  C         93.8560  -14.3930   25.3180 C.2   139  PHE139      0.2264
    172  O         92.7470  -14.8700   25.4100 O.2   139  PHE139     -0.2867
    173  CB        95.7900  -15.9460   25.7840 C.3   139  PHE139      0.0534
    174  CG        96.6300  -17.1000   25.3180 C.ar  139  PHE139     -0.0203
    175  CD1       96.1310  -18.0410   24.4340 C.ar  139  PHE139     -0.0042
    176  CD2       97.8820  -17.3240   25.8560 C.ar  139  PHE139     -0.0042
    177  CE1       96.8830  -19.1440   24.0570 C.ar  139  PHE139     -0.0003
    178  CE2       98.6390  -18.4140   25.4650 C.ar  139  PHE139     -0.0003
    179  CZ        98.1410  -19.3280   24.5770 C.ar  139  PHE139     -0.0000
    180  N        111.9050  -22.2730   23.5180 N.3   192  THR192     -0.1203
    181  CA       111.2300  -22.7960   22.3320 C.3   192  THR192      0.1994
    182  C        109.7300  -22.9590   22.5740 C.2   192  THR192      0.2617
    183  O        109.3190  -23.4180   23.6650 O.2   192  THR192     -0.2717
    184  CB       111.8020  -24.1700   21.9560 C.3   192  THR192      0.1784
    185  OG1      113.2050  -24.0840   21.7080 O.3   192  THR192     -0.2211
    186  CG2      111.1210  -24.8010   20.7560 C.3   192  THR192      0.0376
    187  N        108.9180  -22.5520   21.5850 N.am  193  ASP193     -0.1973
    188  CA       107.4620  -22.7770   21.5390 C.3   193  ASP193      0.1709
    189  C        107.1720  -23.4610   20.1960 C.2   193  ASP193      0.2293
    190  O        107.6750  -23.0210   19.1750 O.2   193  ASP193     -0.2864
    191  CB       106.6340  -21.4970   21.6460 C.3   193  ASP193      0.1436
    192  CG       105.1320  -21.7450   21.5620 C.2   193  ASP193      0.3671
    193  OD1      104.5770  -22.3040   22.5260 O.co2 193  ASP193     -0.2456
    194  OD2      104.5310  -21.4020   20.5200 O.co2 193  ASP193     -0.2456
@<TRIPOS>BOND
     1    65    64    2
     2    64    63    1
     3    72    73    2
     4    72    71    1
     5    70    71    1
     6    99   100    1
     7    71    74    1
     8    63    66    1
     9    63    62    1
    10    69    67    1
    11   190   189    2
    12    66    67    1
    13   101   100    1
    14   101   102    2
    15   100   103    1
    16    67    68    1
    17   103   104    1
    18   189   188    1
    19   110   111    1
    20    74    75    1
    21   194   192   ar
    22    75    76    1
    23   104   105    1
    24   186   184    1
    25    90    89    1
    26    88    89   ar
    27    88    86   ar
    28   105   106    1
    29   188   187    1
    30   188   191    1
    31   192   191    1
    32   192   193   ar
    33   116   114    1
    34   187   182   am
    35   111   114    1
    36   111   112    1
    37   185   184    1
    38    89    87   ar
    39   106   107    2
    40   184   181    1
    41   167   166   ar
    42    76    77    2
    43    76    78   am
    44    86    84   ar
    45   114   115    1
    46   181   182    1
    47   181   180    1
    48   112   113    2
    49   107   109    1
    50   107   108    1
    51   182   183    2
    52    59    60    2
    53    59    58    1
    54   166   168   ar
    55   166   165    1
    56    61    58    1
    57    87    85   ar
    58    84    85   ar
    59    84    83    1
    60   161   162    1
    61    58    57    1
    62   162   165    1
    63   162   163    1
    64   169   170    1
    65   117   118    1
    66   177   175   ar
    67   177   179   ar
    68    83    80    1
    69   175   174   ar
    70   179   178   ar
    71   170   171    1
    72   170   173    1
    73    79    80    1
    74   164   163    2
    75   124   122    1
    76    57    52   am
    77    80    81    1
    78   122   121    1
    79   122   123    1
    80   174   173    1
    81   174   176   ar
    82   171   172    2
    83   118   121    1
    84   118   119    1
    85   178   176   ar
    86    53    52    2
    87    52    51    1
    88   119   120    2
    89    81    82    2
    90    56    54    1
    91   138   137   ar
    92   138   136   ar
    93   137   135   ar
    94    51    54    1
    95    51    50    1
    96    98    96    1
    97    54    55    1
    98   136   134   ar
    99    50    40   am
   100   159   160    1
   101   159   156    1
   102   135   132   ar
   103    21    18    1
   104    21    22    1
   105    96    95    1
   106     5     2    1
   107    40    41    2
   108    40    39    1
   109    20    19    2
   110    18    19    1
   111    18    17    1
   112    42    39    1
   113    42    43    1
   114   150   148   ar
   115   134   132   ar
   116   134   133   ar
   117    45    43   ar
   118    45    47   ar
   119    95    97    1
   120    95    92    1
   121   132   130   ar
   122     9     8    2
   123    39    38    1
   124   156   157    1
   125   156   155    1
   126     2     3    1
   127     2     1    1
   128   149   148   ar
   129    43    44   ar
   130    17     8   am
   131   148   147    1
   132    91    92    1
   133     8     7    1
   134    47    48   ar
   135     3     6   am
   136     3     4    2
   137   157   158    2
   138     6     7    1
   139   133   131   ar
   140    92    93    1
   141   155   153   am
   142   130   131   ar
   143   130   129    1
   144     7    10    1
   145    44    46   ar
   146   147   144    1
   147    48    46   ar
   148    48    49    1
   149    93    94    2
   150   129   126    1
   151   153   154    2
   152   153   152    1
   153    10    11    1
   154   144   145    1
   155   144   143    1
   156   151   145   am
   157   151   152    1
   158    37    35    1
   159    13    11   ar
   160    13    15   ar
   161   145   146    2
   162    11    12   ar
   163    36    35    1
   164   126   125    1
   165   126   127    1
   166   143   141   am
   167    15    16   ar
   168    35    32    1
   169    30    28   ar
   170   142   141    2
   171   127   128    2
   172   127   139   am
   173    12    14   ar
   174   141   140    1
   175    28    27    1
   176    28    29   ar
   177    27    24    1
   178   139   140    1
   179    16    14   ar
   180    31    32    1
   181    31    25   am
   182    32    33    1
   183    23    24    1
   184    24    25    1
   185    25    26    2
   186    33    34    2
