@<TRIPOS>MOLECULE
tmp/6e6iE00.pdb
 158 157 0 0 0
SMALL
GASTEIGER

@<TRIPOS>ATOM
      1  N         83.9870  116.9500  -78.2320 N.3     6  HIS6       -0.1241
      2  CA        82.7610  116.5170  -77.5540 C.3     6  HIS6        0.1621
      3  C         82.1320  115.3990  -78.3760 C.2     6  HIS6        0.2264
      4  O         81.3740  115.6480  -79.3160 O.2     6  HIS6       -0.2867
      5  CB        81.7920  117.6820  -77.3550 C.3     6  HIS6        0.0745
      6  CG        80.6410  117.3670  -76.4500 C.ar    6  HIS6        0.0817
      7  ND1       80.1750  118.2550  -75.5060 N.ar    6  HIS6       -0.2268
      8  CD2       79.8580  116.2660  -76.3490 C.ar    6  HIS6        0.1154
      9  CE1       79.1580  117.7150  -74.8600 C.ar    6  HIS6        0.1986
     10  NE2       78.9440  116.5090  -75.3540 N.ar    6  HIS6       -0.2212
     11  N         80.6800  111.0570  -77.6970 N.3     8  HIS8       -0.1241
     12  CA        80.3710  110.0370  -76.7080 C.3     8  HIS8        0.1621
     13  C         80.4590  108.6630  -77.3550 C.2     8  HIS8        0.2264
     14  O         80.1220  108.4960  -78.5310 O.2     8  HIS8       -0.2867
     15  CB        78.9890  110.2750  -76.0870 C.3     8  HIS8        0.0745
     16  CG        78.8050  111.6410  -75.5000 C.ar    8  HIS8        0.0817
     17  ND1       79.6610  112.1710  -74.5590 N.ar    8  HIS8       -0.2268
     18  CD2       77.8440  112.5750  -75.7010 C.ar    8  HIS8        0.1154
     19  CE1       79.2440  113.3780  -74.2170 C.ar    8  HIS8        0.1986
     20  NE2       78.1430  113.6460  -74.8950 N.ar    8  HIS8       -0.2212
     21  N         70.6270  104.3970  -84.4770 N.3    50  THR50      -0.1203
     22  CA        69.5360  105.2810  -84.8630 C.3    50  THR50       0.1994
     23  C         69.9840  106.4040  -85.7880 C.2    50  THR50       0.2617
     24  O         69.1590  107.2430  -86.1620 O.2    50  THR50      -0.2717
     25  CB        68.8840  105.8840  -83.6140 C.3    50  THR50       0.1784
     26  OG1       69.9060  106.2900  -82.6900 O.3    50  THR50      -0.2211
     27  CG2       67.9640  104.8680  -82.9450 C.3    50  THR50       0.0376
     28  N         71.2550  106.4360  -86.1680 N.am   51  TRP51      -0.1975
     29  CA        71.8160  107.5510  -86.9180 C.3    51  TRP51       0.1640
     30  C         71.6960  107.3100  -88.4160 C.2    51  TRP51       0.2290
     31  O         71.3150  106.2300  -88.8700 O.2    51  TRP51      -0.2864
     32  CB        73.2800  107.7510  -86.5340 C.3    51  TRP51       0.0576
     33  CG        73.6560  107.4110  -85.1080 C.ar   51  TRP51       0.0006
     34  CD1       74.5990  106.5030  -84.7080 C.ar   51  TRP51       0.0946
     35  CD2       73.1220  107.9850  -83.9080 C.ar   51  TRP51       0.0152
     36  NE1       74.6830  106.4780  -83.3370 N.ar   51  TRP51      -0.2442
     37  CE2       73.7850  107.3750  -82.8210 C.ar   51  TRP51       0.0810
     38  CE3       72.1500  108.9520  -83.6460 C.ar   51  TRP51       0.0012
     39  CZ2       73.5040  107.7010  -81.4960 C.ar   51  TRP51       0.0191
     40  CZ3       71.8710  109.2720  -82.3300 C.ar   51  TRP51       0.0001
     41  CH2       72.5440  108.6490  -81.2720 C.ar   51  TRP51       0.0015
     42  N         78.4580  108.1280  -72.5900 N.3    72  ARG72      -0.1231
     43  CA        77.1870  108.7850  -72.9090 C.3    72  ARG72       0.1679
     44  C         76.6090  109.2550  -71.5710 C.2    72  ARG72       0.2434
     45  O         76.1950  108.4110  -70.7660 O.2    72  ARG72      -0.2733
     46  CB        76.1740  107.8830  -73.6410 C.3    72  ARG72       0.0321
     47  CG        76.6610  106.9630  -74.7900 C.3    72  ARG72       0.0489
     48  CD        77.1340  107.6270  -76.1100 C.3    72  ARG72       0.2205
     49  NE        76.1490  108.4000  -76.8790 N.pl3  72  ARG72      -0.0865
     50  CZ        76.2510  108.6490  -78.1960 C.cat  72  ARG72       0.5346
     51  NH1       75.3120  109.3600  -78.8220 N.pl3  72  ARG72       0.1354
     52  NH2       77.2870  108.1780  -78.9060 N.pl3  72  ARG72       0.1354
     53  N         76.5730  110.5590  -71.2780 N.am   73  PRO73      -0.2718
     54  CA        76.3460  110.9800  -69.8820 C.3    73  PRO73       0.1535
     55  C         74.9970  110.5970  -69.2950 C.2    73  PRO73       0.2598
     56  O         74.9310  110.3380  -68.0870 O.2    73  PRO73      -0.2715
     57  CB        76.5170  112.5080  -69.9540 C.3    73  PRO73       0.0310
     58  CG        77.4280  112.7170  -71.1250 C.3    73  PRO73       0.0237
     59  CD        76.9880  111.6930  -72.1280 C.3    73  PRO73       0.0939
     60  N         73.9210  110.5510  -70.0860 N.am   74  PHE74      -0.1974
     61  CA        72.6030  110.2900  -69.5050 C.3    74  PHE74       0.1639
     62  C         72.4130  108.8400  -69.0570 C.2    74  PHE74       0.2290
     63  O         71.3320  108.5040  -68.5650 O.2    74  PHE74      -0.2864
     64  CB        71.4920  110.7060  -70.4880 C.3    74  PHE74       0.0560
     65  CG        71.2700  109.7580  -71.6480 C.ar   74  PHE74      -0.0200
     66  CD1       72.2830  108.9450  -72.1300 C.ar   74  PHE74      -0.0042
     67  CD2       70.0290  109.7030  -72.2680 C.ar   74  PHE74      -0.0042
     68  CE1       72.0630  108.0920  -73.2010 C.ar   74  PHE74      -0.0003
     69  CE2       69.8000  108.8470  -73.3400 C.ar   74  PHE74      -0.0003
     70  CZ        70.8230  108.0420  -73.8060 C.ar   74  PHE74      -0.0000
     71  N         79.4890  118.4950  -67.7820 N.3   179  HIS179     -0.1241
     72  CA        78.4270  117.7800  -68.4800 C.3   179  HIS179      0.1621
     73  C         77.5370  117.1530  -67.4260 C.2   179  HIS179      0.2264
     74  O         78.0080  116.3330  -66.6330 O.2   179  HIS179     -0.2867
     75  CB        78.9900  116.7100  -69.4150 C.3   179  HIS179      0.0745
     76  CG        78.1100  116.4100  -70.5910 C.ar  179  HIS179      0.0817
     77  ND1       76.7410  116.2830  -70.4870 N.ar  179  HIS179     -0.2268
     78  CD2       78.4050  116.2240  -71.8990 C.ar  179  HIS179      0.1154
     79  CE1       76.2330  116.0290  -71.6800 C.ar  179  HIS179      0.1986
     80  NE2       77.2230  115.9860  -72.5530 N.ar  179  HIS179     -0.2212
     81  N         66.5950  115.2090  -69.7840 N.3   190  TYR190     -0.1227
     82  CA        68.0490  115.2790  -69.6520 C.3   190  TYR190      0.1736
     83  C         68.6640  116.2660  -70.6410 C.2   190  TYR190      0.2596
     84  O         69.6500  116.9410  -70.3200 O.2   190  TYR190     -0.2718
     85  CB        68.6620  113.8800  -69.8350 C.3   190  TYR190      0.0548
     86  CG        68.7070  113.4120  -71.2710 C.ar  190  TYR190     -0.0200
     87  CD1       69.7940  113.7140  -72.0850 C.ar  190  TYR190     -0.0009
     88  CD2       67.6600  112.6850  -71.8190 C.ar  190  TYR190     -0.0009
     89  CE1       69.8400  113.3040  -73.4050 C.ar  190  TYR190      0.0417
     90  CE2       67.6920  112.2740  -73.1400 C.ar  190  TYR190      0.0417
     91  CZ        68.7870  112.5870  -73.9300 C.ar  190  TYR190      0.1957
     92  OH        68.8340  112.1800  -75.2470 O.3   190  TYR190     -0.2866
     93  N         68.1060  116.3610  -71.8530 N.am  191  SER191     -0.1952
     94  CA        68.7140  117.1990  -72.8840 C.3   191  SER191      0.1924
     95  C         68.6150  118.6780  -72.5380 C.2   191  SER191      0.2314
     96  O         69.5170  119.4530  -72.8730 O.2   191  SER191     -0.2863
     97  CB        68.0570  116.9310  -74.2380 C.3   191  SER191      0.2116
     98  OG        68.5990  117.7740  -75.2440 O.3   191  SER191     -0.2180
     99  N         70.9010  119.3730  -69.3450 N.3   194  PHE194     -0.1241
    100  CA        72.2790  119.6600  -69.7380 C.3   194  PHE194      0.1605
    101  C         72.5260  121.1640  -69.7590 C.2   194  PHE194      0.2264
    102  O         73.4980  121.6650  -69.1760 O.2   194  PHE194     -0.2867
    103  CB        72.5840  119.0870  -71.1270 C.3   194  PHE194      0.0534
    104  CG        72.7260  117.5810  -71.1760 C.ar  194  PHE194     -0.0203
    105  CD1       72.9300  116.8310  -70.0280 C.ar  194  PHE194     -0.0042
    106  CD2       72.6690  116.9220  -72.3970 C.ar  194  PHE194     -0.0042
    107  CE1       73.0590  115.4570  -70.0950 C.ar  194  PHE194     -0.0003
    108  CE2       72.8070  115.5460  -72.4700 C.ar  194  PHE194     -0.0003
    109  CZ        73.0010  114.8130  -71.3160 C.ar  194  PHE194     -0.0000
    110  N         78.1670  122.5660  -74.7110 N.3   223  HIS223     -0.1241
    111  CA        77.0550  123.2050  -75.4180 C.3   223  HIS223      0.1621
    112  C         77.1280  124.7300  -75.3380 C.2   223  HIS223      0.2264
    113  O         76.1460  125.4120  -75.0390 O.2   223  HIS223     -0.2867
    114  CB        75.7150  122.6890  -74.8880 C.3   223  HIS223      0.0745
    115  CG        75.5890  121.1990  -74.9290 C.ar  223  HIS223      0.0817
    116  ND1       75.7900  120.4040  -73.8210 N.ar  223  HIS223     -0.2268
    117  CD2       75.3020  120.3560  -75.9500 C.ar  223  HIS223      0.1154
    118  CE1       75.6240  119.1370  -74.1550 C.ar  223  HIS223      0.1986
    119  NE2       75.3280  119.0800  -75.4410 N.ar  223  HIS223     -0.2212
    120  N         79.2680  122.8480  -79.3510 N.3   258  VAL258     -0.1245
    121  CA        78.1190  121.9920  -79.6220 C.3   258  VAL258      0.1561
    122  C         76.8740  122.8700  -79.6500 C.2   258  VAL258      0.2260
    123  O         76.0760  122.8810  -78.7050 O.2   258  VAL258     -0.2867
    124  CB        77.9840  120.8570  -78.5930 C.3   258  VAL258      0.0252
    125  CG1       76.8270  119.9390  -78.9710 C.3   258  VAL258      0.0019
    126  CG2       79.2790  120.0640  -78.5070 C.3   258  VAL258      0.0019
    127  N         73.9100  124.0090  -82.7900 N.3   260  TYR260     -0.1241
    128  CA        73.4870  123.5430  -84.1050 C.3   260  TYR260      0.1605
    129  C         72.7690  124.6200  -84.9190 C.2   260  TYR260      0.2264
    130  O         72.0070  124.2920  -85.8320 O.2   260  TYR260     -0.2867
    131  CB        72.6070  122.3020  -83.9520 C.3   260  TYR260      0.0534
    132  CG        73.2750  121.1600  -83.2130 C.ar  260  TYR260     -0.0201
    133  CD1       74.5840  120.7830  -83.5000 C.ar  260  TYR260     -0.0009
    134  CD2       72.5970  120.4620  -82.2220 C.ar  260  TYR260     -0.0009
    135  CE1       75.1970  119.7380  -82.8200 C.ar  260  TYR260      0.0417
    136  CE2       73.1980  119.4190  -81.5390 C.ar  260  TYR260      0.0417
    137  CZ        74.4980  119.0600  -81.8420 C.ar  260  TYR260      0.1957
    138  OH        75.0860  118.0180  -81.1610 O.3   260  TYR260     -0.2866
    139  N         79.1270  116.5680  -80.7370 N.3   282  GLU282     -0.1245
    140  CA        78.3210  115.4810  -80.1700 C.3   282  GLU282      0.1567
    141  C         77.7790  114.5610  -81.2600 C.2   282  GLU282      0.2260
    142  O         76.7420  113.9140  -81.0900 O.2   282  GLU282     -0.2867
    143  CB        77.1700  116.0150  -79.3070 C.3   282  GLU282      0.0388
    144  CG        76.7990  115.0930  -78.1340 C.3   282  GLU282      0.1160
    145  CD        75.6200  114.1610  -78.4210 C.2   282  GLU282      0.3649
    146  OE1       74.5870  114.6410  -78.9430 O.co2 282  GLU282     -0.2457
    147  OE2       75.7190  112.9510  -78.1110 O.co2 282  GLU282     -0.2457
    148  N         74.6050  111.9230  -82.3110 N.3   285  GLY285     -0.1210
    149  CA        73.7850  112.1620  -81.1420 C.3   285  GLY285      0.1956
    150  C         72.5350  112.9660  -81.4240 C.2   285  GLY285      0.2611
    151  O         71.8760  112.7730  -82.4520 O.2   285  GLY285     -0.2717
    152  N         72.1990  113.8710  -80.5010 N.am  286  VAL286     -0.1979
    153  CA        70.9590  114.6370  -80.6040 C.3   286  VAL286      0.1595
    154  C         70.8680  115.3380  -81.9530 C.2   286  VAL286      0.2287
    155  O         69.7860  115.4460  -82.5430 O.2   286  VAL286     -0.2864
    156  CB        70.8590  115.6420  -79.4400 C.3   286  VAL286      0.0276
    157  CG1       69.5770  116.4450  -79.5430 C.3   286  VAL286      0.0022
    158  CG2       70.9240  114.9190  -78.0970 C.3   286  VAL286      0.0022
@<TRIPOS>BOND
     1    31    30    2
     2    30    29    1
     3    29    32    1
     4    29    28    1
     5    32    33    1
     6    28    23   am
     7    24    23    2
     8   130   129    2
     9    23    22    1
    10    33    34   ar
    11    33    35   ar
    12   129   128    1
    13    22    21    1
    14    22    25    1
    15    34    36   ar
    16   128   131    1
    17   128   127    1
    18   131   132    1
    19    35    38   ar
    20    35    37   ar
    21    38    40   ar
    22    25    27    1
    23    25    26    1
    24   133   132   ar
    25   133   135   ar
    26    36    37   ar
    27   132   134   ar
    28    37    39   ar
    29   135   137   ar
    30   155   154    2
    31   151   150    2
    32    40    41   ar
    33   148   149    1
    34   134   136   ar
    35   154   153    1
    36   137   136   ar
    37   137   138    1
    38    39    41   ar
    39   150   149    1
    40   150   152   am
    41   141   142    2
    42   141   140    1
    43   139   140    1
    44   153   152    1
    45   153   156    1
    46   140   143    1
    47   122   121    1
    48   122   123    2
    49   121   120    1
    50   121   124    1
    51   157   156    1
    52   156   158    1
    53     4     3    2
    54   143   144    1
    55   125   124    1
    56   146   145   ar
    57    52    50    1
    58    51    50    1
    59   124   126    1
    60    14    13    2
    61   145   144    1
    62   145   147   ar
    63     3     2    1
    64     1     2    1
    65    50    49    2
    66    11    12    1
    67     2     5    1
    68     5     6    1
    69    13    12    1
    70    49    48    1
    71    12    15    1
    72     6     8   ar
    73     6     7   ar
    74     8    10   ar
    75    48    47    1
    76    15    16    1
    77   117   119   ar
    78   117   115   ar
    79    18    16   ar
    80    18    20   ar
    81     7     9   ar
    82    16    17   ar
    83   119   118   ar
    84   111   112    1
    85   111   114    1
    86   111   110    1
    87    10     9   ar
    88   112   113    2
    89    92    91    1
    90    98    97    1
    91   115   114    1
    92   115   116   ar
    93    20    19   ar
    94    47    46    1
    95    17    19   ar
    96    97    94    1
    97   118   116   ar
    98    91    89   ar
    99    91    90   ar
   100    70    69   ar
   101    70    68   ar
   102    46    43    1
   103    89    87   ar
   104    69    67   ar
   105    68    66   ar
   106    90    88   ar
   107    43    42    1
   108    43    44    1
   109    94    95    1
   110    94    93    1
   111    96    95    2
   112    80    78   ar
   113    80    79   ar
   114   108   106   ar
   115   108   109   ar
   116   106   104   ar
   117    67    65   ar
   118    66    65   ar
   119    59    53    1
   120    59    58    1
   121    87    86   ar
   122    78    76   ar
   123    93    83   am
   124    88    86   ar
   125    79    77   ar
   126    65    64    1
   127    44    53   am
   128    44    45    2
   129   109   107   ar
   130    53    54    1
   131    86    85    1
   132   104   103    1
   133   104   105   ar
   134   103   100    1
   135    58    57    1
   136    83    84    2
   137    83    82    1
   138    76    77   ar
   139    76    75    1
   140    64    61    1
   141   107   105   ar
   142    60    61    1
   143    60    55   am
   144    57    54    1
   145    54    55    1
   146    85    82    1
   147    81    82    1
   148   101   100    1
   149   101   102    2
   150   100    99    1
   151    61    62    1
   152    75    72    1
   153    55    56    2
   154    62    63    2
   155    72    71    1
   156    72    73    1
   157    73    74    2
