@<TRIPOS>MOLECULE
tmp/6e6kA00.pdb
 189 178 0 0 0
SMALL
GASTEIGER

@<TRIPOS>ATOM
      1  N        -10.3990   -6.9310   10.5160 N.3    10  LEU10      -0.1245
      2  CA       -10.2000   -7.3750   11.8890 C.3    10  LEU10       0.1561
      3  C        -10.8580   -8.7370   12.1120 C.2    10  LEU10       0.2260
      4  O        -12.0730   -8.9010   11.9230 O.2    10  LEU10      -0.2867
      5  CB       -10.7530   -6.3210   12.8520 C.3    10  LEU10       0.0270
      6  CG       -10.6130   -6.5970   14.3490 C.3    10  LEU10       0.0019
      7  CD1       -9.1510   -6.6410   14.7840 C.3    10  LEU10       0.0001
      8  CD2      -11.3770   -5.5590   15.1820 C.3    10  LEU10       0.0001
      9  N         -9.1730   -5.3140   24.2740 N.3    16  PHE16      -0.1241
     10  CA        -9.3100   -3.9260   23.8650 C.3    16  PHE16       0.1605
     11  C         -9.8230   -3.0930   25.0330 C.2    16  PHE16       0.2264
     12  O         -9.4260   -1.9340   25.1960 O.2    16  PHE16      -0.2867
     13  CB       -10.2240   -3.8550   22.6360 C.3    16  PHE16       0.0534
     14  CG       -10.2700   -2.5050   21.9430 C.ar   16  PHE16      -0.0203
     15  CD1       -9.1560   -1.7000   21.8090 C.ar   16  PHE16      -0.0042
     16  CD2      -11.4610   -2.0640   21.4030 C.ar   16  PHE16      -0.0042
     17  CE1       -9.2420   -0.4610   21.1330 C.ar   16  PHE16      -0.0003
     18  CE2      -11.5550   -0.8550   20.7500 C.ar   16  PHE16      -0.0003
     19  CZ       -10.4510   -0.0470   20.6280 C.ar   16  PHE16      -0.0000
     20  N         -6.8260   -1.9910   27.2750 N.3    19  TYR19      -0.1227
     21  CA        -6.0740   -0.9390   26.5980 C.3    19  TYR19       0.1736
     22  C         -6.8050    0.3950   26.6790 C.2    19  TYR19       0.2595
     23  O         -6.2020    1.4150   27.0310 O.2    19  TYR19      -0.2718
     24  CB        -5.8320   -1.3510   25.1540 C.3    19  TYR19       0.0548
     25  CG        -5.1800   -0.3250   24.2580 C.ar   19  TYR19      -0.0200
     26  CD1       -3.8370    0.0270   24.3900 C.ar   19  TYR19      -0.0009
     27  CD2       -5.9040    0.2980   23.2560 C.ar   19  TYR19      -0.0009
     28  CE1       -3.2440    0.9610   23.5530 C.ar   19  TYR19       0.0417
     29  CE2       -5.3210    1.2230   22.4240 C.ar   19  TYR19       0.0417
     30  CZ        -3.9960    1.5540   22.5730 C.ar   19  TYR19       0.1957
     31  OH        -3.4490    2.4680   21.7010 O.3    19  TYR19      -0.2866
     32  N         -8.1070    0.4080   26.3940 N.am   20  MET20      -0.1979
     33  CA        -8.8600    1.6600   26.4670 C.3    20  MET20       0.1605
     34  C         -8.9550    2.1790   27.8990 C.2    20  MET20       0.2287
     35  O         -8.9200    3.3950   28.1250 O.2    20  MET20      -0.2864
     36  CB       -10.2610    1.4930   25.8750 C.3    20  MET20       0.0413
     37  CG       -10.2590    1.3500   24.3780 C.3    20  MET20       0.0598
     38  SD       -11.8890    1.5390   23.6530 S.3    20  MET20      -0.1393
     39  CE       -12.6310   -0.0040   24.1360 C.3    20  MET20       0.0692
     40  N         -5.9990    4.0910   28.6810 N.3    23  LEU23      -0.1245
     41  CA        -6.0570    5.4000   28.0440 C.3    23  LEU23       0.1561
     42  C         -7.1300    6.3140   28.6290 C.2    23  LEU23       0.2260
     43  O         -7.2060    7.4830   28.2370 O.2    23  LEU23      -0.2867
     44  CB        -6.2580    5.2310   26.5320 C.3    23  LEU23       0.0270
     45  CG        -5.0990    4.5850   25.7660 C.3    23  LEU23       0.0019
     46  CD1       -5.4880    4.4020   24.3180 C.3    23  LEU23       0.0001
     47  CD2       -3.8470    5.4480   25.8650 C.3    23  LEU23       0.0001
     48  N        -10.3780    6.1150   28.2220 N.3    25  ILE25      -0.1245
     49  CA       -11.5580    6.3150   27.3830 C.3    25  ILE25       0.1561
     50  C        -12.8090    6.1590   28.2380 C.2    25  ILE25       0.2260
     51  O        -12.8920    5.2620   29.0790 O.2    25  ILE25      -0.2867
     52  CB       -11.5570    5.3100   26.2170 C.3    25  ILE25       0.0252
     53  CG1      -10.2330    5.3870   25.4460 C.3    25  ILE25       0.0019
     54  CG2      -12.7330    5.5940   25.2740 C.3    25  ILE25       0.0019
     55  CD1       -9.9200    6.7520   24.9170 C.3    25  ILE25       0.0001
     56  N        -17.9660    5.7860   25.2500 N.3    29  THR29      -0.1218
     57  CA       -17.0840    5.6850   24.0960 C.3    29  THR29       0.1862
     58  C        -16.5050    4.2800   23.9520 C.2    29  THR29       0.2287
     59  O        -16.4430    3.7500   22.8360 O.2    29  THR29      -0.2866
     60  CB       -15.9970    6.7630   24.1900 C.3    29  THR29       0.1770
     61  OG1      -16.6260    8.0600   24.2510 O.3    29  THR29      -0.2211
     62  CG2      -15.0610    6.7210   22.9740 C.3    29  THR29       0.0375
     63  N        -19.0710    2.0620   22.2290 N.3    32  ILE32      -0.1231
     64  CA       -19.1290    2.2710   20.7890 C.3    32  ILE32       0.1692
     65  C        -17.8740    1.7060   20.1310 C.2    32  ILE32       0.2591
     66  O        -17.9430    1.0000   19.1160 O.2    32  ILE32      -0.2718
     67  CB       -19.3030    3.7640   20.4850 C.3    32  ILE32       0.0266
     68  CG1      -20.7140    4.2070   20.9020 C.3    32  ILE32       0.0019
     69  CG2      -19.0510    4.0560   18.9940 C.3    32  ILE32       0.0020
     70  CD1      -20.9110    5.7190   20.9540 C.3    32  ILE32       0.0001
     71  N        -16.7050    2.0230   20.6990 N.am   33  ALA33      -0.1980
     72  CA       -15.4320    1.6470   20.0890 C.3    33  ALA33       0.1597
     73  C        -15.3460    0.1490   19.8470 C.2    33  ALA33       0.2287
     74  O        -14.8340   -0.2860   18.8060 O.2    33  ALA33      -0.2864
     75  CB       -14.2780    2.1010   20.9790 C.3    33  ALA33       0.0319
     76  N        -17.1750   -0.9570   16.5710 N.3    36  LEU36      -0.1231
     77  CA       -16.8990   -0.3410   15.2660 C.3    36  LEU36       0.1693
     78  C        -16.1610   -1.2600   14.2790 C.2    36  LEU36       0.2592
     79  O        -16.3460   -1.1210   13.0600 O.2    36  LEU36      -0.2718
     80  CB       -16.1460    0.9700   15.4440 C.3    36  LEU36       0.0284
     81  CG       -16.9430    2.1730   15.9380 C.3    36  LEU36       0.0019
     82  CD1      -15.9960    3.3430   16.1530 C.3    36  LEU36       0.0001
     83  CD2      -18.0610    2.5600   14.9590 C.3    36  LEU36       0.0001
     84  N        -15.3190   -2.1740   14.7620 N.am   37  LYS37      -0.1966
     85  CA       -14.5150   -3.0790   13.9360 C.3    37  LYS37       0.1713
     86  C        -13.8570   -2.3880   12.7300 C.2    37  LYS37       0.2458
     87  O        -14.1480   -2.7340   11.5810 O.2    37  LYS37      -0.2730
     88  CB       -15.3160   -4.3000   13.4930 C.3    37  LYS37       0.0311
     89  CG       -15.5060   -5.3770   14.5610 C.3    37  LYS37       0.0038
     90  CD       -16.0220   -6.6750   13.9420 C.3    37  LYS37       0.0206
     91  CE       -16.1760   -7.7730   14.9810 C.3    37  LYS37       0.1093
     92  NZ       -17.2680   -7.4780   15.9520 N.3    37  LYS37      -0.1314
     93  N        -12.9700   -1.4240   12.9600 N.am   38  PRO38      -0.2727
     94  CA       -12.4090   -0.6800   11.8320 C.3    38  PRO38       0.1402
     95  C        -11.5880   -1.5710   10.9180 C.2    38  PRO38       0.2269
     96  O        -10.9930   -2.5710   11.3360 O.2    38  PRO38      -0.2865
     97  CB       -11.5410    0.3880   12.5020 C.3    38  PRO38       0.0296
     98  CG       -11.2890   -0.1300   13.9160 C.3    38  PRO38       0.0237
     99  CD       -12.5090   -0.9050   14.2560 C.3    38  PRO38       0.0939
    100  N         -8.2670   -1.9190    8.6500 N.3    40  LYS40      -0.1245
    101  CA        -6.8980   -1.4440    8.7370 C.3    40  LYS40       0.1561
    102  C         -6.3200   -1.4540    7.3280 C.2    40  LYS40       0.2260
    103  O         -6.3230   -2.4880    6.6590 O.2    40  LYS40      -0.2867
    104  CB        -6.1160   -2.3890    9.6520 C.3    40  LYS40       0.0271
    105  CG        -4.6750   -2.0180    9.9080 C.3    40  LYS40       0.0035
    106  CD        -4.5400   -0.8200   10.8630 C.3    40  LYS40       0.0206
    107  CE        -5.0570   -1.1350   12.2860 C.3    40  LYS40       0.1093
    108  NZ        -4.8090   -0.0370   13.2630 N.3    40  LYS40      -0.1314
    109  N         -6.9450    3.5240   10.1450 N.3    53  THR53      -0.1218
    110  CA        -7.9000    2.7480   10.9360 C.3    53  THR53       0.1862
    111  C         -9.2660    3.3800   10.6850 C.2    53  THR53       0.2287
    112  O         -9.5440    4.4650   11.2030 O.2    53  THR53      -0.2866
    113  CB        -7.5240    2.7960   12.4140 C.3    53  THR53       0.1770
    114  OG1       -6.1510    2.3610   12.5870 O.3    53  THR53      -0.2211
    115  CG2       -8.4040    1.8850   13.2140 C.3    53  THR53       0.0375
    116  N        -13.4920    3.5530   10.2060 N.3    55  SER55      -0.1217
    117  CA       -14.8050    3.1210   10.6470 C.3    55  SER55       0.1889
    118  C        -15.8400    4.1280   10.1750 C.2    55  SER55       0.2288
    119  O        -15.5170    5.2150    9.6880 O.2    55  SER55      -0.2866
    120  CB       -14.8690    2.9930   12.1590 C.3    55  SER55       0.2089
    121  OG       -14.9610    4.2440   12.8090 O.3    55  SER55      -0.2183
    122  N        -17.8180    5.8180   12.0590 N.3    57  LEU57      -0.1231
    123  CA       -17.8930    6.9570   12.9600 C.3    57  LEU57       0.1693
    124  C        -16.7940    7.9620   12.6620 C.2    57  LEU57       0.2592
    125  O        -17.0450    9.1680   12.6080 O.2    57  LEU57      -0.2718
    126  CB       -17.7930    6.4540   14.3960 C.3    57  LEU57       0.0284
    127  CG       -17.8550    7.5190   15.5030 C.3    57  LEU57       0.0019
    128  CD1      -19.2440    8.1420   15.6040 C.3    57  LEU57       0.0001
    129  CD2      -17.4390    6.9320   16.8300 C.3    57  LEU57       0.0001
    130  N        -15.5840    7.4770   12.4360 N.am   58  ARG58      -0.1966
    131  CA       -14.4820    8.3420   12.0540 C.3    58  ARG58       0.1729
    132  C        -13.3180    7.4550   11.6680 C.2    58  ARG58       0.2616
    133  O        -13.2420    6.2850   12.0490 O.2    58  ARG58      -0.2715
    134  CB       -14.0740    9.3030   13.1760 C.3    58  ARG58       0.0348
    135  CG       -13.3020    8.6800   14.3230 C.3    58  ARG58       0.0492
    136  CD       -12.9630    9.6900   15.4100 C.3    58  ARG58       0.2205
    137  NE       -14.1480   10.2270   16.0820 N.pl3  58  ARG58      -0.0865
    138  CZ       -14.7300    9.6720   17.1480 C.cat  58  ARG58       0.5346
    139  NH1      -14.2530    8.5580   17.6860 N.pl3  58  ARG58       0.1354
    140  NH2      -15.7990   10.2430   17.6820 N.pl3  58  ARG58       0.1354
    141  N        -12.4200    8.0380   10.9040 N.am   59  ASN59      -0.1958
    142  CA       -11.1540    7.4240   10.5600 C.3    59  ASN59       0.1819
    143  C        -10.0400    8.0730   11.3640 C.2    59  ASN59       0.2621
    144  O        -10.1270    9.2360   11.7680 O.2    59  ASN59      -0.2715
    145  CB       -10.8740    7.6320    9.0840 C.3    59  ASN59       0.1195
    146  CG       -11.8970    6.9850    8.2030 C.2    59  ASN59       0.2630
    147  OD1      -12.6420    6.1050    8.6230 O.2    59  ASN59      -0.2716
    148  ND2      -11.9120    7.3840    6.9440 N.am   59  ASN59      -0.0877
    149  N         -9.0130    7.2880   11.6340 N.am   60  TYR60      -0.1974
    150  CA        -7.7580    7.7900   12.1510 C.3    60  TYR60       0.1639
    151  C         -6.6940    7.3160   11.1760 C.2    60  TYR60       0.2290
    152  O         -6.7880    6.2170   10.6290 O.2    60  TYR60      -0.2864
    153  CB        -7.4850    7.2570   13.5680 C.3    60  TYR60       0.0560
    154  CG        -6.2820    7.8840   14.2290 C.ar   60  TYR60      -0.0198
    155  CD1       -6.3600    9.1600   14.7740 C.ar   60  TYR60      -0.0009
    156  CD2       -5.0640    7.2070   14.3240 C.ar   60  TYR60      -0.0009
    157  CE1       -5.2730    9.7430   15.3830 C.ar   60  TYR60       0.0417
    158  CE2       -3.9700    7.7870   14.9310 C.ar   60  TYR60       0.0417
    159  CZ        -4.0770    9.0540   15.4560 C.ar   60  TYR60       0.1957
    160  OH        -3.0030    9.6480   16.0670 O.3    60  TYR60      -0.2866
    161  N         -9.4650   12.0660   18.1310 N.3    76  GLY76      -0.1210
    162  CA       -10.4620   11.0480   17.8820 C.3    76  GLY76       0.1956
    163  C        -10.2120    9.7720   18.6440 C.2    76  GLY76       0.2611
    164  O        -11.0840    8.8900   18.6590 O.2    76  GLY76      -0.2717
    165  N         -9.0350    9.6350   19.2550 N.am   77  LEU77      -0.1979
    166  CA        -8.7500    8.5160   20.1360 C.3    77  LEU77       0.1596
    167  C         -8.8190    8.9790   21.5910 C.2    77  LEU77       0.2287
    168  O         -9.9140    9.1760   22.1250 O.2    77  LEU77      -0.2864
    169  CB        -7.4040    7.8850   19.7650 C.3    77  LEU77       0.0297
    170  CG        -7.1820    7.4920   18.2940 C.3    77  LEU77       0.0022
    171  CD1       -5.8360    6.7760   18.1090 C.3    77  LEU77       0.0001
    172  CD2       -8.3060    6.6200   17.7580 C.3    77  LEU77       0.0001
    173  N         -1.5070   -3.3930   20.5130 N.3   119  MET119     -0.1245
    174  CA        -1.6000   -2.0180   20.9900 C.3   119  MET119      0.1570
    175  C         -1.4630   -2.0860   22.4990 C.2   119  MET119      0.2261
    176  O         -2.1260   -2.8890   23.1390 O.2   119  MET119     -0.2867
    177  CB        -2.9390   -1.3680   20.6180 C.3   119  MET119      0.0387
    178  CG        -3.2500   -1.4100   19.1220 C.3   119  MET119      0.0595
    179  SD        -4.8090   -0.5670   18.7750 S.3   119  MET119     -0.1393
    180  CE        -6.0010   -1.8000   19.2790 C.3   119  MET119      0.0692
    181  N         -4.6070   -7.9960   18.3920 N.3   128  GLN128     -0.1245
    182  CA        -5.5160   -8.1640   17.2730 C.3   128  GLN128      0.1566
    183  C         -4.8390   -8.8910   16.1280 C.2   128  GLN128      0.2260
    184  O         -3.6250   -8.7900   15.9220 O.2   128  GLN128     -0.2867
    185  CB        -6.0240   -6.8200   16.7920 C.3   128  GLN128      0.0367
    186  CG        -6.8010   -6.1110   17.8750 C.3   128  GLN128      0.0905
    187  CD        -7.3730   -4.7710   17.4220 C.2   128  GLN128      0.2608
    188  OE1       -6.8400   -4.0960   16.5290 O.2   128  GLN128     -0.2717
    189  NE2       -8.4840   -4.3850   18.0380 N.am  128  GLN128     -0.0878
@<TRIPOS>BOND
     1   103   102    2
     2   148   146   am
     3   102   101    1
     4   146   147    2
     5   146   145    1
     6   100   101    1
     7   101   104    1
     8   145   142    1
     9   104   105    1
    10   119   118    2
    11   105   106    1
    12   109   110    1
    13   118   117    1
    14   116   117    1
    15     1     2    1
    16   142   141    1
    17   142   143    1
    18   152   151    2
    19   117   120    1
    20   111   110    1
    21   111   112    2
    22   106   107    1
    23   141   132   am
    24    95    96    2
    25    95    94    1
    26   110   113    1
    27   151   150    1
    28   143   149   am
    29   143   144    2
    30    87    86    2
    31   149   150    1
    32   132   133    2
    33   132   131    1
    34    94    97    1
    35    94    93    1
    36     2     3    1
    37     2     5    1
    38     4     3    2
    39   131   130    1
    40   131   134    1
    41   122   123    1
    42   150   153    1
    43   120   121    1
    44   107   108    1
    45   113   114    1
    46   113   115    1
    47   130   124   am
    48    97    98    1
    49   125   124    2
    50   124   123    1
    51    86    93   am
    52    86    85    1
    53     5     6    1
    54   123   126    1
    55    93    99    1
    56    79    78    2
    57   134   135    1
    58    88    85    1
    59    88    89    1
    60   153   154    1
    61    98    99    1
    62    85    84    1
    63    90    89    1
    64    90    91    1
    65   154   156   ar
    66   154   155   ar
    67    78    84   am
    68    78    77    1
    69   135   136    1
    70   156   158   ar
    71     6     7    1
    72     6     8    1
    73   126   127    1
    74   155   157   ar
    75   158   159   ar
    76    83    81    1
    77    91    92    1
    78    77    80    1
    79    77    76    1
    80   157   159   ar
    81   136   137    1
    82    80    81    1
    83   159   160    1
    84   127   128    1
    85   127   129    1
    86   184   183    2
    87    81    82    1
    88   137   138    2
    89   183   182    1
    90   188   187    2
    91   185   182    1
    92   185   186    1
    93   138   140    1
    94   138   139    1
    95   182   181    1
    96   187   186    1
    97   187   189   am
    98   172   170    1
    99   162   161    1
   100   162   163    1
   101   171   170    1
   102   170   169    1
   103   163   164    2
   104   163   165   am
   105   179   178    1
   106   179   180    1
   107    74    73    2
   108    69    67    1
   109    66    65    2
   110   178   177    1
   111   165   166    1
   112   169   166    1
   113    73    72    1
   114    72    71    1
   115    72    75    1
   116    65    71   am
   117    65    64    1
   118   166   167    1
   119    67    64    1
   120    67    68    1
   121   173   174    1
   122   177   174    1
   123    19    18   ar
   124    19    17   ar
   125    18    16   ar
   126    64    63    1
   127    68    70    1
   128   174   175    1
   129    17    15   ar
   130    16    14   ar
   131   167   168    2
   132    31    30    1
   133    15    14   ar
   134    14    13    1
   135    29    30   ar
   136    29    27   ar
   137   175   176    2
   138    30    28   ar
   139    13    10    1
   140    59    58    2
   141    62    60    1
   142    27    25   ar
   143    28    26   ar
   144    38    39    1
   145    38    37    1
   146    10     9    1
   147    10    11    1
   148    58    57    1
   149    57    60    1
   150    57    56    1
   151    60    61    1
   152    25    26   ar
   153    25    24    1
   154    46    45    1
   155    37    36    1
   156    55    53    1
   157    11    12    2
   158    24    21    1
   159    54    52    1
   160    53    52    1
   161    45    47    1
   162    45    44    1
   163    36    33    1
   164    52    49    1
   165    32    33    1
   166    32    22   am
   167    33    34    1
   168    44    41    1
   169    21    22    1
   170    21    20    1
   171    22    23    2
   172    49    48    1
   173    49    50    1
   174    34    35    2
   175    41    42    1
   176    41    40    1
   177    43    42    2
   178    50    51    2
