@<TRIPOS>MOLECULE
tmp/6e6mC00.pdb
 174 162 0 0 0
SMALL
GASTEIGER

@<TRIPOS>ATOM
      1  N        -14.9420  -19.6380  -19.6380 N.3     9  MET9       -0.1245
      2  CA       -16.0220  -19.3820  -18.6860 C.3     9  MET9        0.1570
      3  C        -17.2410  -20.2390  -19.0100 C.2     9  MET9        0.2261
      4  O        -17.7580  -20.2060  -20.1340 O.2     9  MET9       -0.2867
      5  CB       -16.4110  -17.9010  -18.7010 C.3     9  MET9        0.0387
      6  CG       -17.2440  -17.4480  -17.5000 C.3     9  MET9        0.0595
      7  SD       -18.3610  -16.0580  -17.8770 S.3     9  MET9       -0.1393
      8  CE       -19.6970  -16.9710  -18.6010 C.3     9  MET9        0.0692
      9  N        -21.3090  -17.6840  -14.6250 N.3    12  ASN12      -0.1240
     10  CA       -20.9300  -16.4540  -13.9310 C.3    12  ASN12       0.1653
     11  C        -22.1950  -15.9730  -13.2190 C.2    12  ASN12       0.2266
     12  O        -23.1130  -15.4360  -13.8540 O.2    12  ASN12      -0.2867
     13  CB       -20.3850  -15.4170  -14.8940 C.3    12  ASN12       0.1155
     14  CG       -19.9940  -14.1040  -14.1960 C.2    12  ASN12       0.2627
     15  OD1      -19.8560  -14.0610  -12.9760 O.2    12  ASN12      -0.2716
     16  ND2      -19.8540  -13.0300  -14.9750 N.am   12  ASN12      -0.0877
     17  N        -22.8920  -11.6360  -10.8680 N.3    15  PHE15      -0.1241
     18  CA       -21.7990  -10.6950  -11.1230 C.3    15  PHE15       0.1605
     19  C        -22.2690   -9.2470  -11.0900 C.2    15  PHE15       0.2264
     20  O        -21.5350   -8.3640  -10.6410 O.2    15  PHE15      -0.2867
     21  CB       -21.1660  -10.9880  -12.4870 C.3    15  PHE15       0.0534
     22  CG       -19.8450  -10.3400  -12.7330 C.ar   15  PHE15      -0.0203
     23  CD1      -18.8510  -10.4250  -11.8020 C.ar   15  PHE15      -0.0042
     24  CD2      -19.5780   -9.6880  -13.9300 C.ar   15  PHE15      -0.0042
     25  CE1      -17.5800   -9.8590  -12.0410 C.ar   15  PHE15      -0.0003
     26  CE2      -18.3330   -9.1470  -14.1710 C.ar   15  PHE15      -0.0003
     27  CZ       -17.3480   -9.2280  -13.2250 C.ar   15  PHE15      -0.0000
     28  N        -20.5570   -6.2560   -8.9080 N.3    19  LEU19      -0.1245
     29  CA       -20.0230   -5.0080   -9.4460 C.3    19  LEU19       0.1561
     30  C        -20.7500   -3.8070   -8.8610 C.2    19  LEU19       0.2260
     31  O        -20.1400   -2.7550   -8.6460 O.2    19  LEU19      -0.2867
     32  CB       -20.1440   -4.9960  -10.9680 C.3    19  LEU19       0.0270
     33  CG       -19.2880   -6.0030  -11.7230 C.3    19  LEU19       0.0019
     34  CD1      -19.5430   -5.8640  -13.2260 C.3    19  LEU19       0.0001
     35  CD2      -17.8400   -5.8550  -11.3910 C.3    19  LEU19       0.0001
     36  N        -19.5870    0.1690   -9.5820 N.3    24  VAL24      -0.1245
     37  CA       -19.5030    0.2260  -11.0300 C.3    24  VAL24       0.1561
     38  C        -20.8550    0.6530  -11.5680 C.2    24  VAL24       0.2260
     39  O        -21.9010    0.1640  -11.1200 O.2    24  VAL24      -0.2867
     40  CB       -19.0890   -1.1480  -11.5750 C.3    24  VAL24       0.0252
     41  CG1      -19.0970   -1.1550  -13.0930 C.3    24  VAL24       0.0019
     42  CG2      -17.7130   -1.4810  -11.0610 C.3    24  VAL24       0.0019
     43  N        -21.4990   -0.0030  -17.4340 N.3    28  LEU28      -0.1245
     44  CA       -20.3640   -0.9120  -17.4500 C.3    28  LEU28       0.1561
     45  C        -20.7340   -2.2740  -16.8700 C.2    28  LEU28       0.2260
     46  O        -20.2480   -3.2980  -17.3530 O.2    28  LEU28      -0.2867
     47  CB       -19.1730   -0.3010  -16.6960 C.3    28  LEU28       0.0270
     48  CG       -17.9160   -1.1650  -16.6390 C.3    28  LEU28       0.0019
     49  CD1      -17.5110   -1.6350  -18.0240 C.3    28  LEU28       0.0001
     50  CD2      -16.7420   -0.4380  -15.9750 C.3    28  LEU28       0.0001
     51  N        -20.0820   -5.5930  -18.8090 N.3    32  ALA32      -0.1245
     52  CA       -19.1820   -6.5530  -18.1870 C.3    32  ALA32       0.1562
     53  C        -19.8370   -7.9130  -18.0430 C.2    32  ALA32       0.2260
     54  O        -19.1970   -8.9520  -18.2640 O.2    32  ALA32      -0.2867
     55  CB       -18.7350   -6.0460  -16.8160 C.3    32  ALA32       0.0290
     56  N        -19.7880  -10.2190  -20.9600 N.3    35  LEU35      -0.1245
     57  CA       -18.4960  -10.7590  -21.3240 C.3    35  LEU35       0.1561
     58  C        -18.3160  -12.1530  -20.7350 C.2    35  LEU35       0.2260
     59  O        -18.7480  -12.4490  -19.6110 O.2    35  LEU35      -0.2867
     60  CB       -17.3830   -9.8430  -20.8360 C.3    35  LEU35       0.0270
     61  CG       -17.4330   -8.4190  -21.3710 C.3    35  LEU35       0.0019
     62  CD1      -16.3090   -7.6120  -20.7560 C.3    35  LEU35       0.0001
     63  CD2      -17.3550   -8.4070  -22.8970 C.3    35  LEU35       0.0001
     64  N        -14.9960  -13.8980  -20.4540 N.3    37  PRO37      -0.2116
     65  CA       -13.5470  -13.9420  -20.6720 C.3    37  PRO37       0.1372
     66  C        -12.9680  -15.3110  -20.4080 C.2    37  PRO37       0.2244
     67  O        -13.4990  -16.1000  -19.6260 O.2    37  PRO37      -0.2868
     68  CB       -12.9940  -12.9250  -19.6610 C.3    37  PRO37       0.0268
     69  CG       -14.0240  -12.8870  -18.5710 C.3    37  PRO37       0.0207
     70  CD       -15.3490  -13.0670  -19.2860 C.3    37  PRO37       0.0892
     71  N         -9.4790  -17.3500  -18.9720 N.3    39  LYS39      -0.1245
     72  CA        -8.3560  -17.1370  -18.0630 C.3    39  LYS39       0.1561
     73  C         -7.1750  -17.9560  -18.5350 C.2    39  LYS39       0.2260
     74  O         -7.3030  -19.1610  -18.7850 O.2    39  LYS39      -0.2867
     75  CB        -8.6980  -17.4820  -16.6230 C.3    39  LYS39       0.0271
     76  CG        -9.6800  -16.4520  -16.0400 C.3    39  LYS39       0.0035
     77  CD        -9.9940  -16.6870  -14.6200 C.3    39  LYS39       0.0206
     78  CE       -10.9520  -15.6400  -14.0980 C.3    39  LYS39       0.1093
     79  NZ       -10.2740  -14.3970  -13.6410 N.3    39  LYS39      -0.1314
     80  N         -6.9400  -12.4010  -17.3830 N.3    52  THR52      -0.1218
     81  CA        -8.3710  -12.4850  -17.6990 C.3    52  THR52       0.1862
     82  C         -8.5840  -11.7420  -19.0170 C.2    52  THR52       0.2287
     83  O         -8.3490  -10.5360  -19.0920 O.2    52  THR52      -0.2866
     84  CB        -9.2010  -11.9110  -16.5500 C.3    52  THR52       0.1770
     85  OG1       -8.9020  -12.6300  -15.3450 O.3    52  THR52      -0.2211
     86  CG2      -10.7150  -12.0390  -16.8260 C.3    52  THR52       0.0375
     87  N        -10.5790  -10.7140  -22.6670 N.3    54  SER54      -0.1217
     88  CA       -11.8140  -10.5140  -23.4210 C.3    54  SER54       0.1889
     89  C        -11.5590   -9.5150  -24.5400 C.2    54  SER54       0.2288
     90  O        -10.5480   -8.8100  -24.5640 O.2    54  SER54      -0.2866
     91  CB       -12.9620  -10.0370  -22.5250 C.3    54  SER54       0.2089
     92  OG       -12.9120   -8.6450  -22.3010 O.3    54  SER54      -0.2183
     93  N        -13.3490   -6.9060  -24.9050 N.3    56  PHE56      -0.1227
     94  CA       -13.5670   -5.5830  -24.3350 C.3    56  PHE56       0.1736
     95  C        -12.3370   -5.0710  -23.6010 C.2    56  PHE56       0.2595
     96  O        -11.9830   -3.8930  -23.7120 O.2    56  PHE56      -0.2718
     97  CB       -14.7630   -5.6430  -23.3960 C.3    56  PHE56       0.0547
     98  CG       -15.0930   -4.3480  -22.7530 C.ar   56  PHE56      -0.0202
     99  CD1      -15.7040   -3.3450  -23.4850 C.ar   56  PHE56      -0.0042
    100  CD2      -14.8200   -4.1260  -21.4150 C.ar   56  PHE56      -0.0042
    101  CE1      -16.0250   -2.1640  -22.9060 C.ar   56  PHE56      -0.0003
    102  CE2      -15.1520   -2.9250  -20.8250 C.ar   56  PHE56      -0.0003
    103  CZ       -15.7540   -1.9390  -21.5820 C.ar   56  PHE56      -0.0000
    104  N        -11.6620   -5.9400  -22.8500 N.am   57  ARG57      -0.1966
    105  CA       -10.6670   -5.4800  -21.9050 C.3    57  ARG57       0.1729
    106  C         -9.9890   -6.7060  -21.3280 C.2    57  ARG57       0.2616
    107  O        -10.6020   -7.7690  -21.2240 O.2    57  ARG57      -0.2715
    108  CB       -11.3240   -4.6390  -20.7930 C.3    57  ARG57       0.0348
    109  CG       -10.3840   -3.7770  -19.9620 C.3    57  ARG57       0.0492
    110  CD       -11.1640   -2.9090  -18.9660 C.3    57  ARG57       0.2205
    111  NE       -11.8480   -1.7980  -19.6280 N.pl3  57  ARG57      -0.0865
    112  CZ       -12.6540   -0.9250  -19.0230 C.cat  57  ARG57       0.5346
    113  NH1      -12.9080   -1.0260  -17.7270 N.pl3  57  ARG57       0.1354
    114  NH2      -13.2090    0.0620  -19.7190 N.pl3  57  ARG57       0.1354
    115  N         -8.7350   -6.5400  -20.9450 N.am   58  ASN58      -0.1958
    116  CA        -7.9830   -7.5690  -20.2510 C.3    58  ASN58       0.1819
    117  C         -7.6860   -7.0640  -18.8450 C.2    58  ASN58       0.2621
    118  O         -7.6550   -5.8520  -18.5990 O.2    58  ASN58      -0.2715
    119  CB        -6.6780   -7.9050  -20.9750 C.3    58  ASN58       0.1195
    120  CG        -6.8850   -8.3980  -22.4040 C.2    58  ASN58       0.2630
    121  OD1       -7.8410   -9.1040  -22.7160 O.2    58  ASN58      -0.2716
    122  ND2       -5.9650   -8.0370  -23.2720 N.am   58  ASN58      -0.0877
    123  N         -7.5040   -7.9960  -17.9100 N.am   59  TYR59      -0.1974
    124  CA        -7.0570   -7.6520  -16.5680 C.3    59  TYR59       0.1639
    125  C         -6.0010   -8.6720  -16.1930 C.2    59  TYR59       0.2290
    126  O         -6.2550   -9.8790  -16.2660 O.2    59  TYR59      -0.2864
    127  CB        -8.1860   -7.6400  -15.5280 C.3    59  TYR59       0.0560
    128  CG        -7.6770   -7.2700  -14.1550 C.ar   59  TYR59      -0.0198
    129  CD1       -7.1870   -5.9900  -13.9020 C.ar   59  TYR59      -0.0009
    130  CD2       -7.6440   -8.1900  -13.1260 C.ar   59  TYR59      -0.0009
    131  CE1       -6.6940   -5.6520  -12.6430 C.ar   59  TYR59       0.0417
    132  CE2       -7.1570   -7.8620  -11.8750 C.ar   59  TYR59       0.0417
    133  CZ        -6.6740   -6.5980  -11.6420 C.ar   59  TYR59       0.1957
    134  OH        -6.1800   -6.2960  -10.3970 O.3    59  TYR59      -0.2866
    135  N         -9.5170   -0.6410  -14.6230 N.3    75  GLY75      -0.1210
    136  CA       -10.2600   -1.4430  -15.5680 C.3    75  GLY75       0.1956
    137  C        -11.3480   -2.2800  -14.9340 C.2    75  GLY75       0.2611
    138  O        -12.1900   -2.8320  -15.6550 O.2    75  GLY75      -0.2717
    139  N        -11.3510   -2.3980  -13.6110 N.am   76  ILE76      -0.1979
    140  CA       -12.4780   -2.9880  -12.8960 C.3    76  ILE76       0.1595
    141  C        -13.2740   -1.8760  -12.2140 C.2    76  ILE76       0.2287
    142  O        -14.2410   -1.3500  -12.7800 O.2    76  ILE76      -0.2864
    143  CB       -11.9980   -4.0510  -11.8940 C.3    76  ILE76       0.0276
    144  CG1      -11.0190   -5.0280  -12.5650 C.3    76  ILE76       0.0022
    145  CG2      -13.2120   -4.7900  -11.3190 C.3    76  ILE76       0.0022
    146  CD1      -11.5670   -5.7320  -13.8030 C.3    76  ILE76       0.0001
    147  N        -15.9630  -14.7000   -5.6450 N.3   118  MET118     -0.1245
    148  CA       -15.5200  -13.3620   -5.2890 C.3   118  MET118      0.1570
    149  C        -16.5620  -12.6860   -4.4150 C.2   118  MET118      0.2261
    150  O        -17.7700  -12.9320   -4.5080 O.2   118  MET118     -0.2867
    151  CB       -15.2070  -12.5090   -6.5140 C.3   118  MET118      0.0387
    152  CG       -16.2640  -12.5150   -7.5410 C.3   118  MET118      0.0595
    153  SD       -15.8140  -11.6930   -9.0940 S.3   118  MET118     -0.1393
    154  CE       -14.3760  -12.6120   -9.6350 C.3   118  MET118      0.0692
    155  N        -18.0320  -18.0030  -10.1420 N.3   127  GLN127     -0.1245
    156  CA       -17.6880  -18.2710  -11.5280 C.3   127  GLN127      0.1566
    157  C        -17.0650  -19.6560  -11.6170 C.2   127  GLN127      0.2260
    158  O        -16.4140  -20.1260  -10.6800 O.2   127  GLN127     -0.2867
    159  CB       -16.7250  -17.2110  -12.0850 C.3   127  GLN127      0.0367
    160  CG       -17.2890  -15.8110  -12.0310 C.3   127  GLN127      0.0905
    161  CD       -16.3490  -14.7210  -12.5180 C.2   127  GLN127      0.2608
    162  OE1      -15.1590  -14.9480  -12.7380 O.2   127  GLN127     -0.2717
    163  NE2      -16.8910  -13.5030  -12.6460 N.am  127  GLN127     -0.0878
    164  N        -14.9660  -22.0530  -14.6180 N.3   129  PHE129     -0.1241
    165  CA       -14.3500  -22.1460  -15.9260 C.3   129  PHE129      0.1605
    166  C        -13.9840  -23.5990  -16.1960 C.2   129  PHE129      0.2264
    167  O        -13.8020  -24.3910  -15.2710 O.2   129  PHE129     -0.2867
    168  CB       -13.0840  -21.3040  -16.0290 C.3   129  PHE129      0.0534
    169  CG       -13.2850  -19.8490  -15.7220 C.ar  129  PHE129     -0.0203
    170  CD1      -13.4970  -19.4290  -14.4230 C.ar  129  PHE129     -0.0042
    171  CD2      -13.2330  -18.9050  -16.7230 C.ar  129  PHE129     -0.0042
    172  CE1      -13.6930  -18.1130  -14.1390 C.ar  129  PHE129     -0.0003
    173  CE2      -13.4300  -17.5880  -16.4380 C.ar  129  PHE129     -0.0003
    174  CZ       -13.6750  -17.1960  -15.1430 C.ar  129  PHE129     -0.0000
@<TRIPOS>BOND
     1    93    94    1
     2    90    89    2
     3    89    88    1
     4    94    95    1
     5    94    97    1
     6    96    95    2
     7    95   104   am
     8    99   101   ar
     9    99    98   ar
    10    88    87    1
    11    88    91    1
    12    97    98    1
    13   122   120   am
    14   101   103   ar
    15    63    61    1
    16   104   105    1
    17    98   100   ar
    18   121   120    2
    19    91    92    1
    20   120   119    1
    21   105   106    1
    22   105   108    1
    23   103   102   ar
    24   100   102   ar
    25    61    60    1
    26    61    62    1
    27   106   107    2
    28   106   115   am
    29    57    56    1
    30    57    60    1
    31    57    58    1
    32   119   116    1
    33   115   116    1
    34   108   109    1
    35    58    59    2
    36    65    64    1
    37    65    66    1
    38    65    68    1
    39    64    70    1
    40    66    67    2
    41   116   117    1
    42     4     3    2
    43   109   110    1
    44   114   112    1
    45    68    69    1
    46     1     2    1
    47   111   112    2
    48   111   110    1
    49    70    69    1
    50    83    82    2
    51   112   113    1
    52    82    81    1
    53     3     2    1
    54    71    72    1
    55   117   118    2
    56   117   123   am
    57    51    52    1
    58    74    73    2
    59     5     2    1
    60     5     6    1
    61     8     7    1
    62    73    72    1
    63    54    53    2
    64    52    53    1
    65    52    55    1
    66    72    75    1
    67    49    48    1
    68   123   124    1
    69     7     6    1
    70    81    80    1
    71    81    84    1
    72    44    43    1
    73    44    45    1
    74    44    47    1
    75    46    45    2
    76    86    84    1
    77   171   173   ar
    78   171   169   ar
    79    47    48    1
    80    48    50    1
    81    75    76    1
    82   124   125    1
    83   124   127    1
    84    84    85    1
    85   173   174   ar
    86   126   125    2
    87   166   165    1
    88   166   167    2
    89    76    77    1
    90   168   165    1
    91   168   169    1
    92   165   164    1
    93   169   170   ar
    94   138   137    2
    95   136   137    1
    96   136   135    1
    97   127   128    1
    98   174   172   ar
    99    16    14   am
   100   137   139   am
   101    13    14    1
   102    13    10    1
   103     9    10    1
   104    77    78    1
   105   170   172   ar
   106    14    15    2
   107    26    24   ar
   108    26    27   ar
   109   128   129   ar
   110   128   130   ar
   111    78    79    1
   112    10    11    1
   113    24    22   ar
   114   129   131   ar
   115    12    11    2
   116   146   144    1
   117   139   140    1
   118    34    33    1
   119    27    25   ar
   120   130   132   ar
   121    41    40    1
   122   140   141    1
   123   140   143    1
   124   142   141    2
   125   162   161    2
   126    22    21    1
   127    22    23   ar
   128   163   161   am
   129   131   133   ar
   130   144   143    1
   131   161   160    1
   132    21    18    1
   133   159   160    1
   134   159   156    1
   135    25    23   ar
   136   143   145    1
   137   132   133   ar
   138    33    35    1
   139    33    32    1
   140   133   134    1
   141   157   156    1
   142   157   158    2
   143    40    42    1
   144    40    37    1
   145    38    39    2
   146    38    37    1
   147   156   155    1
   148    18    19    1
   149    18    17    1
   150    19    20    2
   151    37    36    1
   152    32    29    1
   153   154   153    1
   154    29    28    1
   155    29    30    1
   156   153   152    1
   157    30    31    2
   158   152   151    1
   159   151   148    1
   160   147   148    1
   161   148   149    1
   162   150   149    2
