@<TRIPOS>MOLECULE
tmp/6e7jB00.pdb
 121 113 0 0 0
SMALL
GASTEIGER

@<TRIPOS>ATOM
      1  N         20.6470   34.5020   24.7690 N.3     8  ARG8       -0.1245
      2  CA        19.9170   33.2310   24.8250 C.3     8  ARG8        0.1563
      3  C         18.9810   33.2380   26.0200 C.2     8  ARG8        0.2260
      4  O         19.3670   33.6930   27.1090 O.2     8  ARG8       -0.2867
      5  CB        20.9030   32.0980   25.0200 C.3     8  ARG8        0.0307
      6  CG        21.7540   31.7860   23.8080 C.3     8  ARG8        0.0489
      7  CD        22.8290   30.7680   24.0140 C.3     8  ARG8        0.2205
      8  NE        23.5840   30.5330   22.8050 N.pl3   8  ARG8       -0.0865
      9  CZ        24.8300   30.1160   22.7470 C.cat   8  ARG8        0.5346
     10  NH1       25.5080   29.8220   23.8510 N.pl3   8  ARG8        0.1354
     11  NH2       25.4530   29.9830   21.6000 N.pl3   8  ARG8        0.1354
     12  N         17.7120   26.2200   28.1900 N.3    23  LEU23      -0.1245
     13  CA        17.1760   27.1230   27.2550 C.3    23  LEU23       0.1561
     14  C         15.6380   27.0210   27.1990 C.2    23  LEU23       0.2260
     15  O         15.1010   25.9140   26.9870 O.2    23  LEU23      -0.2867
     16  CB        17.9260   26.6880   25.9910 C.3    23  LEU23       0.0270
     17  CG        17.9390   27.5380   24.7630 C.3    23  LEU23       0.0019
     18  CD1       18.6120   28.8460   25.0390 C.3    23  LEU23       0.0001
     19  CD2       18.7260   26.7840   23.7360 C.3    23  LEU23       0.0001
     20  N         12.8590   27.0250   24.8280 N.3    25  ASP25      -0.1239
     21  CA        13.0060   26.7690   23.3750 C.3    25  ASP25       0.1674
     22  C         11.6510   26.5340   22.7190 C.2    25  ASP25       0.2266
     23  O         11.1680   25.3830   22.7060 O.2    25  ASP25      -0.2867
     24  CB        13.9700   25.6170   23.1940 C.3    25  ASP25       0.1410
     25  CG        14.3100   25.4600   21.7640 C.2    25  ASP25       0.3668
     26  OD1       13.7360   26.2580   20.9000 O.co2  25  ASP25      -0.2456
     27  OD2       15.2510   24.7080   21.4870 O.co2  25  ASP25      -0.2456
     28  N         11.2240   26.2440   19.5890 N.3    27  GLY27      -0.1210
     29  CA        11.4170   25.3490   18.4530 C.3    27  GLY27       0.1956
     30  C         11.5320   23.8860   18.8120 C.2    27  GLY27       0.2612
     31  O         11.6470   23.0650   17.9150 O.2    27  GLY27      -0.2717
     32  N         11.4990   23.5590   20.0750 N.am   28  ALA28      -0.1965
     33  CA        11.6100   22.1550   20.5760 C.3    28  ALA28       0.1728
     34  C         10.2200   21.6760   20.9600 C.2    28  ALA28       0.2616
     35  O          9.5670   22.2500   21.8510 O.2    28  ALA28      -0.2715
     36  CB        12.5470   22.1240   21.7990 C.3    28  ALA28       0.0334
     37  N          9.7830   20.5490   20.3910 N.am   29  ASP29      -0.1957
     38  CA         8.5080   20.0210   20.7590 C.3    29  ASP29       0.1840
     39  C          8.5590   19.5280   22.2240 C.2    29  ASP29       0.2622
     40  O          7.5710   19.6530   22.9570 O.2    29  ASP29      -0.2715
     41  CB         8.1220   18.8210   19.8750 C.3    29  ASP29       0.1450
     42  CG         7.9440   19.1170   18.4050 C.2    29  ASP29       0.3671
     43  OD1        7.6030   20.2530   18.0240 O.co2  29  ASP29      -0.2456
     44  OD2        8.0630   18.1440   17.6210 O.co2  29  ASP29      -0.2456
     45  N          9.6720   18.9380   22.5830 N.am   30  ASP30      -0.1971
     46  CA         9.8350   18.2550   23.8510 C.3    30  ASP30       0.1709
     47  C         11.0710   18.8100   24.5740 C.2    30  ASP30       0.2293
     48  O         11.9360   19.4560   23.9900 O.2    30  ASP30      -0.2864
     49  CB         9.9450   16.7570   23.6030 C.3    30  ASP30       0.1436
     50  CG         8.7600   16.1350   22.8360 C.2    30  ASP30       0.3671
     51  OD1        7.5450   16.4640   23.1190 O.co2  30  ASP30      -0.2456
     52  OD2        9.0460   15.2900   22.0480 O.co2  30  ASP30      -0.2456
     53  N         14.5430   18.2390   26.5240 N.3    32  VAL32      -0.1245
     54  CA        15.6790   17.3310   26.3750 C.3    32  VAL32       0.1561
     55  C         16.7770   17.8000   27.3100 C.2    32  VAL32       0.2260
     56  O         17.2130   18.9490   27.1970 O.2    32  VAL32      -0.2867
     57  CB        16.2350   17.2550   24.9370 C.3    32  VAL32       0.0252
     58  CG1       17.1130   16.0720   24.8140 C.3    32  VAL32       0.0019
     59  CG2       15.1610   17.3480   23.8840 C.3    32  VAL32       0.0019
     60  N         12.8140    6.9280   22.3190 N.3    45  LYS45      -0.1245
     61  CA        12.3160    7.9640   21.4080 C.3    45  LYS45       0.1561
     62  C         13.4900    8.3850   20.5610 C.2    45  LYS45       0.2260
     63  O         14.5960    8.4590   21.0070 O.2    45  LYS45      -0.2867
     64  CB        11.7410    9.1470   22.2030 C.3    45  LYS45       0.0271
     65  CG        10.9720   10.1280   21.2950 C.3    45  LYS45       0.0035
     66  CD        10.2630   11.1720   21.9850 C.3    45  LYS45       0.0206
     67  CE         9.6440   12.1810   21.0700 C.3    45  LYS45       0.1093
     68  NZ         8.3690   11.6950   20.5300 N.3    45  LYS45      -0.1314
     69  N         14.5900   11.6520   18.2220 N.3    47  ILE47      -0.1231
     70  CA        14.2610   13.0710   17.9700 C.3    47  ILE47       0.1692
     71  C         15.2190   13.5580   16.9030 C.2    47  ILE47       0.2593
     72  O         16.3720   13.0850   16.8340 O.2    47  ILE47      -0.2718
     73  CB        14.2920   13.9340   19.2320 C.3    47  ILE47       0.0266
     74  CG1       15.6860   13.9860   19.8850 C.3    47  ILE47       0.0019
     75  CG2       13.2210   13.4370   20.1910 C.3    47  ILE47       0.0020
     76  CD1       15.8100   14.9770   20.9990 C.3    47  ILE47       0.0001
     77  N         14.7450   14.5460   16.1240 N.am   48  GLY48      -0.1942
     78  CA        15.5220   15.0630   15.0100 C.3    48  GLY48       0.2014
     79  C         15.8580   16.5090   15.1830 C.2    48  GLY48       0.2639
     80  O         14.9590   17.3140   15.4800 O.2    48  GLY48      -0.2714
     81  N         17.1500   16.7490   15.0670 N.am   49  GLY49      -0.1939
     82  CA        17.7340   17.9820   15.2400 C.3    49  GLY49       0.2014
     83  C         18.2820   18.5150   13.9450 C.2    49  GLY49       0.2638
     84  O         18.1020   17.9140   12.8270 O.2    49  GLY49      -0.2714
     85  N         19.0830   19.5600   14.0970 N.am   50  ILE50      -0.1977
     86  CA        19.6250   20.1780   12.9820 C.3    50  ILE50       0.1596
     87  C         20.5250   19.2540   12.2420 C.2    50  ILE50       0.2287
     88  O         20.5360   19.2590   10.9800 O.2    50  ILE50      -0.2864
     89  CB        20.3950   21.4350   13.3740 C.3    50  ILE50       0.0276
     90  CG1       20.7100   22.1930   12.1230 C.3    50  ILE50       0.0022
     91  CG2       21.6480   21.1330   14.1890 C.3    50  ILE50       0.0022
     92  CD1       19.7380   23.3080   11.8780 C.3    50  ILE50       0.0001
     93  N         22.3760   15.6780   24.2570 N.3    80  THR80      -0.1204
     94  CA        22.1160   17.0110   23.7690 C.3    80  THR80       0.1979
     95  C         23.2570   17.9310   24.2170 C.2    80  THR80       0.2460
     96  O         23.7850   17.8350   25.3340 O.2    80  THR80      -0.2732
     97  CB        20.7670   17.5000   24.2910 C.3    80  THR80       0.1783
     98  OG1       20.6430   18.8320   23.7790 O.3    80  THR80      -0.2211
     99  CG2       20.6450   17.4730   25.7940 C.3    80  THR80       0.0376
    100  N         23.7030   18.8490   23.3420 N.am   81  PRO81      -0.2717
    101  CA        24.7320   19.8390   23.7010 C.3    81  PRO81       0.1535
    102  C         24.3210   20.8280   24.8100 C.2    81  PRO81       0.2598
    103  O         25.1730   21.4040   25.4650 O.2    81  PRO81      -0.2715
    104  CB        24.8460   20.6380   22.3800 C.3    81  PRO81       0.0310
    105  CG        24.4290   19.6870   21.3120 C.3    81  PRO81       0.0237
    106  CD        23.2940   18.8870   21.9280 C.3    81  PRO81       0.0939
    107  N         23.0090   21.0030   25.0190 N.am   82  VAL82      -0.1978
    108  CA        22.4390   22.0600   25.8740 C.3    82  VAL82       0.1596
    109  C         21.1170   21.5280   26.4230 C.2    82  VAL82       0.2287
    110  O         20.3940   20.8030   25.7560 O.2    82  VAL82      -0.2864
    111  CB        22.1720   23.3170   25.0380 C.3    82  VAL82       0.0276
    112  CG1       21.1120   23.0640   24.0130 C.3    82  VAL82       0.0022
    113  CG2       21.7830   24.4910   25.8660 C.3    82  VAL82       0.0022
    114  N         17.3260   21.7700   27.1660 N.3    84  ILE84      -0.1245
    115  CA        16.3000   22.4260   26.4180 C.3    84  ILE84       0.1561
    116  C         14.9450   22.2280   27.0670 C.2    84  ILE84       0.2260
    117  O         14.5320   21.0500   27.2770 O.2    84  ILE84      -0.2867
    118  CB        16.2690   21.8730   24.9790 C.3    84  ILE84       0.0252
    119  CG1       17.5480   22.2080   24.2150 C.3    84  ILE84       0.0019
    120  CG2       15.0240   22.3290   24.2330 C.3    84  ILE84       0.0019
    121  CD1       17.8260   21.1910   23.1080 C.3    84  ILE84       0.0001
@<TRIPOS>BOND
     1    88    87    2
     2    92    90    1
     3    90    89    1
     4    87    86    1
     5    84    83    2
     6    86    89    1
     7    86    85    1
     8    89    91    1
     9    83    85   am
    10    83    82    1
    11    78    79    1
    12    78    77    1
    13    81    79   am
    14    81    82    1
    15    79    80    2
    16    77    71   am
    17    72    71    2
    18    71    70    1
    19    44    42   ar
    20    31    30    2
    21    70    69    1
    22    70    73    1
    23    43    42   ar
    24    42    41    1
    25    29    30    1
    26    29    28    1
    27    30    32   am
    28    73    74    1
    29    73    75    1
    30    41    38    1
    31    74    76    1
    32    32    33    1
    33    37    38    1
    34    37    34   am
    35    68    67    1
    36    62    63    2
    37    62    61    1
    38    33    34    1
    39    33    36    1
    40    38    39    1
    41    26    25   ar
    42    34    35    2
    43    67    66    1
    44    65    66    1
    45    65    64    1
    46   105   106    1
    47   105   104    1
    48    61    64    1
    49    61    60    1
    50    27    25   ar
    51    11     9    1
    52    25    24    1
    53   106   100    1
    54    52    50   ar
    55    39    45   am
    56    39    40    2
    57   104   101    1
    58    45    46    1
    59    23    22    2
    60    22    21    1
    61     9     8    2
    62     9    10    1
    63     8     7    1
    64    50    51   ar
    65    50    49    1
    66   121   119    1
    67    24    21    1
    68   100   101    1
    69   100    95   am
    70    21    20    1
    71    49    46    1
    72   101   102    1
    73    19    17    1
    74    94    95    1
    75    94    93    1
    76    94    97    1
    77    98    97    1
    78     6     7    1
    79     6     5    1
    80    46    47    1
    81    59    57    1
    82    48    47    2
    83   112   111    1
    84   119   118    1
    85    95    96    2
    86   120   118    1
    87    97    99    1
    88    17    18    1
    89    17    16    1
    90     1     2    1
    91   102   107   am
    92   102   103    2
    93    58    57    1
    94     2     5    1
    95     2     3    1
    96    57    54    1
    97   118   115    1
    98   107   108    1
    99   111   113    1
   100   111   108    1
   101   110   109    2
   102   108   109    1
   103    16    13    1
   104     3     4    2
   105    54    53    1
   106    54    55    1
   107   115   116    1
   108   115   114    1
   109    15    14    2
   110   116   117    2
   111    56    55    2
   112    14    13    1
   113    13    12    1
