@<TRIPOS>MOLECULE
tmp/6e7pC00.pdb
 128 120 0 0 0
SMALL
GASTEIGER

@<TRIPOS>ATOM
      1  N        121.7270  162.3280  188.2770 N.3    10  TYR10      -0.1227
      2  CA       121.2010  161.6170  187.1160 C.3    10  TYR10       0.1736
      3  C        121.7690  162.1800  185.8290 C.2    10  TYR10       0.2595
      4  O        121.9900  161.4420  184.8640 O.2    10  TYR10      -0.2718
      5  CB       119.6790  161.6980  187.0740 C.3    10  TYR10       0.0548
      6  CG       118.9760  160.7510  188.0010 C.ar   10  TYR10      -0.0200
      7  CD1      119.6220  159.6310  188.5010 C.ar   10  TYR10      -0.0009
      8  CD2      117.6600  160.9830  188.3860 C.ar   10  TYR10      -0.0009
      9  CE1      118.9740  158.7630  189.3510 C.ar   10  TYR10       0.0417
     10  CE2      117.0050  160.1230  189.2390 C.ar   10  TYR10       0.0417
     11  CZ       117.6680  159.0170  189.7170 C.ar   10  TYR10       0.1957
     12  OH       117.0160  158.1660  190.5720 O.3    10  TYR10      -0.2866
     13  N        122.0040  163.4880  185.7910 N.am   11  PHE11      -0.1976
     14  CA       122.5750  164.0830  184.5990 C.3    11  PHE11       0.1639
     15  C        124.0310  163.6930  184.4210 C.2    11  PHE11       0.2290
     16  O        124.5340  163.7090  183.2950 O.2    11  PHE11      -0.2864
     17  CB       122.4280  165.5970  184.6550 C.3    11  PHE11       0.0560
     18  CG       122.7940  166.2740  183.3830 C.ar   11  PHE11      -0.0200
     19  CD1      121.9410  166.2220  182.2970 C.ar   11  PHE11      -0.0042
     20  CD2      123.9920  166.9490  183.2620 C.ar   11  PHE11      -0.0042
     21  CE1      122.2720  166.8390  181.1120 C.ar   11  PHE11      -0.0003
     22  CE2      124.3280  167.5710  182.0800 C.ar   11  PHE11      -0.0003
     23  CZ       123.4660  167.5150  181.0020 C.ar   11  PHE11      -0.0000
     24  N        122.9770  153.5230  183.6640 N.3    18  LYS18      -0.1245
     25  CA       121.5840  153.9290  183.5140 C.3    18  LYS18       0.1561
     26  C        120.6540  152.7280  183.5100 C.2    18  LYS18       0.2260
     27  O        119.4970  152.8410  183.9280 O.2    18  LYS18      -0.2867
     28  CB       121.3900  154.7260  182.2250 C.3    18  LYS18       0.0271
     29  CG       122.0080  156.1020  182.2250 C.3    18  LYS18       0.0035
     30  CD       121.7620  156.8060  180.9010 C.3    18  LYS18       0.0206
     31  CE       122.4510  158.1590  180.8610 C.3    18  LYS18       0.1093
     32  NZ       122.1880  158.8990  179.5610 N.3    18  LYS18      -0.1314
     33  N        117.4660  153.5180  186.9370 N.3    22  LYS22      -0.1245
     34  CA       116.0230  153.5370  187.1290 C.3    22  LYS22       0.1561
     35  C        115.3180  152.6150  186.1470 C.2    22  LYS22       0.2260
     36  O        114.0860  152.6770  186.0430 O.2    22  LYS22      -0.2867
     37  CB       115.4530  154.9650  187.0000 C.3    22  LYS22       0.0271
     38  CG       115.9650  155.9490  188.0520 C.3    22  LYS22       0.0035
     39  CD       115.5380  155.5460  189.4590 C.3    22  LYS22       0.0206
     40  CE       114.1410  156.0040  189.8080 C.3    22  LYS22       0.1093
     41  NZ       114.0940  157.4850  189.9470 N.3    22  LYS22      -0.1314
     42  N        115.8440  152.1340  182.4150 N.3    24  ARG24      -0.1245
     43  CA       115.4580  153.0240  181.3340 C.3    24  ARG24       0.1563
     44  C        115.3480  152.3410  179.9750 C.2    24  ARG24       0.2260
     45  O        114.6060  152.8380  179.1190 O.2    24  ARG24      -0.2867
     46  CB       116.4470  154.2000  181.2540 C.3    24  ARG24       0.0307
     47  CG       116.0300  155.3660  180.3650 C.3    24  ARG24       0.0489
     48  CD       114.8330  156.1110  180.9560 C.3    24  ARG24       0.2205
     49  NE       113.5390  155.5730  180.5380 N.pl3  24  ARG24      -0.0865
     50  CZ       112.3770  155.9300  181.0740 C.cat  24  ARG24       0.5346
     51  NH1      111.2460  155.3940  180.6440 N.pl3  24  ARG24       0.1354
     52  NH2      112.3480  156.8270  182.0450 N.pl3  24  ARG24       0.1354
     53  N        117.5480  155.1300  173.5340 N.3    28  LYS28      -0.1245
     54  CA       117.8520  156.5090  173.1740 C.3    28  LYS28       0.1561
     55  C        119.3160  156.7020  172.7980 C.2    28  LYS28       0.2260
     56  O        119.6780  157.7800  172.3170 O.2    28  LYS28      -0.2867
     57  CB       117.4720  157.4490  174.3200 C.3    28  LYS28       0.0271
     58  CG       116.0140  157.3270  174.7490 C.3    28  LYS28       0.0035
     59  CD       115.0690  157.7350  173.6390 C.3    28  LYS28       0.0206
     60  CE       113.6130  157.5650  174.0330 C.3    28  LYS28       0.1093
     61  NZ       113.1770  158.5510  175.0450 N.3    28  LYS28      -0.1314
     62  N        115.7770  163.8810  169.0860 N.3   264  LEU264     -0.1245
     63  CA       116.0120  163.2570  170.3780 C.3   264  LEU264      0.1561
     64  C        117.1600  163.9270  171.1100 C.2   264  LEU264      0.2260
     65  O        117.0650  164.1910  172.3120 O.2   264  LEU264     -0.2867
     66  CB       116.2720  161.7620  170.1870 C.3   264  LEU264      0.0270
     67  CG       116.3240  160.7940  171.3770 C.3   264  LEU264      0.0019
     68  CD1      117.6940  160.6700  172.0660 C.3   264  LEU264      0.0001
     69  CD2      115.2610  161.1970  172.3870 C.3   264  LEU264      0.0001
     70  N        116.5920  167.4420  172.6350 N.3   267  ARG267     -0.1231
     71  CA       115.7670  167.4890  173.8330 C.3   267  ARG267      0.1694
     72  C        116.6370  167.4400  175.0780 C.2   267  ARG267      0.2592
     73  O        116.3070  168.0460  176.1020 O.2   267  ARG267     -0.2718
     74  CB       114.7660  166.3370  173.8200 C.3   267  ARG267      0.0321
     75  CG       113.7060  166.4250  174.8900 C.3   267  ARG267      0.0489
     76  CD       112.7310  165.2750  174.7840 C.3   267  ARG267      0.2205
     77  NE       111.6200  165.4250  175.7160 N.pl3 267  ARG267     -0.0865
     78  CZ       111.6210  164.9730  176.9640 C.cat 267  ARG267      0.5346
     79  NH1      110.5610  165.1580  177.7350 N.pl3 267  ARG267      0.1354
     80  NH2      112.6800  164.3380  177.4410 N.pl3 267  ARG267      0.1354
     81  N        117.7690  166.7450  174.9950 N.am  268  SER268     -0.1952
     82  CA       118.7350  166.7840  176.0800 C.3   268  SER268      0.1924
     83  C        119.4350  168.1270  176.1480 C.2   268  SER268      0.2314
     84  O        119.7870  168.5840  177.2400 O.2   268  SER268     -0.2863
     85  CB       119.7620  165.6690  175.9190 C.3   268  SER268      0.2116
     86  OG       120.7010  165.7010  176.9790 O.3   268  SER268     -0.2180
     87  N        117.1090  170.0260  177.8460 N.3   271  ARG271     -0.1245
     88  CA       117.1000  169.6800  179.2590 C.3   271  ARG271      0.1563
     89  C        118.2650  170.3210  179.9910 C.2   271  ARG271      0.2260
     90  O        118.1130  170.7690  181.1320 O.2   271  ARG271     -0.2867
     91  CB       117.1350  168.1640  179.4320 C.3   271  ARG271      0.0307
     92  CG       117.0130  167.7270  180.8720 C.3   271  ARG271      0.0489
     93  CD       116.8920  166.2280  181.0120 C.3   271  ARG271      0.2205
     94  NE       116.7880  165.8510  182.4150 N.pl3 271  ARG271     -0.0865
     95  CZ       115.6490  165.8290  183.0990 C.cat 271  ARG271      0.5346
     96  NH1      115.6500  165.4730  184.3740 N.pl3 271  ARG271      0.1354
     97  NH2      114.5060  166.1510  182.5070 N.pl3 271  ARG271      0.1354
     98  N        126.7970  168.9730  177.0340 N.3   301  ASN301     -0.1240
     99  CA       127.7630  167.9530  176.6670 C.3   301  ASN301      0.1653
    100  C        128.2710  168.1890  175.2560 C.2   301  ASN301      0.2266
    101  O        127.4900  168.3950  174.3250 O.2   301  ASN301     -0.2867
    102  CB       127.1280  166.5790  176.7740 C.3   301  ASN301      0.1155
    103  CG       126.5690  166.3210  178.1390 C.2   301  ASN301      0.2627
    104  OD1      125.3650  166.1530  178.3040 O.2   301  ASN301     -0.2716
    105  ND2      127.4350  166.3180  179.1380 N.am  301  ASN301     -0.0877
    106  N        127.0420  165.9310  172.2320 N.3   304  TYR304     -0.1241
    107  CA       125.7210  166.0800  171.6340 C.3   304  TYR304      0.1605
    108  C        125.7000  167.1620  170.5690 C.2   304  TYR304      0.2264
    109  O        125.0520  166.9960  169.5310 O.2   304  TYR304     -0.2867
    110  CB       124.6790  166.3550  172.7080 C.3   304  TYR304      0.0534
    111  CG       124.3000  165.1130  173.4620 C.ar  304  TYR304     -0.0201
    112  CD1      123.4040  164.2080  172.9210 C.ar  304  TYR304     -0.0009
    113  CD2      124.8420  164.8380  174.7000 C.ar  304  TYR304     -0.0009
    114  CE1      123.0520  163.0700  173.5950 C.ar  304  TYR304      0.0417
    115  CE2      124.4970  163.7010  175.3870 C.ar  304  TYR304      0.0417
    116  CZ       123.5990  162.8210  174.8270 C.ar  304  TYR304      0.1957
    117  OH       123.2410  161.6790  175.4990 O.3   304  TYR304     -0.2866
    118  N        133.2400  158.2170  171.9350 N.3   352  ARG352     -0.1245
    119  CA       132.4420  158.3500  173.1490 C.3   352  ARG352      0.1563
    120  C        132.1180  156.9910  173.7520 C.2   352  ARG352      0.2260
    121  O        132.1650  156.8150  174.9750 O.2   352  ARG352     -0.2867
    122  CB       131.1520  159.1000  172.8440 C.3   352  ARG352      0.0307
    123  CG       130.2950  159.2930  174.0600 C.3   352  ARG352      0.0489
    124  CD       128.9780  159.9370  173.7400 C.3   352  ARG352      0.2205
    125  NE       128.1560  160.0050  174.9390 N.pl3 352  ARG352     -0.0865
    126  CZ       126.9290  160.4990  174.9770 C.cat 352  ARG352      0.5346
    127  NH1      126.3690  160.9670  173.8730 N.pl3 352  ARG352      0.1354
    128  NH2      126.2620  160.5230  176.1200 N.pl3 352  ARG352      0.1354
@<TRIPOS>BOND
     1    62    63    1
     2   109   108    2
     3    66    63    1
     4    66    67    1
     5    63    64    1
     6   108   107    1
     7    64    65    2
     8    67    68    1
     9    67    69    1
    10   107   106    1
    11   107   110    1
    12   118   119    1
    13    56    55    2
    14    70    71    1
    15   110   111    1
    16    55    54    1
    17   122   119    1
    18   122   123    1
    19   112   111   ar
    20   112   114   ar
    21   119   120    1
    22    54    53    1
    23    54    57    1
    24   111   113   ar
    25   114   116   ar
    26    59    60    1
    27    59    58    1
    28   124   123    1
    29   124   125    1
    30   120   121    2
    31    74    71    1
    32    74    75    1
    33    71    72    1
    34   127   126    1
    35    60    61    1
    36    57    58    1
    37   101   100    2
    38   113   115   ar
    39    76    75    1
    40    76    77    1
    41   116   115   ar
    42   116   117    1
    43   125   126    2
    44   126   128    1
    45    81    72   am
    46    81    82    1
    47    72    73    2
    48   100    99    1
    49    77    78    2
    50    85    82    1
    51    85    86    1
    52    82    83    1
    53    83    84    2
    54    99   102    1
    55    99    98    1
    56   102   103    1
    57    78    80    1
    58    78    79    1
    59    87    88    1
    60   103   104    2
    61   103   105   am
    62    45    44    2
    63    88    91    1
    64    88    89    1
    65    91    92    1
    66    32    31    1
    67    44    43    1
    68    89    90    2
    69    47    48    1
    70    47    46    1
    71    49    48    1
    72    49    50    2
    73    51    50    1
    74    31    30    1
    75    92    93    1
    76    30    29    1
    77    23    21   ar
    78    23    22   ar
    79    93    94    1
    80    50    52    1
    81    21    19   ar
    82    46    43    1
    83    43    42    1
    84    22    20   ar
    85    28    29    1
    86    28    25    1
    87    19    18   ar
    88    94    95    2
    89    97    95    1
    90    95    96    1
    91    20    18   ar
    92    16    15    2
    93    18    17    1
    94    26    25    1
    95    26    27    2
    96    25    24    1
    97    15    14    1
    98    14    17    1
    99    14    13    1
   100     4     3    2
   101    13     3   am
   102     3     2    1
   103    36    35    2
   104    35    34    1
   105    33    34    1
   106    37    34    1
   107    37    38    1
   108     5     2    1
   109     5     6    1
   110     2     1    1
   111     6     8   ar
   112     6     7   ar
   113    38    39    1
   114     8    10   ar
   115     7     9   ar
   116    10    11   ar
   117     9    11   ar
   118    39    40    1
   119    11    12    1
   120    40    41    1
