@<TRIPOS>MOLECULE
tmp/6e7rB01.pdb
 148 143 0 0 0
SMALL
GASTEIGER

@<TRIPOS>ATOM
      1  N        -14.4040  -71.0680  167.7990 N.3    47  PRO47      -0.2116
      2  CA       -15.6260  -70.9210  167.0080 C.3    47  PRO47       0.1372
      3  C        -16.5230  -72.1640  167.0660 C.2    47  PRO47       0.2244
      4  O        -17.7340  -72.0440  167.2220 O.2    47  PRO47      -0.2868
      5  CB       -15.0970  -70.7010  165.5770 C.3    47  PRO47       0.0268
      6  CG       -13.7200  -70.1680  165.7590 C.3    47  PRO47       0.0207
      7  CD       -13.1910  -70.7880  167.0090 C.3    47  PRO47       0.0892
      8  N        -20.2970  -72.1840  168.6630 N.3    51  ILE51      -0.1245
      9  CA       -21.3990  -72.4760  167.7570 C.3    51  ILE51       0.1561
     10  C        -22.1720  -73.7210  168.2090 C.2    51  ILE51       0.2260
     11  O        -23.3960  -73.6940  168.3310 O.2    51  ILE51      -0.2867
     12  CB       -20.9020  -72.6810  166.3140 C.3    51  ILE51       0.0252
     13  CG1      -20.5250  -71.3320  165.6920 C.3    51  ILE51       0.0019
     14  CG2      -21.9720  -73.3650  165.4850 C.3    51  ILE51       0.0019
     15  CD1      -19.4820  -71.4300  164.6000 C.3    51  ILE51       0.0001
     16  N        -11.5550  -60.7570  171.7490 N.3    75  GLU75      -0.1231
     17  CA       -12.5360  -59.9070  171.1120 C.3    75  GLU75       0.1699
     18  C        -13.2290  -60.6320  169.9410 C.2    75  GLU75       0.2592
     19  O        -14.3780  -60.3160  169.5930 O.2    75  GLU75      -0.2718
     20  CB       -11.8740  -58.5980  170.6170 C.3    75  GLU75       0.0402
     21  CG       -10.9800  -58.7580  169.3940 C.3    75  GLU75       0.1161
     22  CD        -9.6180  -59.3330  169.7300 C.2    75  GLU75       0.3649
     23  OE1       -9.2060  -59.2410  170.9080 O.co2  75  GLU75      -0.2457
     24  OE2       -8.9820  -59.9330  168.8290 O.co2  75  GLU75      -0.2457
     25  N        -12.5880  -61.6840  169.4420 N.am   76  ALA76      -0.1980
     26  CA       -13.1780  -62.5230  168.3820 C.3    76  ALA76       0.1597
     27  C        -14.4830  -63.1610  168.8330 C.2    76  ALA76       0.2287
     28  O        -15.3190  -63.5160  168.0090 O.2    76  ALA76      -0.2864
     29  CB       -12.1910  -63.5980  167.9490 C.3    76  ALA76       0.0319
     30  N        -17.3590  -61.2960  167.5840 N.3    79  GLN79      -0.1231
     31  CA       -17.5280  -61.5180  166.1470 C.3    79  GLN79       0.1698
     32  C        -18.2580  -62.8360  165.8860 C.2    79  GLN79       0.2592
     33  O        -19.1570  -62.9050  165.0500 O.2    79  GLN79      -0.2718
     34  CB       -16.1670  -61.5350  165.4540 C.3    79  GLN79       0.0381
     35  CG       -15.3840  -60.2190  165.5770 C.3    79  GLN79       0.0905
     36  CD       -13.8770  -60.4050  165.3510 C.2    79  GLN79       0.2608
     37  OE1      -13.4280  -61.4710  164.9210 O.2    79  GLN79      -0.2717
     38  NE2      -13.0940  -59.3830  165.6870 N.am   79  GLN79      -0.0878
     39  N        -17.8940  -63.8660  166.6370 N.am   80  ILE80      -0.1980
     40  CA       -18.5390  -65.1550  166.5190 C.3    80  ILE80       0.1595
     41  C        -20.0040  -65.0600  166.9150 C.2    80  ILE80       0.2287
     42  O        -20.8860  -65.5510  166.1880 O.2    80  ILE80      -0.2864
     43  CB       -17.8460  -66.2120  167.3930 C.3    80  ILE80       0.0276
     44  CG1      -16.4410  -66.4870  166.8630 C.3    80  ILE80       0.0022
     45  CG2      -18.6630  -67.5000  167.4180 C.3    80  ILE80       0.0022
     46  CD1      -15.4830  -67.0180  167.9140 C.3    80  ILE80       0.0001
     47  N        -22.1910  -63.2270  164.3090 N.3    83  PHE83      -0.1241
     48  CA       -22.4240  -64.1680  163.2270 C.3    83  PHE83       0.1605
     49  C        -23.5690  -65.1380  163.5720 C.2    83  PHE83       0.2264
     50  O        -24.5470  -65.2420  162.8320 O.2    83  PHE83      -0.2867
     51  CB       -21.1410  -64.9480  162.9350 C.3    83  PHE83       0.0534
     52  CG       -21.3200  -66.0680  161.9560 C.ar   83  PHE83      -0.0203
     53  CD1      -21.3940  -65.8120  160.6040 C.ar   83  PHE83      -0.0042
     54  CD2      -21.2660  -67.3820  162.3780 C.ar   83  PHE83      -0.0042
     55  CE1      -21.5590  -66.8450  159.6970 C.ar   83  PHE83      -0.0003
     56  CE2      -21.3420  -68.4180  161.4700 C.ar   83  PHE83      -0.0003
     57  CZ       -21.4980  -68.1470  160.1270 C.ar   83  PHE83      -0.0000
     58  N        -17.5840  -54.5090  168.6770 N.3   103  MET103     -0.1245
     59  CA       -17.6840  -55.1400  167.3630 C.3   103  MET103      0.1570
     60  C        -18.3190  -54.1800  166.3700 C.2   103  MET103      0.2261
     61  O        -19.4970  -53.8620  166.4740 O.2   103  MET103     -0.2867
     62  CB       -18.5130  -56.4170  167.4540 C.3   103  MET103      0.0387
     63  CG       -18.1670  -57.4540  166.3960 C.3   103  MET103      0.0595
     64  SD       -19.4080  -57.5380  165.1310 S.3   103  MET103     -0.1393
     65  CE       -18.5430  -58.4020  163.8230 C.3   103  MET103      0.0692
     66  N         -4.4410  -50.3630  164.0900 N.3   143  THR143     -0.1203
     67  CA        -4.3610  -51.4560  163.1430 C.3   143  THR143      0.1994
     68  C         -5.5660  -51.4320  162.1920 C.2   143  THR143      0.2618
     69  O         -6.3210  -50.4560  162.1600 O.2   143  THR143     -0.2717
     70  CB        -4.3350  -52.7910  163.8730 C.3   143  THR143      0.1784
     71  OG1       -5.5260  -52.9250  164.6600 O.3   143  THR143     -0.2211
     72  CG2       -3.0950  -52.8790  164.7890 C.3   143  THR143      0.0376
     73  N         -5.7900  -52.5520  161.4900 N.am  144  TYR144     -0.1961
     74  CA        -6.9520  -52.6940  160.6270 C.3   144  TYR144      0.1771
     75  C         -8.1390  -53.3030  161.3740 C.2   144  TYR144      0.2620
     76  O         -9.1670  -53.5920  160.7750 O.2   144  TYR144     -0.2715
     77  CB        -6.6100  -53.5640  159.4190 C.3   144  TYR144      0.0574
     78  CG        -5.8220  -52.8410  158.3440 C.ar  144  TYR144     -0.0198
     79  CD1       -4.4450  -52.7780  158.3980 C.ar  144  TYR144     -0.0009
     80  CD2       -6.4650  -52.2440  157.2650 C.ar  144  TYR144     -0.0009
     81  CE1       -3.7200  -52.1300  157.4210 C.ar  144  TYR144      0.0417
     82  CE2       -5.7480  -51.6120  156.2660 C.ar  144  TYR144      0.0417
     83  CZ        -4.3740  -51.5680  156.3440 C.ar  144  TYR144      0.1957
     84  OH        -3.6510  -50.8980  155.3850 O.3   144  TYR144     -0.2866
     85  N         -8.0020  -53.4720  162.6830 N.am  145  PHE145     -0.1960
     86  CA        -9.1060  -53.9700  163.4990 C.3   145  PHE145      0.1756
     87  C        -10.3620  -53.1350  163.2680 C.2   145  PHE145      0.2461
     88  O        -10.3030  -51.9000  163.2700 O.2   145  PHE145     -0.2730
     89  CB        -8.7310  -53.9520  164.9900 C.3   145  PHE145      0.0574
     90  CG        -9.8130  -54.4760  165.8930 C.ar  145  PHE145     -0.0200
     91  CD1      -10.1800  -55.8110  165.8560 C.ar  145  PHE145     -0.0042
     92  CD2      -10.5170  -53.6210  166.7180 C.ar  145  PHE145     -0.0042
     93  CE1      -11.1650  -56.2970  166.7020 C.ar  145  PHE145     -0.0003
     94  CE2      -11.5110  -54.0980  167.5520 C.ar  145  PHE145     -0.0003
     95  CZ       -11.8150  -55.4360  167.5650 C.ar  145  PHE145     -0.0000
     96  N        -11.5060  -53.8090  163.0260 N.am  146  PRO146     -0.2727
     97  CA       -12.7090  -53.1090  162.5680 C.3   146  PRO146      0.1402
     98  C        -13.1310  -52.0180  163.5400 C.2   146  PRO146      0.2269
     99  O        -13.0490  -52.2080  164.7680 O.2   146  PRO146     -0.2865
    100  CB       -13.7660  -54.2150  162.5140 C.3   146  PRO146      0.0296
    101  CG       -13.0020  -55.4730  162.3550 C.3   146  PRO146      0.0237
    102  CD       -11.6670  -55.2740  163.0010 C.3   146  PRO146      0.0939
    103  N         -1.1440  -49.5970  160.9690 N.3   174  LEU174     -0.1231
    104  CA        -0.2290  -50.7410  161.0580 C.3   174  LEU174      0.1693
    105  C         -0.9170  -52.0140  160.5630 C.2   174  LEU174      0.2592
    106  O         -1.9850  -52.3760  161.0460 O.2   174  LEU174     -0.2718
    107  CB         0.2460  -50.9440  162.5040 C.3   174  LEU174      0.0284
    108  CG         0.8420  -49.7250  163.2300 C.3   174  LEU174      0.0019
    109  CD1        1.4050  -50.1370  164.5790 C.3   174  LEU174      0.0001
    110  CD2        1.9120  -49.0560  162.3930 C.3   174  LEU174      0.0001
    111  N         -0.2460  -52.7330  159.6670 N.am  175  ASP175     -0.1960
    112  CA        -0.7660  -53.9920  159.1490 C.3   175  ASP175      0.1840
    113  C         -0.1480  -55.1680  159.8860 C.2   175  ASP175      0.2622
    114  O          0.9020  -55.6660  159.5000 O.2   175  ASP175     -0.2715
    115  CB        -0.4720  -54.1110  157.6490 C.3   175  ASP175      0.1450
    116  CG        -1.1170  -55.3480  157.0200 C.2   175  ASP175      0.3671
    117  OD1       -1.7210  -56.1520  157.7640 O.co2 175  ASP175     -0.2456
    118  OD2       -1.0760  -55.4730  155.7760 O.co2 175  ASP175     -0.2456
    119  N         -0.8790  -55.7040  160.8420 N.am  176  MET176     -0.1963
    120  CA        -0.3960  -56.8280  161.6120 C.3   176  MET176      0.1736
    121  C         -1.0490  -58.1400  161.1720 C.2   176  MET176      0.2617
    122  O         -0.9580  -59.1430  161.8680 O.2   176  MET176     -0.2715
    123  CB        -0.6380  -56.5790  163.0880 C.3   176  MET176      0.0427
    124  CG         0.1750  -55.4050  163.6270 C.3   176  MET176      0.0599
    125  SD         0.1240  -55.2740  165.4030 S.3   176  MET176     -0.1393
    126  CE         0.7190  -56.8960  165.8850 C.3   176  MET176      0.0692
    127  N         -1.5010  -58.1760  159.9220 N.am  177  SER177     -0.1950
    128  CA        -1.8770  -59.4340  159.2780 C.3   177  SER177      0.1924
    129  C         -0.6910  -60.0450  158.5530 C.2   177  SER177      0.2314
    130  O         -0.7510  -61.1900  158.1050 O.2   177  SER177     -0.2863
    131  CB        -3.0360  -59.2060  158.2890 C.3   177  SER177      0.2116
    132  OG        -2.5780  -58.6140  157.0840 O.3   177  SER177     -0.2180
    133  N         -6.4170  -54.1920  169.1670 N.3   202  THR202     -0.1218
    134  CA        -6.7650  -55.2130  170.1670 C.3   202  THR202      0.1862
    135  C         -5.6870  -55.3190  171.2560 C.2   202  THR202      0.2287
    136  O         -4.5650  -54.8170  171.0970 O.2   202  THR202     -0.2866
    137  CB        -6.9470  -56.6140  169.5250 C.3   202  THR202      0.1770
    138  OG1       -5.6760  -57.1310  169.1210 O.3   202  THR202     -0.2211
    139  CG2       -7.8960  -56.5440  168.3000 C.3   202  THR202      0.0375
    140  N         -2.6740  -57.0840  169.9250 N.3   205  GLU205     -0.1245
    141  CA        -1.9440  -56.2230  169.0050 C.3   205  GLU205      0.1567
    142  C         -1.1470  -55.1540  169.7700 C.2   205  GLU205      0.2260
    143  O         -0.0030  -54.8590  169.4260 O.2   205  GLU205     -0.2867
    144  CB        -2.9100  -55.5550  168.0160 C.3   205  GLU205      0.0388
    145  CG        -3.4840  -56.5140  166.9820 C.3   205  GLU205      0.1160
    146  CD        -4.5520  -55.8750  166.1030 C.2   205  GLU205      0.3649
    147  OE1       -5.1670  -54.8670  166.5300 O.co2 205  GLU205     -0.2457
    148  OE2       -4.8360  -56.4310  165.0230 O.co2 205  GLU205     -0.2457
@<TRIPOS>BOND
     1    84    83    1
     2   118   116   ar
     3    82    83   ar
     4    82    80   ar
     5    83    81   ar
     6   116   115    1
     7   116   117   ar
     8   132   131    1
     9    80    78   ar
    10    81    79   ar
    11   115   112    1
    12   130   129    2
    13   131   128    1
    14    78    79   ar
    15    78    77    1
    16   129   128    1
    17   112   111    1
    18   112   113    1
    19   128   127    1
    20    77    74    1
    21   114   113    2
    22   111   105   am
    23    55    57   ar
    24    55    53   ar
    25   113   119   am
    26   127   121   am
    27    57    56   ar
    28   105   106    2
    29   105   104    1
    30    53    52   ar
    31    74    75    1
    32    74    73    1
    33    76    75    2
    34   119   120    1
    35   103   104    1
    36   104   107    1
    37   121   120    1
    38   121   122    2
    39    75    85   am
    40    56    54   ar
    41    73    68   am
    42   120   123    1
    43    52    54   ar
    44    52    51    1
    45    69    68    2
    46    68    67    1
    47   101   100    1
    48   101   102    1
    49   110   108    1
    50   107   108    1
    51   100    97    1
    52    97    96    1
    53    97    98    1
    54    85    86    1
    55    50    49    2
    56    51    48    1
    57   102    96    1
    58    96    87   am
    59   123   124    1
    60    67    70    1
    61    67    66    1
    62    48    49    1
    63    48    47    1
    64   108   109    1
    65    87    88    2
    66    87    86    1
    67    86    89    1
    68    98    99    2
    69   124   125    1
    70    65    64    1
    71    70    71    1
    72    70    72    1
    73    15    13    1
    74    37    36    2
    75    89    90    1
    76   148   146   ar
    77    33    32    2
    78    64    63    1
    79    36    35    1
    80    36    38   am
    81   125   126    1
    82    34    35    1
    83    34    31    1
    84    14    12    1
    85     5     6    1
    86     5     2    1
    87    13    12    1
    88     6     7    1
    89    91    90   ar
    90    91    93   ar
    91    32    31    1
    92    32    39   am
    93    90    92   ar
    94   146   147   ar
    95   146   145    1
    96    31    30    1
    97    42    41    2
    98    12     9    1
    99    60    61    2
   100    60    59    1
   101    63    62    1
   102    40    39    1
   103    40    41    1
   104    40    43    1
   105    93    95   ar
   106    92    94   ar
   107    44    43    1
   108    44    46    1
   109   145   144    1
   110     2     3    1
   111     2     1    1
   112     7     1    1
   113     3     4    2
   114    59    62    1
   115    59    58    1
   116    43    45    1
   117    94    95   ar
   118     9    10    1
   119     9     8    1
   120    29    26    1
   121    28    27    2
   122   144   141    1
   123    10    11    2
   124   139   137    1
   125    26    27    1
   126    26    25    1
   127    24    22   ar
   128   141   142    1
   129   141   140    1
   130   138   137    1
   131   133   134    1
   132    21    22    1
   133    21    20    1
   134   143   142    2
   135    25    18   am
   136   137   134    1
   137    19    18    2
   138    22    23   ar
   139    18    17    1
   140   134   135    1
   141    20    17    1
   142   136   135    2
   143    17    16    1
