@<TRIPOS>MOLECULE
tmp/6e7sA02.pdb
 86 81 0 0 0
SMALL
GASTEIGER

@<TRIPOS>ATOM
      1  N        -18.4990  -74.7350  158.9210 N.3    53  ALA53      -0.1245
      2  CA       -17.4740  -74.3760  159.8920 C.3    53  ALA53       0.1562
      3  C        -17.0620  -75.6000  160.7020 C.2    53  ALA53       0.2260
      4  O        -15.8790  -75.8090  160.9730 O.2    53  ALA53      -0.2867
      5  CB       -17.9830  -73.2800  160.8140 C.3    53  ALA53       0.0290
      6  N        -13.3180  -67.8800  157.9250 N.3    84  TYR84      -0.1227
      7  CA       -13.5130  -67.5370  159.3280 C.3    84  TYR84       0.1736
      8  C        -12.7820  -68.5210  160.2350 C.2    84  TYR84       0.2596
      9  O        -11.9580  -68.1250  161.0590 O.2    84  TYR84      -0.2718
     10  CB       -15.0050  -67.5210  159.6680 C.3    84  TYR84       0.0548
     11  CG       -15.7060  -66.2540  159.2410 C.ar   84  TYR84      -0.0200
     12  CD1      -15.0430  -65.2900  158.4920 C.ar   84  TYR84      -0.0009
     13  CD2      -17.0380  -66.0300  159.5610 C.ar   84  TYR84      -0.0009
     14  CE1      -15.6780  -64.1280  158.1000 C.ar   84  TYR84       0.0417
     15  CE2      -17.6820  -64.8720  159.1700 C.ar   84  TYR84       0.0417
     16  CZ       -17.0000  -63.9320  158.4280 C.ar   84  TYR84       0.1957
     17  OH       -17.6430  -62.7910  158.0120 O.3    84  TYR84      -0.2866
     18  N        -13.0670  -69.8070  160.0540 N.am   85  THR85      -0.1953
     19  CA       -12.5740  -70.8350  160.9570 C.3    85  THR85       0.1897
     20  C        -11.0730  -71.0350  160.7820 C.2    85  THR85       0.2313
     21  O        -10.3340  -71.1460  161.7600 O.2    85  THR85      -0.2863
     22  CB       -13.2850  -72.1750  160.7130 C.3    85  THR85       0.1794
     23  OG1      -14.6770  -72.0400  161.0150 O.3    85  THR85      -0.2208
     24  CG2      -12.6890  -73.2600  161.5860 C.3    85  THR85       0.0378
     25  N         -9.1530  -68.1640  162.2420 N.3    88  PHE88      -0.1241
     26  CA        -9.0270  -68.2930  163.6860 C.3    88  PHE88       0.1605
     27  C         -7.6330  -68.7950  164.0590 C.2    88  PHE88       0.2264
     28  O         -7.0300  -68.3200  165.0230 O.2    88  PHE88      -0.2867
     29  CB       -10.0920  -69.2510  164.2200 C.3    88  PHE88       0.0534
     30  CG       -10.1570  -69.3090  165.7160 C.ar   88  PHE88      -0.0203
     31  CD1       -9.4060  -70.2350  166.4180 C.ar   88  PHE88      -0.0042
     32  CD2      -10.9710  -68.4430  166.4190 C.ar   88  PHE88      -0.0042
     33  CE1       -9.4530  -70.2830  167.7960 C.ar   88  PHE88      -0.0003
     34  CE2      -11.0480  -68.5060  167.7960 C.ar   88  PHE88      -0.0003
     35  CZ       -10.2860  -69.4260  168.4860 C.ar   88  PHE88      -0.0000
     36  N         -5.0670  -68.8600  161.7040 N.3    90  ARG90      -0.1245
     37  CA        -4.1170  -68.2870  160.7550 C.3    90  ARG90       0.1563
     38  C         -3.6440  -69.3410  159.7590 C.2    90  ARG90       0.2260
     39  O         -2.5260  -69.2700  159.2470 O.2    90  ARG90      -0.2867
     40  CB        -2.9150  -67.6930  161.4920 C.3    90  ARG90       0.0307
     41  CG        -3.2810  -66.6750  162.5600 C.3    90  ARG90       0.0489
     42  CD        -3.9110  -65.4320  161.9550 C.3    90  ARG90       0.2205
     43  NE        -4.0330  -64.3490  162.9280 N.pl3  90  ARG90      -0.0865
     44  CZ        -5.0300  -64.2350  163.8010 C.cat  90  ARG90       0.5346
     45  NH1       -5.0710  -63.2060  164.6340 N.pl3  90  ARG90       0.1354
     46  NH2       -5.9920  -65.1440  163.8380 N.pl3  90  ARG90       0.1354
     47  N         -8.7410  -57.3500  154.9110 N.3   106  LYS106     -0.1231
     48  CA        -7.9060  -58.1260  155.8210 C.3   106  LYS106      0.1693
     49  C         -8.5750  -58.2660  157.1860 C.2   106  LYS106      0.2593
     50  O         -8.4220  -59.2860  157.8600 O.2   106  LYS106     -0.2718
     51  CB        -6.5420  -57.4520  155.9810 C.3   106  LYS106      0.0285
     52  CG        -5.3630  -58.4060  155.9110 C.3   106  LYS106      0.0035
     53  CD        -4.0810  -57.7290  156.3710 C.3   106  LYS106      0.0206
     54  CE        -3.6240  -56.6670  155.3830 C.3   106  LYS106      0.1093
     55  NZ        -3.2420  -57.2520  154.0680 N.3   106  LYS106     -0.1314
     56  N         -9.2930  -57.2270  157.6020 N.am  107  SER107     -0.1938
     57  CA       -10.0170  -57.2550  158.8680 C.3   107  SER107      0.2055
     58  C        -10.9950  -58.4220  158.9020 C.2   107  SER107      0.2642
     59  O        -11.3900  -58.8750  159.9760 O.2   107  SER107     -0.2714
     60  CB       -10.7760  -55.9430  159.0870 C.3   107  SER107      0.2130
     61  OG        -9.9000  -54.8320  159.0820 O.3   107  SER107     -0.2179
     62  N        -11.5160  -58.7820  157.7340 N.am  108  ILE108     -0.1977
     63  CA       -12.5650  -59.7880  157.6400 C.3   108  ILE108      0.1596
     64  C        -11.9760  -61.1400  157.2580 C.2   108  ILE108      0.2287
     65  O        -12.3690  -62.1730  157.7970 O.2   108  ILE108     -0.2864
     66  CB       -13.6270  -59.3980  156.5950 C.3   108  ILE108      0.0276
     67  CG1      -14.2320  -58.0340  156.9340 C.3   108  ILE108      0.0022
     68  CG2      -14.7180  -60.4550  156.5270 C.3   108  ILE108      0.0022
     69  CD1      -15.1390  -57.4880  155.8550 C.3   108  ILE108      0.0001
     70  N         -8.4140  -62.7690  157.2190 N.3   110  LEU110     -0.1245
     71  CA        -7.0250  -62.5930  157.6440 C.3   110  LEU110      0.1561
     72  C         -6.0640  -63.2510  156.6630 C.2   110  LEU110      0.2260
     73  O         -5.0100  -62.6970  156.3570 O.2   110  LEU110     -0.2867
     74  CB        -6.8140  -63.2070  159.0310 C.3   110  LEU110      0.0270
     75  CG        -7.4120  -62.4550  160.2190 C.3   110  LEU110      0.0019
     76  CD1       -8.4270  -63.3280  160.9400 C.3   110  LEU110      0.0001
     77  CD2       -6.3170  -62.0120  161.1750 C.3   110  LEU110      0.0001
     78  N          1.9830  -67.5100  155.1710 N.3   296  LYS296     -0.1245
     79  CA         1.2160  -66.5700  154.3690 C.3   296  LYS296      0.1561
     80  C          2.1530  -65.6630  153.5850 C.2   296  LYS296      0.2260
     81  O          1.9400  -65.4150  152.4010 O.2   296  LYS296     -0.2867
     82  CB         0.2930  -65.7240  155.2480 C.3   296  LYS296      0.0271
     83  CG        -0.5320  -64.7150  154.4620 C.3   296  LYS296      0.0035
     84  CD        -1.4970  -63.9490  155.3520 C.3   296  LYS296      0.0206
     85  CE        -2.2240  -62.8610  154.5770 C.3   296  LYS296      0.1093
     86  NZ        -2.5980  -61.7030  155.4380 N.3   296  LYS296     -0.1314
@<TRIPOS>BOND
     1    81    80    2
     2    80    79    1
     3    55    54    1
     4    79    78    1
     5    79    82    1
     6    83    82    1
     7    83    84    1
     8    85    84    1
     9    85    86    1
    10    47    48    1
    11    54    53    1
    12    48    51    1
    13    48    49    1
    14    69    67    1
    15    52    51    1
    16    52    53    1
    17    73    72    2
    18    68    66    1
    19    66    67    1
    20    66    63    1
    21    72    71    1
    22    49    56   am
    23    49    50    2
    24    70    71    1
    25    64    63    1
    26    64    65    2
    27    56    57    1
    28    63    62    1
    29    71    74    1
    30    62    58   am
    31     6     7    1
    32    17    16    1
    33    14    16   ar
    34    14    12   ar
    35    16    15   ar
    36    12    11   ar
    37    57    58    1
    38    57    60    1
    39    58    59    2
    40     1     2    1
    41    74    75    1
    42    61    60    1
    43    15    13   ar
    44    11    13   ar
    45    11    10    1
    46    39    38    2
    47     7    10    1
    48     7     8    1
    49    38    37    1
    50     2     3    1
    51     2     5    1
    52    18     8   am
    53    18    19    1
    54    75    76    1
    55    75    77    1
    56     8     9    2
    57     3     4    2
    58    22    19    1
    59    22    23    1
    60    22    24    1
    61    37    40    1
    62    37    36    1
    63    20    19    1
    64    20    21    2
    65    40    41    1
    66    42    41    1
    67    42    43    1
    68    25    26    1
    69    43    44    2
    70    26    27    1
    71    26    29    1
    72    44    46    1
    73    44    45    1
    74    27    28    2
    75    29    30    1
    76    30    31   ar
    77    30    32   ar
    78    31    33   ar
    79    32    34   ar
    80    34    35   ar
    81    33    35   ar
