@<TRIPOS>MOLECULE
tmp/6e7xB01.pdb
 161 156 0 0 0
SMALL
GASTEIGER

@<TRIPOS>ATOM
      1  N        -14.7410  -72.7420  168.5720 N.3    47  PRO47      -0.2116
      2  CA       -15.9490  -72.6430  167.7550 C.3    47  PRO47       0.1372
      3  C        -16.8240  -73.8950  167.8190 C.2    47  PRO47       0.2244
      4  O        -18.0410  -73.7850  167.9520 O.2    47  PRO47      -0.2868
      5  CB       -15.4000  -72.4450  166.3390 C.3    47  PRO47       0.0268
      6  CG       -14.0560  -71.8340  166.5360 C.3    47  PRO47       0.0207
      7  CD       -13.5240  -72.4430  167.7980 C.3    47  PRO47       0.0892
      8  N        -20.5690  -73.9910  169.4840 N.3    51  ILE51      -0.1245
      9  CA       -21.6650  -74.2400  168.5570 C.3    51  ILE51       0.1561
     10  C        -22.4380  -75.4900  168.9620 C.2    51  ILE51       0.2260
     11  O        -23.6610  -75.4570  169.0860 O.2    51  ILE51      -0.2867
     12  CB       -21.1550  -74.3980  167.1120 C.3    51  ILE51       0.0252
     13  CG1      -20.8110  -73.0290  166.5220 C.3    51  ILE51       0.0019
     14  CG2      -22.1980  -75.0950  166.2530 C.3    51  ILE51       0.0019
     15  CD1      -19.9040  -73.0930  165.3130 C.3    51  ILE51       0.0001
     16  N        -11.9320  -62.4260  172.6210 N.3    75  GLU75      -0.1231
     17  CA       -12.9200  -61.5810  171.9600 C.3    75  GLU75       0.1699
     18  C        -13.6150  -62.3250  170.8210 C.2    75  GLU75       0.2592
     19  O        -14.6540  -61.8890  170.3260 O.2    75  GLU75      -0.2718
     20  CB       -12.2610  -60.3050  171.4250 C.3    75  GLU75       0.0402
     21  CG       -11.3270  -60.5300  170.2480 C.3    75  GLU75       0.1161
     22  CD       -10.0080  -61.1540  170.6610 C.2    75  GLU75       0.3649
     23  OE1       -9.5940  -60.9560  171.8220 O.co2  75  GLU75      -0.2457
     24  OE2       -9.3870  -61.8470  169.8290 O.co2  75  GLU75      -0.2457
     25  N        -13.0370  -63.4490  170.4100 N.am   76  ALA76      -0.1980
     26  CA       -13.5870  -64.2340  169.3120 C.3    76  ALA76       0.1597
     27  C        -14.8820  -64.9200  169.7270 C.2    76  ALA76       0.2287
     28  O        -15.6970  -65.2920  168.8820 O.2    76  ALA76      -0.2864
     29  CB       -12.5750  -65.2640  168.8390 C.3    76  ALA76       0.0319
     30  N        -17.7510  -63.1020  168.4080 N.3    79  GLN79      -0.1231
     31  CA       -17.9680  -63.3080  166.9800 C.3    79  GLN79       0.1698
     32  C        -18.7080  -64.6130  166.7340 C.2    79  GLN79       0.2592
     33  O        -19.6360  -64.6720  165.9300 O.2    79  GLN79      -0.2718
     34  CB       -16.6360  -63.3380  166.2350 C.3    79  GLN79       0.0381
     35  CG       -15.5770  -62.4300  166.8290 C.3    79  GLN79       0.0905
     36  CD       -15.3070  -61.2190  165.9640 C.2    79  GLN79       0.2608
     37  OE1      -16.2030  -60.7140  165.2890 O.2    79  GLN79      -0.2717
     38  NE2      -14.0650  -60.7490  165.9750 N.am   79  GLN79      -0.0878
     39  N        -18.2850  -65.6620  167.4280 N.am   80  ILE80      -0.1980
     40  CA       -18.9280  -66.9590  167.3080 C.3    80  ILE80       0.1595
     41  C        -20.3950  -66.8550  167.7040 C.2    80  ILE80       0.2287
     42  O        -21.2620  -67.4530  167.0680 O.2    80  ILE80      -0.2864
     43  CB       -18.2310  -68.0050  168.1910 C.3    80  ILE80       0.0276
     44  CG1      -16.7960  -68.2230  167.7090 C.3    80  ILE80       0.0022
     45  CG2      -19.0050  -69.3130  168.1720 C.3    80  ILE80       0.0022
     46  CD1      -15.8910  -68.8590  168.7400 C.3    80  ILE80       0.0001
     47  N        -22.5080  -64.9800  165.1030 N.3    83  PHE83      -0.1241
     48  CA       -22.7280  -65.9360  164.0260 C.3    83  PHE83       0.1605
     49  C        -23.8590  -66.8990  164.3720 C.2    83  PHE83       0.2264
     50  O        -24.7990  -67.0720  163.5960 O.2    83  PHE83      -0.2867
     51  CB       -21.4370  -66.7130  163.7590 C.3    83  PHE83       0.0534
     52  CG       -21.5770  -67.8060  162.7380 C.ar   83  PHE83      -0.0203
     53  CD1      -21.6140  -67.5100  161.3860 C.ar   83  PHE83      -0.0042
     54  CD2      -21.6510  -69.1310  163.1310 C.ar   83  PHE83      -0.0042
     55  CE1      -21.7330  -68.5160  160.4450 C.ar   83  PHE83      -0.0003
     56  CE2      -21.7700  -70.1420  162.1950 C.ar   83  PHE83      -0.0003
     57  CZ       -21.8120  -69.8340  160.8490 C.ar   83  PHE83      -0.0000
     58  N        -18.0040  -56.3790  169.5600 N.3   103  MET103     -0.1230
     59  CA       -18.1560  -56.9860  168.2500 C.3   103  MET103      0.1702
     60  C        -18.6960  -55.9390  167.2850 C.2   103  MET103      0.2592
     61  O        -19.8880  -55.6360  167.2890 O.2   103  MET103     -0.2718
     62  CB       -19.1210  -58.1690  168.3390 C.3   103  MET103      0.0401
     63  CG       -18.8350  -59.2940  167.3580 C.3   103  MET103      0.0596
     64  SD       -19.7370  -59.0830  165.8150 S.3   103  MET103     -0.1393
     65  CE       -19.0860  -60.4370  164.8420 C.3   103  MET103      0.0692
     66  N        -17.8140  -55.3700  166.4710 N.am  104  ALA104     -0.1966
     67  CA       -18.2220  -54.3620  165.5010 C.3   104  ALA104      0.1728
     68  C        -18.7960  -55.0320  164.2600 C.2   104  ALA104      0.2616
     69  O        -18.3410  -56.0980  163.8480 O.2   104  ALA104     -0.2715
     70  CB       -17.0440  -53.4770  165.1300 C.3   104  ALA104      0.0334
     71  N        -19.8010  -54.4050  163.6660 N.am  105  ASP105     -0.1971
     72  CA       -20.4360  -54.9630  162.4820 C.3   105  ASP105      0.1709
     73  C        -20.9870  -56.3560  162.7820 C.2   105  ASP105      0.2293
     74  O        -20.5550  -57.3520  162.2040 O.2   105  ASP105     -0.2864
     75  CB       -19.4360  -55.0110  161.3230 C.3   105  ASP105      0.1436
     76  CG       -18.8820  -53.6370  160.9770 C.2   105  ASP105      0.3671
     77  OD1      -19.6610  -52.7820  160.5020 O.co2 105  ASP105     -0.2456
     78  OD2      -17.6710  -53.4080  161.1890 O.co2 105  ASP105     -0.2456
     79  N         -4.8010  -52.1600  164.9840 N.3   143  THR143     -0.1203
     80  CA        -4.7160  -53.2440  164.0180 C.3   143  THR143      0.1994
     81  C         -5.9130  -53.2300  163.0730 C.2   143  THR143      0.2618
     82  O         -6.6610  -52.2530  163.0130 O.2   143  THR143     -0.2717
     83  CB        -4.6600  -54.6100  164.7230 C.3   143  THR143      0.1784
     84  OG1       -5.8460  -54.7950  165.5070 O.3   143  THR143     -0.2211
     85  CG2       -3.4320  -54.6980  165.6190 C.3   143  THR143      0.0376
     86  N         -6.0880  -54.3220  162.3360 N.am  144  TYR144     -0.1961
     87  CA        -7.2320  -54.4690  161.4500 C.3   144  TYR144      0.1771
     88  C         -8.4220  -55.0770  162.1830 C.2   144  TYR144      0.2620
     89  O         -9.4500  -55.3640  161.5730 O.2   144  TYR144     -0.2715
     90  CB        -6.8640  -55.3410  160.2480 C.3   144  TYR144      0.0574
     91  CG        -6.0780  -54.6070  159.1860 C.ar  144  TYR144     -0.0198
     92  CD1       -6.7230  -53.9200  158.1660 C.ar  144  TYR144     -0.0009
     93  CD2       -4.6910  -54.5980  159.2050 C.ar  144  TYR144     -0.0009
     94  CE1       -6.0100  -53.2460  157.1940 C.ar  144  TYR144      0.0417
     95  CE2       -3.9680  -53.9260  158.2380 C.ar  144  TYR144      0.0417
     96  CZ        -4.6330  -53.2520  157.2350 C.ar  144  TYR144      0.1957
     97  OH        -3.9150  -52.5820  156.2700 O.3   144  TYR144     -0.2866
     98  N         -8.2860  -55.2710  163.4900 N.am  145  PHE145     -0.1960
     99  CA        -9.3790  -55.8130  164.2880 C.3   145  PHE145      0.1756
    100  C        -10.6380  -54.9720  164.1070 C.2   145  PHE145      0.2461
    101  O        -10.5930  -53.7480  164.2210 O.2   145  PHE145     -0.2730
    102  CB        -9.0010  -55.8670  165.7680 C.3   145  PHE145      0.0574
    103  CG       -10.0780  -56.4420  166.6450 C.ar  145  PHE145     -0.0200
    104  CD1      -10.4130  -57.7840  166.5630 C.ar  145  PHE145     -0.0042
    105  CD2      -10.7570  -55.6400  167.5470 C.ar  145  PHE145     -0.0042
    106  CE1      -11.4030  -58.3160  167.3680 C.ar  145  PHE145     -0.0003
    107  CE2      -11.7490  -56.1660  168.3540 C.ar  145  PHE145     -0.0003
    108  CZ       -12.0730  -57.5060  168.2630 C.ar  145  PHE145     -0.0000
    109  N        -11.7690  -55.6340  163.8210 N.am  146  PRO146     -0.2727
    110  CA       -13.0120  -54.9410  163.5050 C.3   146  PRO146      0.1402
    111  C        -13.3610  -53.8850  164.5450 C.2   146  PRO146      0.2269
    112  O        -13.2670  -54.1370  165.7490 O.2   146  PRO146     -0.2865
    113  CB       -14.0510  -56.0630  163.5160 C.3   146  PRO146      0.0296
    114  CG       -13.2810  -57.2910  163.1760 C.3   146  PRO146      0.0237
    115  CD       -11.9190  -57.0980  163.7740 C.3   146  PRO146      0.0939
    116  N         -1.4930  -51.4070  161.8490 N.3   174  LEU174     -0.1231
    117  CA        -0.5680  -52.5280  161.9610 C.3   174  LEU174      0.1693
    118  C         -1.2170  -53.8110  161.4540 C.2   174  LEU174      0.2592
    119  O         -2.2900  -54.1960  161.9140 O.2   174  LEU174     -0.2718
    120  CB        -0.1200  -52.7130  163.4130 C.3   174  LEU174      0.0284
    121  CG         0.4240  -51.4760  164.1340 C.3   174  LEU174      0.0019
    122  CD1        0.9630  -51.8600  165.5030 C.3   174  LEU174      0.0001
    123  CD2        1.4990  -50.7870  163.3100 C.3   174  LEU174      0.0001
    124  N         -0.5580  -54.4680  160.5060 N.am  175  ASP175     -0.1960
    125  CA        -1.0590  -55.7200  159.9520 C.3   175  ASP175      0.1840
    126  C         -0.4410  -56.9140  160.6700 C.2   175  ASP175      0.2622
    127  O          0.6770  -57.3270  160.3630 O.2   175  ASP175     -0.2715
    128  CB        -0.7520  -55.8030  158.4560 C.3   175  ASP175      0.1450
    129  CG        -1.3840  -57.0130  157.7980 C.2   175  ASP175      0.3671
    130  OD1       -2.0510  -57.7950  158.5050 O.co2 175  ASP175     -0.2456
    131  OD2       -1.2170  -57.1800  156.5720 O.co2 175  ASP175     -0.2456
    132  N         -1.1780  -57.4680  161.6240 N.am  176  MET176     -0.1963
    133  CA        -0.6890  -58.5930  162.4020 C.3   176  MET176      0.1736
    134  C         -1.2920  -59.8990  161.9050 C.2   176  MET176      0.2617
    135  O         -1.3950  -60.8680  162.6540 O.2   176  MET176     -0.2715
    136  CB        -1.0170  -58.3860  163.8790 C.3   176  MET176      0.0427
    137  CG        -0.4190  -57.1100  164.4510 C.3   176  MET176      0.0599
    138  SD        -0.1090  -57.1970  166.2220 S.3   176  MET176     -0.1393
    139  CE         0.5250  -58.8640  166.3840 C.3   176  MET176      0.0692
    140  N         -1.6870  -59.9160  160.6350 N.am  177  SER177     -0.1950
    141  CA        -2.0450  -61.1550  159.9560 C.3   177  SER177      0.1924
    142  C         -0.8450  -61.7290  159.2170 C.2   177  SER177      0.2314
    143  O         -0.8820  -62.8630  158.7410 O.2   177  SER177     -0.2863
    144  CB        -3.1900  -60.9130  158.9700 C.3   177  SER177      0.2116
    145  OG        -2.7620  -60.1300  157.8690 O.3   177  SER177     -0.2180
    146  N         -6.7200  -56.1080  170.0130 N.3   202  THR202     -0.1218
    147  CA        -7.0670  -57.1330  170.9910 C.3   202  THR202      0.1862
    148  C         -6.0050  -57.2100  172.0790 C.2   202  THR202      0.2287
    149  O         -4.9310  -56.6180  171.9600 O.2   202  THR202     -0.2866
    150  CB        -7.2230  -58.5230  170.3440 C.3   202  THR202      0.1770
    151  OG1       -5.9420  -59.0140  169.9330 O.3   202  THR202     -0.2211
    152  CG2       -8.1540  -58.4580  169.1420 C.3   202  THR202      0.0375
    153  N         -2.9430  -59.0180  170.7800 N.3   205  GLU205     -0.1245
    154  CA        -2.2530  -58.1430  169.8420 C.3   205  GLU205      0.1567
    155  C         -1.4640  -57.0710  170.5870 C.2   205  GLU205      0.2260
    156  O         -0.3260  -56.7680  170.2320 O.2   205  GLU205     -0.2867
    157  CB        -3.2510  -57.4940  168.8820 C.3   205  GLU205      0.0388
    158  CG        -3.6600  -58.3950  167.7300 C.3   205  GLU205      0.1160
    159  CD        -4.8030  -57.8260  166.9090 C.2   205  GLU205      0.3649
    160  OE1       -5.4520  -56.8600  167.3650 O.co2 205  GLU205     -0.2457
    161  OE2       -5.0520  -58.3500  165.8040 O.co2 205  GLU205     -0.2457
@<TRIPOS>BOND
     1    97    96    1
     2   131   129   ar
     3    94    96   ar
     4    94    92   ar
     5    96    95   ar
     6   129   128    1
     7   129   130   ar
     8   145   144    1
     9    92    91   ar
    10    95    93   ar
    11   128   125    1
    12   143   142    2
    13   144   141    1
    14    91    93   ar
    15    91    90    1
    16   142   141    1
    17   125   124    1
    18   125   126    1
    19   141   140    1
    20    90    87    1
    21   127   126    2
    22    55    57   ar
    23    55    53   ar
    24    77    76   ar
    25   124   118   am
    26   140   134   am
    27   126   132   am
    28    57    56   ar
    29    76    78   ar
    30    76    75    1
    31    75    72    1
    32    53    52   ar
    33    87    88    1
    34    87    86    1
    35   118   119    2
    36   118   117    1
    37    89    88    2
    38   132   133    1
    39   116   117    1
    40   134   133    1
    41   134   135    2
    42   117   120    1
    43    88    98   am
    44    56    54   ar
    45    74    73    2
    46    86    81   am
    47   133   136    1
    48    72    73    1
    49    72    71    1
    50    52    54   ar
    51    52    51    1
    52    82    81    2
    53    81    80    1
    54   114   113    1
    55   114   115    1
    56   123   121    1
    57   120   121    1
    58    98    99    1
    59   110   113    1
    60   110   109    1
    61   110   111    1
    62    50    49    2
    63    71    68   am
    64    51    48    1
    65   115   109    1
    66   109   100   am
    67    69    68    2
    68   136   137    1
    69    80    83    1
    70    80    79    1
    71    48    49    1
    72    48    47    1
    73   100   101    2
    74   100    99    1
    75   121   122    1
    76    68    67    1
    77    99   102    1
    78   137   138    1
    79   111   112    2
    80    83    84    1
    81    83    85    1
    82    65    64    1
    83    70    67    1
    84    37    36    2
    85    15    13    1
    86    67    66    1
    87   102   103    1
    88   161   159   ar
    89    64    63    1
    90    33    32    2
    91    36    38   am
    92    36    35    1
    93   138   139    1
    94    34    35    1
    95    34    31    1
    96    14    12    1
    97     5     6    1
    98     5     2    1
    99    66    60   am
   100    13    12    1
   101     6     7    1
   102   104   103   ar
   103   104   106   ar
   104   103   105   ar
   105    32    31    1
   106    32    39   am
   107   159   160   ar
   108   159   158    1
   109    31    30    1
   110    42    41    2
   111    12     9    1
   112    60    61    2
   113    60    59    1
   114    40    39    1
   115    40    41    1
   116    40    43    1
   117    63    62    1
   118   106   108   ar
   119   105   107   ar
   120    44    43    1
   121    44    46    1
   122   158   157    1
   123     2     3    1
   124     2     1    1
   125     7     1    1
   126     3     4    2
   127    45    43    1
   128    59    62    1
   129    59    58    1
   130   108   107   ar
   131     9    10    1
   132     9     8    1
   133    29    26    1
   134    28    27    2
   135   157   154    1
   136    10    11    2
   137   152   150    1
   138    26    27    1
   139    26    25    1
   140    24    22   ar
   141   154   155    1
   142   154   153    1
   143   151   150    1
   144   146   147    1
   145   156   155    2
   146    21    22    1
   147    21    20    1
   148    19    18    2
   149   150   147    1
   150    25    18   am
   151    22    23   ar
   152    18    17    1
   153   147   148    1
   154    20    17    1
   155   149   148    2
   156    17    16    1
