@<TRIPOS>MOLECULE
tmp/6e7yD00.pdb
 122 115 0 0 0
SMALL
GASTEIGER

@<TRIPOS>ATOM
      1  N        161.3160  199.2400  189.8870 N.3    10  TYR10      -0.1241
      2  CA       160.4440  199.6880  188.8120 C.3    10  TYR10       0.1605
      3  C        161.0120  199.3390  187.4440 C.2    10  TYR10       0.2264
      4  O        160.2540  199.2590  186.4710 O.2    10  TYR10      -0.2867
      5  CB       160.2180  201.2040  188.9100 C.3    10  TYR10       0.0534
      6  CG       159.2490  201.7830  187.8990 C.ar   10  TYR10      -0.0201
      7  CD1      157.8750  201.6300  188.0540 C.ar   10  TYR10      -0.0009
      8  CD2      159.7110  202.4850  186.7910 C.ar   10  TYR10      -0.0009
      9  CE1      156.9870  202.1610  187.1320 C.ar   10  TYR10       0.0417
     10  CE2      158.8330  203.0160  185.8630 C.ar   10  TYR10       0.0417
     11  CZ       157.4730  202.8510  186.0380 C.ar   10  TYR10       0.1957
     12  OH       156.5970  203.3800  185.1180 O.3    10  TYR10      -0.2866
     13  N        160.0520  194.7040  186.0130 N.3    13  MET13      -0.1245
     14  CA       158.6340  195.0330  186.0840 C.3    13  MET13       0.1570
     15  C        157.8770  194.3280  184.9700 C.2    13  MET13       0.2261
     16  O        158.3120  194.3460  183.8150 O.2    13  MET13      -0.2867
     17  CB       158.4470  196.5500  185.9790 C.3    13  MET13       0.0387
     18  CG       157.0210  197.0370  185.9260 C.3    13  MET13       0.0595
     19  SD       157.0030  198.8340  185.8340 S.3    13  MET13      -0.1393
     20  CE       157.7610  199.0970  184.2310 C.3    13  MET13       0.0692
     21  N        152.1700  198.1540  185.2690 N.3    18  LYS18      -0.1245
     22  CA       152.5060  199.5590  185.0740 C.3    18  LYS18       0.1561
     23  C        151.3510  200.4690  185.4640 C.2    18  LYS18       0.2260
     24  O        151.5750  201.6150  185.8690 O.2    18  LYS18      -0.2867
     25  CB       152.8970  199.8090  183.6190 C.3    18  LYS18       0.0271
     26  CG       154.2020  199.1600  183.2090 C.3    18  LYS18       0.0035
     27  CD       154.5090  199.3780  181.7310 C.3    18  LYS18       0.0206
     28  CE       155.3940  200.6020  181.4950 C.3    18  LYS18       0.1093
     29  NZ       154.6940  201.9040  181.6880 N.3    18  LYS18      -0.1314
     30  N        152.0410  203.8100  188.9440 N.3    22  LYS22      -0.1245
     31  CA       151.8790  205.2000  188.5340 C.3    22  LYS22       0.1561
     32  C        150.7670  205.3660  187.5070 C.2    22  LYS22       0.2260
     33  O        149.8260  206.1330  187.7310 O.2    22  LYS22      -0.2867
     34  CB       153.2040  205.7450  187.9860 C.3    22  LYS22       0.0271
     35  CG       153.1790  207.2340  187.6840 C.3    22  LYS22       0.0035
     36  CD       154.5190  207.7220  187.1580 C.3    22  LYS22       0.0206
     37  CE       155.3680  208.3250  188.2690 C.3    22  LYS22       0.1093
     38  NZ       156.0130  207.2900  189.1250 N.3    22  LYS22      -0.1314
     39  N        150.1920  205.1110  183.0660 N.3    24  ARG24      -0.1231
     40  CA       150.1390  205.8620  181.8200 C.3    24  ARG24       0.1694
     41  C        149.7630  204.8820  180.7170 C.2    24  ARG24       0.2592
     42  O        150.1150  203.7020  180.7840 O.2    24  ARG24      -0.2718
     43  CB       151.4770  206.5610  181.5040 C.3    24  ARG24       0.0321
     44  CG       151.4020  207.5620  180.3490 C.3    24  ARG24       0.0489
     45  CD       152.7240  208.2450  180.0510 C.3    24  ARG24       0.2205
     46  NE       152.5900  209.1630  178.9220 N.pl3  24  ARG24      -0.0865
     47  CZ       153.5850  209.8800  178.4100 C.cat  24  ARG24       0.5346
     48  NH1      153.3600  210.6890  177.3840 N.pl3  24  ARG24       0.1354
     49  NH2      154.8060  209.7810  178.9160 N.pl3  24  ARG24       0.1354
     50  N        149.0250  205.3760  179.7210 N.am   25  LYS25      -0.1966
     51  CA       148.5350  204.5290  178.6400 C.3    25  LYS25       0.1713
     52  C        149.7000  203.9860  177.8110 C.2    25  LYS25       0.2458
     53  O        150.7260  204.6620  177.6580 O.2    25  LYS25      -0.2730
     54  CB       147.5540  205.3150  177.7600 C.3    25  LYS25       0.0311
     55  CG       148.1470  206.5170  177.0370 C.3    25  LYS25       0.0038
     56  CD       147.1050  207.2270  176.1930 C.3    25  LYS25       0.0206
     57  CE       146.1330  208.0020  177.0650 C.3    25  LYS25       0.1093
     58  NZ       146.8080  209.1280  177.7690 N.3    25  LYS25      -0.1314
     59  N        149.6020  202.7460  177.2990 N.am   26  PRO26      -0.2727
     60  CA       150.7460  202.1290  176.6010 C.3    26  PRO26       0.1402
     61  C        150.9440  202.6660  175.1850 C.2    26  PRO26       0.2269
     62  O        150.6780  201.9910  174.1880 O.2    26  PRO26      -0.2865
     63  CB       150.3770  200.6400  176.6200 C.3    26  PRO26       0.0296
     64  CG       148.9000  200.6170  176.6570 C.3    26  PRO26       0.0237
     65  CD       148.4910  201.7940  177.4860 C.3    26  PRO26       0.0939
     66  N        154.0050  203.3970  174.5160 N.3    28  LYS28      -0.1245
     67  CA       155.3060  202.7800  174.2880 C.3    28  LYS28       0.1561
     68  C        155.1480  201.3520  173.7820 C.2    28  LYS28       0.2260
     69  O        155.9380  200.8860  172.9520 O.2    28  LYS28      -0.2867
     70  CB       156.1170  202.8040  175.5840 C.3    28  LYS28       0.0271
     71  CG       157.5360  202.2680  175.4740 C.3    28  LYS28       0.0035
     72  CD       158.3940  203.1580  174.5970 C.3    28  LYS28       0.0206
     73  CE       158.5890  204.5220  175.2390 C.3    28  LYS28       0.1093
     74  NZ       159.4170  204.4450  176.4710 N.3    28  LYS28      -0.1314
     75  N        162.7300  205.1820  170.7810 N.3   264  LEU264     -0.1245
     76  CA       162.2360  204.7950  172.0970 C.3   264  LEU264      0.1561
     77  C        162.9010  203.5300  172.6270 C.2   264  LEU264      0.2260
     78  O        163.1180  203.4160  173.8390 O.2   264  LEU264     -0.2867
     79  CB       160.7200  204.6110  172.0490 C.3   264  LEU264      0.0270
     80  CG       159.9260  205.8850  171.7600 C.3   264  LEU264      0.0019
     81  CD1      158.4440  205.5790  171.6300 C.3   264  LEU264      0.0001
     82  CD2      160.1770  206.9290  172.8370 C.3   264  LEU264      0.0001
     83  N        166.5710  204.3750  173.6590 N.3   267  ARG267     -0.1231
     84  CA       166.5660  205.1760  174.8810 C.3   267  ARG267      0.1694
     85  C        166.3000  204.3050  176.1040 C.2   267  ARG267      0.2592
     86  O        166.7950  204.5900  177.2010 O.2   267  ARG267     -0.2718
     87  CB       165.5240  206.2900  174.7680 C.3   267  ARG267      0.0321
     88  CG       165.5160  207.2880  175.9180 C.3   267  ARG267      0.0489
     89  CD       164.4820  208.3780  175.6960 C.3   267  ARG267      0.2205
     90  NE       164.8270  209.2310  174.5630 N.pl3 267  ARG267     -0.0865
     91  CZ       164.0210  210.1540  174.0490 C.cat 267  ARG267      0.5346
     92  NH1      162.8170  210.3510  174.5690 N.pl3 267  ARG267      0.1354
     93  NH2      164.4210  210.8820  173.0160 N.pl3 267  ARG267      0.1354
     94  N        165.5430  203.2190  175.9250 N.am  268  SER268     -0.1952
     95  CA       165.3640  202.2530  177.0040 C.3   268  SER268      0.1924
     96  C        166.6480  201.4750  177.2670 C.2   268  SER268      0.2314
     97  O        166.8270  200.9060  178.3500 O.2   268  SER268     -0.2863
     98  CB       164.2180  201.2990  176.6700 C.3   268  SER268      0.2116
     99  OG       162.9850  201.9910  176.5680 O.3   268  SER268     -0.2180
    100  N        168.6500  203.9740  179.4010 N.3   271  ARG271     -0.1245
    101  CA       168.1470  204.0200  180.7710 C.3   271  ARG271      0.1563
    102  C        168.5640  202.7790  181.5550 C.2   271  ARG271      0.2260
    103  O        168.7240  202.8310  182.7810 O.2   271  ARG271     -0.2867
    104  CB       166.6250  204.1780  180.7560 C.3   271  ARG271      0.0307
    105  CG       165.9990  204.4500  182.1130 C.3   271  ARG271      0.0489
    106  CD       164.5040  204.6560  181.9970 C.3   271  ARG271      0.2205
    107  NE       164.1750  205.8680  181.2530 N.pl3 271  ARG271     -0.0865
    108  CZ       164.0870  207.0780  181.7960 C.cat 271  ARG271      0.5346
    109  NH1      163.7780  208.1230  181.0410 N.pl3 271  ARG271      0.1354
    110  NH2      164.3040  207.2450  183.0930 N.pl3 271  ARG271      0.1354
    111  N        165.2660  194.0660  173.6700 N.3   304  TYR304     -0.1241
    112  CA       165.5660  195.3780  173.1120 C.3   304  TYR304      0.1605
    113  C        166.8060  195.3670  172.2320 C.2   304  TYR304      0.2264
    114  O        166.9320  196.2270  171.3570 O.2   304  TYR304     -0.2867
    115  CB       165.7240  196.4080  174.2310 C.3   304  TYR304      0.0534
    116  CG       164.4200  196.7700  174.9000 C.ar  304  TYR304     -0.0201
    117  CD1      163.5480  197.6740  174.3060 C.ar  304  TYR304     -0.0009
    118  CD2      164.0580  196.2110  176.1190 C.ar  304  TYR304     -0.0009
    119  CE1      162.3520  198.0140  174.9030 C.ar  304  TYR304      0.0417
    120  CE2      162.8590  196.5450  176.7300 C.ar  304  TYR304      0.0417
    121  CZ       162.0110  197.4480  176.1140 C.ar  304  TYR304      0.1957
    122  OH       160.8160  197.7940  176.7020 O.3   304  TYR304     -0.2866
@<TRIPOS>BOND
     1    75    76    1
     2   114   113    2
     3    81    80    1
     4    80    79    1
     5    80    82    1
     6    79    76    1
     7    76    77    1
     8   113   112    1
     9    77    78    2
    10    69    68    2
    11    93    91    1
    12   112   111    1
    13   112   115    1
    14    83    84    1
    15    68    67    1
    16    91    90    2
    17    91    92    1
    18    62    61    2
    19   115   116    1
    20    67    66    1
    21    67    70    1
    22   117   116   ar
    23   117   119   ar
    24    90    89    1
    25    72    73    1
    26    72    71    1
    27    87    84    1
    28    87    88    1
    29    84    85    1
    30   116   118   ar
    31   119   121   ar
    32    61    60    1
    33    73    74    1
    34    71    70    1
    35    89    88    1
    36    94    85   am
    37    94    95    1
    38    85    86    2
    39   121   122    1
    40   121   120   ar
    41   118   120   ar
    42    56    55    1
    43    56    57    1
    44    99    98    1
    45    60    63    1
    46    60    59    1
    47    63    64    1
    48    64    65    1
    49    98    95    1
    50    95    96    1
    51    55    54    1
    52    57    58    1
    53    96    97    2
    54    59    65    1
    55    59    52   am
    56    48    47    1
    57    53    52    2
    58    54    51    1
    59    52    51    1
    60    47    49    1
    61    47    46    2
    62    51    50    1
    63    46    45    1
    64   100   101    1
    65    50    41   am
    66    45    44    1
    67    44    43    1
    68    41    42    2
    69    41    40    1
    70   104   101    1
    71   104   105    1
    72   101   102    1
    73   109   108    1
    74   107   108    2
    75   107   106    1
    76    28    29    1
    77    28    27    1
    78    43    40    1
    79   102   103    2
    80    27    26    1
    81   108   110    1
    82    40    39    1
    83   106   105    1
    84    26    25    1
    85    25    22    1
    86    16    15    2
    87    20    19    1
    88    15    14    1
    89    22    21    1
    90    22    23    1
    91    12    11    1
    92    23    24    2
    93    19    18    1
    94    10    11   ar
    95    10     8   ar
    96    18    17    1
    97    17    14    1
    98    13    14    1
    99    11     9   ar
   100     4     3    2
   101     8     6   ar
   102     9     7   ar
   103    36    35    1
   104    36    37    1
   105     3     2    1
   106    32    33    2
   107    32    31    1
   108    35    34    1
   109     6     7   ar
   110     6     5    1
   111    34    31    1
   112    37    38    1
   113    31    30    1
   114     2     5    1
   115     2     1    1
