@<TRIPOS>MOLECULE
tmp/6e8iA00.pdb
 109 107 0 0 0
SMALL
GASTEIGER

@<TRIPOS>ATOM
      1  N          9.1900   32.2520   11.6460 N.3    36  ARG36      -0.1245
      2  CA        10.2420   32.7030   12.5390 C.3    36  ARG36       0.1563
      3  C         11.5970   32.2550   12.0170 C.2    36  ARG36       0.2260
      4  O         11.7050   31.2780   11.2680 O.2    36  ARG36      -0.2867
      5  CB        10.0370   32.1640   13.9650 C.3    36  ARG36       0.0307
      6  CG        10.0430   30.6290   14.0330 C.3    36  ARG36       0.0489
      7  CD         9.5460   30.1190   15.3700 C.3    36  ARG36       0.2205
      8  NE         9.4850   28.6600   15.4090 N.pl3  36  ARG36      -0.0865
      9  CZ        10.5300   27.8570   15.5780 C.cat  36  ARG36       0.5346
     10  NH1       11.7620   28.3630   15.7130 N.pl3  36  ARG36       0.1354
     11  NH2       10.3430   26.5380   15.5940 N.pl3  36  ARG36       0.1354
     12  N         14.8370   30.2780   12.0120 N.3    38  SER38      -0.1202
     13  CA        15.1790   28.9650   12.5340 C.3    38  SER38       0.2020
     14  C         16.2220   29.1300   13.6280 C.2    38  SER38       0.2619
     15  O         17.2060   29.8510   13.4520 O.2    38  SER38      -0.2717
     16  CB        15.7140   28.0720   11.4230 C.3    38  SER38       0.2103
     17  OG        16.2110   26.8690   11.9850 O.3    38  SER38      -0.2182
     18  N         16.0110   28.4680   14.7600 N.am   39  SER39      -0.1937
     19  CA        17.0190   28.5320   15.8070 C.3    39  SER39       0.2055
     20  C         18.1770   27.5790   15.5420 C.2    39  SER39       0.2643
     21  O         19.3020   27.8450   15.9770 O.2    39  SER39      -0.2714
     22  CB        16.3890   28.2290   17.1580 C.3    39  SER39       0.2130
     23  OG        15.9310   26.8910   17.1960 O.3    39  SER39      -0.2179
     24  N         17.9310   26.4880   14.8170 N.am   40  THR40      -0.1950
     25  CA        18.9490   25.4720   14.5830 C.3    40  THR40       0.1897
     26  C         19.8240   25.7870   13.3750 C.2    40  THR40       0.2313
     27  O         21.0370   25.5340   13.4040 O.2    40  THR40      -0.2863
     28  CB        18.2900   24.0980   14.3990 C.3    40  THR40       0.1794
     29  OG1       17.4640   23.8270   15.5340 O.3    40  THR40      -0.2208
     30  CG2       19.3380   23.0090   14.2900 C.3    40  THR40       0.0378
     31  N         11.3340   28.9260    9.8400 N.3    46  THR46      -0.1218
     32  CA        10.5220   27.8370   10.3570 C.3    46  THR46       0.1862
     33  C          9.0880   28.3130   10.5050 C.2    46  THR46       0.2287
     34  O          8.8480   29.3840   11.0710 O.2    46  THR46      -0.2866
     35  CB        11.0720   27.3320   11.6910 C.3    46  THR46       0.1770
     36  OG1       12.3880   26.8200   11.4750 O.3    46  THR46      -0.2211
     37  CG2       10.2020   26.2310   12.2230 C.3    46  THR46       0.0375
     38  N          3.5730   21.8840   15.5930 N.3    58  LYS58      -0.1231
     39  CA         4.4900   21.3340   14.6050 C.3    58  LYS58       0.1693
     40  C          5.2430   22.4580   13.9040 C.2    58  LYS58       0.2592
     41  O          4.8190   23.6190   13.9150 O.2    58  LYS58      -0.2718
     42  CB         3.7510   20.4850   13.5740 C.3    58  LYS58       0.0285
     43  CG         3.1370   19.2360   14.1760 C.3    58  LYS58       0.0035
     44  CD         2.7670   18.2060   13.1260 C.3    58  LYS58       0.0206
     45  CE         2.0930   17.0140   13.7490 C.3    58  LYS58       0.1093
     46  NZ         1.7680   15.9640   12.7430 N.3    58  LYS58      -0.1314
     47  N          6.3830   22.0920   13.3060 N.am   59  HIS59      -0.1976
     48  CA         7.3120   23.0430   12.7010 C.3    59  HIS59       0.1656
     49  C          7.8090   22.5000   11.3700 C.2    59  HIS59       0.2291
     50  O          8.0900   21.3010   11.2490 O.2    59  HIS59      -0.2864
     51  CB         8.5090   23.3060   13.6210 C.3    59  HIS59       0.0771
     52  CG         8.1480   23.4910   15.0590 C.ar   59  HIS59       0.0820
     53  ND1        7.8440   24.7230   15.6000 N.ar   59  HIS59      -0.2267
     54  CD2        8.0890   22.6060   16.0810 C.ar   59  HIS59       0.1154
     55  CE1        7.5950   24.5850   16.8880 C.ar   59  HIS59       0.1986
     56  NE2        7.7310   23.3090   17.2070 N.ar   59  HIS59      -0.2212
     57  N         10.6080   23.6270    8.2030 N.3    61  ARG61      -0.1245
     58  CA        11.6940   24.5230    7.8010 C.3    61  ARG61       0.1563
     59  C         11.6960   24.7800    6.2970 C.2    61  ARG61       0.2260
     60  O         11.4560   23.8710    5.4940 O.2    61  ARG61      -0.2867
     61  CB        13.0450   23.9400    8.2090 C.3    61  ARG61       0.0307
     62  CG        13.1990   23.6710    9.6940 C.3    61  ARG61       0.0489
     63  CD        14.6540   23.7020   10.0800 C.3    61  ARG61       0.2205
     64  NE        14.8930   23.4130   11.5010 N.pl3  61  ARG61      -0.0865
     65  CZ        15.1000   22.1960   12.0080 C.cat  61  ARG61       0.5346
     66  NH1       15.0810   21.1110   11.2370 N.pl3  61  ARG61       0.1354
     67  NH2       15.3360   22.0540   13.3070 N.pl3  61  ARG61       0.1354
     68  N         13.7120   17.0170    5.6540 N.3    74  LYS74      -0.1231
     69  CA        13.0420   16.7290    6.9150 C.3    74  LYS74       0.1678
     70  C         13.8360   15.7030    7.7100 C.2    74  LYS74       0.2434
     71  O         14.2390   14.6730    7.1520 O.2    74  LYS74      -0.2733
     72  CB        11.6350   16.2010    6.6790 C.3    74  LYS74       0.0284
     73  CG        10.7920   16.1370    7.9410 C.3    74  LYS74       0.0035
     74  CD         9.6000   15.1980    7.7750 C.3    74  LYS74       0.0206
     75  CE         8.7340   15.1730    9.0240 C.3    74  LYS74       0.1093
     76  NZ         9.4990   14.7130   10.2230 N.3    74  LYS74      -0.1314
     77  N         14.0480   15.9250    9.0010 N.am   75  PRO75      -0.2718
     78  CA        14.8440   14.9950    9.7930 C.3    75  PRO75       0.1520
     79  C         14.0690   13.7230   10.0810 C.2    75  PRO75       0.2440
     80  O         12.8360   13.6970    9.9860 O.2    75  PRO75      -0.2731
     81  CB        15.1290   15.7870   11.0780 C.3    75  PRO75       0.0310
     82  CG        14.0030   16.7410   11.1660 C.3    75  PRO75       0.0237
     83  CD        13.7130   17.1430    9.7550 C.3    75  PRO75       0.0939
     84  N         14.7530   12.6400   10.4330 N.am   76  PRO76      -0.2716
     85  CA        14.0450   11.4110   10.7930 C.3    76  PRO76       0.1536
     86  C         13.3900   11.5570   12.1550 C.2    76  PRO76       0.2599
     87  O         13.5830   12.5350   12.8790 O.2    76  PRO76      -0.2715
     88  CB        15.1450   10.3520   10.8030 C.3    76  PRO76       0.0310
     89  CG        16.3890   11.1250   11.0850 C.3    76  PRO76       0.0237
     90  CD        16.2150   12.4630   10.4500 C.3    76  PRO76       0.0939
     91  N         12.5900   10.5600   12.4920 N.am   77  HIS77      -0.1960
     92  CA        11.8860   10.5880   13.7590 C.3    77  HIS77       0.1787
     93  C         12.8770   10.4620   14.9040 C.2    77  HIS77       0.2620
     94  O         13.8430    9.6970   14.8310 O.2    77  HIS77      -0.2715
     95  CB        10.8430    9.4760   13.8000 C.3    77  HIS77       0.0785
     96  CG         9.6670    9.7310   12.9100 C.ar   77  HIS77       0.0821
     97  ND1        8.9650    8.7190   12.2890 N.ar   77  HIS77      -0.2267
     98  CD2        9.0650   10.8870   12.5430 C.ar   77  HIS77       0.1154
     99  CE1        7.9850    9.2420   11.5750 C.ar   77  HIS77       0.1986
    100  NE2        8.0230   10.5550   11.7120 N.ar   77  HIS77      -0.2212
    101  N         12.6290   11.2300   15.9600 N.am   78  GLU78      -0.1977
    102  CA        13.5450   11.2910   17.0860 C.3    78  GLU78       0.1602
    103  C         13.6600    9.9220   17.7550 C.2    78  GLU78       0.2287
    104  O         12.6770    9.1720   17.8130 O.2    78  GLU78      -0.2864
    105  CB        13.0750   12.3340   18.1030 C.3    78  GLU78       0.0415
    106  CG        12.7150   13.6980   17.4880 C.3    78  GLU78       0.1163
    107  CD        11.2410   13.7980   17.0850 C.2    78  GLU78       0.3649
    108  OE1       10.8600   13.2350   16.0340 O.co2  78  GLU78      -0.2457
    109  OE2       10.4620   14.4430   17.8240 O.co2  78  GLU78      -0.2457
@<TRIPOS>BOND
     1    60    59    2
     2    68    69    1
     3    59    58    1
     4    72    69    1
     5    72    73    1
     6    69    70    1
     7    71    70    2
     8    70    77   am
     9    74    73    1
    10    74    75    1
    11    58    57    1
    12    58    61    1
    13    61    62    1
    14    77    83    1
    15    77    78    1
    16    75    76    1
    17    62    63    1
    18    83    82    1
    19    78    79    1
    20    78    81    1
    21    31    32    1
    22    80    79    2
    23    63    64    1
    24    79    84   am
    25    32    33    1
    26    32    35    1
    27    84    90    1
    28    84    85    1
    29    90    89    1
    30    33    34    2
    31    85    88    1
    32    85    86    1
    33    88    89    1
    34    81    82    1
    35    66    65    1
    36    50    49    2
    37     4     3    2
    38    49    48    1
    39    16    17    1
    40    16    13    1
    41    36    35    1
    42    64    65    2
    43    99   100   ar
    44    99    97   ar
    45     1     2    1
    46    35    37    1
    47   100    98   ar
    48    65    67    1
    49    12    13    1
    50     3     2    1
    51    86    91   am
    52    86    87    2
    53    97    96   ar
    54    91    92    1
    55    13    14    1
    56     2     5    1
    57    98    96   ar
    58    48    47    1
    59    48    51    1
    60    46    45    1
    61    96    95    1
    62    44    45    1
    63    44    43    1
    64    47    40   am
    65    26    27    2
    66    26    25    1
    67    15    14    2
    68    42    43    1
    69    42    39    1
    70    51    52    1
    71    14    18   am
    72    92    95    1
    73    92    93    1
    74    40    41    2
    75    40    39    1
    76     5     6    1
    77     6     7    1
    78    30    28    1
    79    28    25    1
    80    28    29    1
    81    25    24    1
    82    39    38    1
    83    18    19    1
    84    24    20   am
    85    94    93    2
    86    93   101   am
    87    52    53   ar
    88    52    54   ar
    89     7     8    1
    90     8     9    2
    91    20    19    1
    92    20    21    2
    93     9    11    1
    94     9    10    1
    95    53    55   ar
    96    19    22    1
    97   101   102    1
    98   108   107   ar
    99    54    56   ar
   100    55    56   ar
   101   107   106    1
   102   107   109   ar
   103   102   103    1
   104   102   105    1
   105    22    23    1
   106   106   105    1
   107   103   104    2
