@<TRIPOS>MOLECULE
tmp/6e8nA00.pdb
 226 213 0 0 0
SMALL
GASTEIGER

@<TRIPOS>ATOM
      1  N         16.6730   21.3940    0.5450 N.3    15  GLN15      -0.1245
      2  CA        17.7450   20.4790    0.1980 C.3    15  GLN15       0.1566
      3  C         17.3030   19.5120   -0.8970 C.2    15  GLN15       0.2260
      4  O         16.1130   19.2130   -1.0750 O.2    15  GLN15      -0.2867
      5  CB        18.2360   19.7010    1.4360 C.3    15  GLN15       0.0367
      6  CG        17.5260   18.3910    1.6670 C.3    15  GLN15       0.0905
      7  CD        18.0460   17.6400    2.8810 C.2    15  GLN15       0.2608
      8  OE1       18.6190   18.2300    3.8110 O.2    15  GLN15      -0.2717
      9  NE2       17.8490   16.3170    2.8790 N.am   15  GLN15      -0.0878
     10  N         18.8350   15.7900   -1.7480 N.3    17  MET17      -0.1245
     11  CA        19.7740   14.8110   -1.2150 C.3    17  MET17       0.1570
     12  C         19.8360   13.6050   -2.1460 C.2    17  MET17       0.2261
     13  O         18.8130   12.9570   -2.3870 O.2    17  MET17      -0.2867
     14  CB        19.3770   14.3920    0.1990 C.3    17  MET17       0.0387
     15  CG        20.4620   13.6450    0.9150 C.3    17  MET17       0.0595
     16  SD        19.7110   12.5690    2.1370 S.3    17  MET17      -0.1393
     17  CE        19.1050   11.2340    1.1010 C.3    17  MET17       0.0692
     18  N         21.3670    9.8440   -2.6990 N.3    19  GLN19      -0.1245
     19  CA        21.8870    8.6960   -1.9740 C.3    19  GLN19       0.1566
     20  C         22.2060    7.5770   -2.9520 C.2    19  GLN19       0.2260
     21  O         21.3790    7.2410   -3.8150 O.2    19  GLN19      -0.2867
     22  CB        20.8720    8.2340   -0.9370 C.3    19  GLN19       0.0367
     23  CG        21.4480    7.3860    0.1400 C.3    19  GLN19       0.0905
     24  CD        20.6330    7.5290    1.3890 C.2    19  GLN19       0.2608
     25  OE1       19.6800    8.3190    1.4270 O.2    19  GLN19      -0.2717
     26  NE2       20.9910    6.7710    2.4260 N.am   19  GLN19      -0.0878
     27  N         14.4640   22.0560    5.0950 N.3    30  LEU30      -0.1245
     28  CA        15.5160   21.8160    6.0750 C.3    30  LEU30       0.1561
     29  C         15.6660   23.0140    6.9980 C.2    30  LEU30       0.2260
     30  O         16.0700   24.0950    6.5650 O.2    30  LEU30      -0.2867
     31  CB        16.8400   21.5560    5.3650 C.3    30  LEU30       0.0270
     32  CG        18.1510   21.6490    6.1480 C.3    30  LEU30       0.0019
     33  CD1       18.5360   20.3450    6.8060 C.3    30  LEU30       0.0001
     34  CD2       19.2080   22.1280    5.2150 C.3    30  LEU30       0.0001
     35  N         18.1020   24.0450   10.0270 N.3    32  TYR32      -0.1241
     36  CA        19.4130   23.6460   10.5430 C.3    32  TYR32       0.1605
     37  C         19.7730   24.5430   11.7230 C.2    32  TYR32       0.2264
     38  O         19.9710   25.7530   11.5420 O.2    32  TYR32      -0.2867
     39  CB        20.4830   23.7270    9.4510 C.3    32  TYR32       0.0534
     40  CG        21.8690   23.6120    9.9970 C.ar   32  TYR32      -0.0201
     41  CD1       22.4400   22.3830   10.2240 C.ar   32  TYR32      -0.0009
     42  CD2       22.6060   24.7440   10.3110 C.ar   32  TYR32      -0.0009
     43  CE1       23.7160   22.2860   10.7320 C.ar   32  TYR32       0.0417
     44  CE2       23.8860   24.6600   10.8330 C.ar   32  TYR32       0.0417
     45  CZ        24.4350   23.4300   11.0350 C.ar   32  TYR32       0.1957
     46  OH        25.7030   23.3410   11.5510 O.3    32  TYR32      -0.2866
     47  N         18.4340   19.2790   13.9590 N.3    39  VAL39      -0.1245
     48  CA        18.1130   19.5120   12.5550 C.3    39  VAL39       0.1561
     49  C         16.7750   18.8470   12.2350 C.2    39  VAL39       0.2260
     50  O         16.5010   17.7220   12.6720 O.2    39  VAL39      -0.2867
     51  CB        19.2750   19.0510   11.6280 C.3    39  VAL39       0.0252
     52  CG1       19.7690   17.6830   11.9920 C.3    39  VAL39       0.0019
     53  CG2       18.8440   19.0280   10.1880 C.3    39  VAL39       0.0019
     54  N         13.8310   18.1360    9.0010 N.3    41  VAL41      -0.1245
     55  CA        13.6980   18.0370    7.5550 C.3    41  VAL41       0.1561
     56  C         12.3210   17.4910    7.2070 C.2    41  VAL41       0.2260
     57  O         11.8400   16.5320    7.8230 O.2    41  VAL41      -0.2867
     58  CB        14.8070   17.1480    6.9630 C.3    41  VAL41       0.0252
     59  CG1       14.9000   15.8500    7.7360 C.3    41  VAL41       0.0019
     60  CG2       14.5450   16.8740    5.4980 C.3    41  VAL41       0.0019
     61  N         11.4790   14.2700    9.5850 N.3    57  TYR57      -0.1241
     62  CA        12.4490   13.7550   10.5280 C.3    57  TYR57       0.1605
     63  C         12.9300   14.9030   11.4000 C.2    57  TYR57       0.2264
     64  O         13.2280   15.9990   10.8980 O.2    57  TYR57      -0.2867
     65  CB        13.6150   13.0540    9.8260 C.3    57  TYR57       0.0534
     66  CG        13.2520   12.0930    8.6980 C.ar   57  TYR57      -0.0201
     67  CD1       13.0350   12.5560    7.4010 C.ar   57  TYR57      -0.0009
     68  CD2       13.1730   10.7180    8.9280 C.ar   57  TYR57      -0.0009
     69  CE1       12.7280   11.6820    6.3720 C.ar   57  TYR57       0.0417
     70  CE2       12.8640    9.8370    7.9070 C.ar   57  TYR57       0.0417
     71  CZ        12.6400   10.3230    6.6280 C.ar   57  TYR57       0.1957
     72  OH        12.3280    9.4600    5.5900 O.3    57  TYR57      -0.2866
     73  N         15.8010   15.5810   14.3960 N.3    59  LEU59      -0.1245
     74  CA        17.0270   15.0460   14.9690 C.3    59  LEU59       0.1561
     75  C         17.4710   15.9250   16.1350 C.2    59  LEU59       0.2260
     76  O         17.9380   17.0550   15.9150 O.2    59  LEU59      -0.2867
     77  CB        18.1110   15.0040   13.8980 C.3    59  LEU59       0.0270
     78  CG        17.9880   14.0040   12.7540 C.3    59  LEU59       0.0019
     79  CD1       16.9660   14.4580   11.7190 C.3    59  LEU59       0.0001
     80  CD2       19.3590   13.8260   12.1420 C.3    59  LEU59       0.0001
     81  N         20.3150   15.9020   18.6940 N.3    61  TYR61      -0.1241
     82  CA        21.5670   15.2270   19.0130 C.3    61  TYR61       0.1605
     83  C         22.0140   15.4990   20.4360 C.2    61  TYR61       0.2264
     84  O         22.8600   14.7640   20.9570 O.2    61  TYR61      -0.2867
     85  CB        22.7010   15.6630   18.0750 C.3    61  TYR61       0.0534
     86  CG        22.7300   15.0330   16.6870 C.ar   61  TYR61      -0.0201
     87  CD1       23.5810   13.9630   16.3930 C.ar   61  TYR61      -0.0009
     88  CD2       21.9490   15.5510   15.6530 C.ar   61  TYR61      -0.0009
     89  CE1       23.6100   13.4050   15.1190 C.ar   61  TYR61       0.0417
     90  CE2       21.9750   15.0060   14.3830 C.ar   61  TYR61       0.0417
     91  CZ        22.8000   13.9370   14.1160 C.ar   61  TYR61       0.1957
     92  OH        22.8080   13.4110   12.8390 O.3    61  TYR61      -0.2866
     93  N         16.1750   10.5070   17.4190 N.3    66  MET66      -0.1245
     94  CA        15.5360   11.0920   16.2540 C.3    66  MET66       0.1570
     95  C         14.1720   10.4520   16.0280 C.2    66  MET66       0.2261
     96  O         13.9670    9.2610   16.2920 O.2    66  MET66      -0.2867
     97  CB        16.3610   10.9320   14.9850 C.3    66  MET66       0.0387
     98  CG        16.2100    9.5760   14.3580 C.3    66  MET66       0.0595
     99  SD        16.6090    9.8060   12.6390 S.3    66  MET66      -0.1393
    100  CE        15.4180   11.0690   12.1860 C.3    66  MET66       0.0692
    101  N         25.8300    7.8120   15.4380 N.3    83  GLN83      -0.1231
    102  CA        26.9820    8.5810   15.0040 C.3    83  GLN83       0.1683
    103  C         26.8740   10.0040   15.5530 C.2    83  GLN83       0.2434
    104  O         25.7700   10.5110   15.7970 O.2    83  GLN83      -0.2733
    105  CB        27.1180    8.5920   13.4760 C.3    83  GLN83       0.0380
    106  CG        26.3680    9.6820   12.7120 C.3    83  GLN83       0.0905
    107  CD        26.8620    9.8450   11.2480 C.2    83  GLN83       0.2608
    108  OE1       26.5870   10.8640   10.6040 O.2    83  GLN83      -0.2717
    109  NE2       27.5700    8.8360   10.7240 N.am   83  GLN83      -0.0878
    110  N         28.0030   10.6540   15.7990 N.am   84  PRO84      -0.2718
    111  CA        27.9900   11.9110   16.5430 C.3    84  PRO84       0.1535
    112  C         27.6430   13.0910   15.6480 C.2    84  PRO84       0.2599
    113  O         27.5940   12.9980   14.4190 O.2    84  PRO84      -0.2715
    114  CB        29.4220   12.0270   17.0610 C.3    84  PRO84       0.0310
    115  CG        30.2300   11.3240   16.0210 C.3    84  PRO84       0.0237
    116  CD        29.3730   10.2090   15.4910 C.3    84  PRO84       0.0939
    117  N         27.4440   14.2250   16.3110 N.am   85  TRP85      -0.1960
    118  CA        27.0240   15.4550   15.6590 C.3    85  TRP85       0.1771
    119  C         28.1330   16.0580   14.8040 C.2    85  TRP85       0.2619
    120  O         29.2380   16.2830   15.2940 O.2    85  TRP85      -0.2715
    121  CB        26.6040   16.4470   16.7230 C.3    85  TRP85       0.0590
    122  CG        26.5960   17.7880   16.2040 C.ar   85  TRP85       0.0006
    123  CD1       27.5910   18.7080   16.3000 C.ar   85  TRP85       0.0946
    124  CD2       25.5230   18.4130   15.4970 C.ar   85  TRP85       0.0152
    125  NE1       27.2100   19.8750   15.6840 N.ar   85  TRP85      -0.2442
    126  CE2       25.9420   19.7230   15.1830 C.ar   85  TRP85       0.0810
    127  CE3       24.2460   17.9900   15.0900 C.ar   85  TRP85       0.0012
    128  CZ2       25.1280   20.6220   14.4840 C.ar   85  TRP85       0.0191
    129  CZ3       23.4400   18.8780   14.4010 C.ar   85  TRP85       0.0001
    130  CH2       23.8820   20.1810   14.1080 C.ar   85  TRP85       0.0015
    131  N         27.8060   16.4170   13.5620 N.am   86  ASP86      -0.1971
    132  CA        28.7730   16.9000   12.5690 C.3    86  ASP86       0.1709
    133  C         28.2530   18.1880   11.9270 C.2    86  ASP86       0.2293
    134  O         27.4780   18.1240   10.9590 O.2    86  ASP86      -0.2864
    135  CB        28.9790   15.7910   11.5270 C.3    86  ASP86       0.1436
    136  CG        30.1410   16.0410   10.5430 C.2    86  ASP86       0.3671
    137  OD1       30.1390   17.0520    9.7920 O.co2  86  ASP86      -0.2456
    138  OD2       31.0390   15.1710   10.4810 O.co2  86  ASP86      -0.2456
    139  N         27.4290   21.7880    9.9220 N.3    88  LEU88      -0.1245
    140  CA        27.5850   22.2060    8.5280 C.3    88  LEU88       0.1561
    141  C         28.5480   23.3880    8.5210 C.2    88  LEU88       0.2260
    142  O         28.1650   24.5580    8.4230 O.2    88  LEU88      -0.2867
    143  CB        26.2510   22.5810    7.8990 C.3    88  LEU88       0.0270
    144  CG        25.2930   21.5170    7.3520 C.3    88  LEU88       0.0019
    145  CD1       24.3890   22.1260    6.2870 C.3    88  LEU88       0.0001
    146  CD2       25.9380   20.2450    6.8680 C.3    88  LEU88       0.0001
    147  N         38.0350   13.2260    6.7550 N.3   118  LYS118     -0.1245
    148  CA        38.0270   12.7490    8.1490 C.3   118  LYS118      0.1561
    149  C         37.9990   11.2230    8.2550 C.2   118  LYS118      0.2260
    150  O         36.9320   10.6000    8.1870 O.2   118  LYS118     -0.2867
    151  CB        36.8500   13.3190    8.9760 C.3   118  LYS118      0.0271
    152  CG        35.4170   13.0770    8.4650 C.3   118  LYS118      0.0035
    153  CD        34.3980   13.2450    9.5970 C.3   118  LYS118      0.0206
    154  CE        33.0390   12.7640    9.1600 C.3   118  LYS118      0.1093
    155  NZ        32.4800   13.7260    8.1980 N.3   118  LYS118     -0.1314
    156  N         37.0130    7.6460    5.0690 N.3   124  GLU124     -0.1245
    157  CA        35.8540    8.3570    4.5350 C.3   124  GLU124      0.1567
    158  C         36.2550    9.8120    4.3310 C.2   124  GLU124      0.2260
    159  O         36.6920   10.4760    5.2730 O.2   124  GLU124     -0.2867
    160  CB        34.6450    8.2680    5.4780 C.3   124  GLU124      0.0388
    161  CG        33.3650    9.0200    4.9860 C.3   124  GLU124      0.1160
    162  CD        32.3350    9.2950    6.0980 C.2   124  GLU124      0.3649
    163  OE1       31.9220    8.3280    6.7720 O.co2 124  GLU124     -0.2457
    164  OE2       31.9390   10.4680    6.3060 O.co2 124  GLU124     -0.2457
    165  N         27.3460   19.4170   -0.0470 N.3   140  GLU140     -0.1245
    166  CA        28.0820   18.5100    0.8130 C.3   140  GLU140      0.1567
    167  C         28.1030   17.1220    0.1740 C.2   140  GLU140      0.2260
    168  O         27.0870   16.6520   -0.3450 O.2   140  GLU140     -0.2867
    169  CB        27.4250   18.4990    2.1900 C.3   140  GLU140      0.0388
    170  CG        27.9930   17.5440    3.1780 C.3   140  GLU140      0.1160
    171  CD        27.8260   18.0650    4.5840 C.2   140  GLU140      0.3649
    172  OE1       28.6350   18.9470    4.9960 O.co2 140  GLU140     -0.2457
    173  OE2       26.8840   17.5810    5.2630 O.co2 140  GLU140     -0.2457
    174  N         29.7400   13.1610    1.0240 N.3   142  PHE142     -0.1241
    175  CA        30.4940   12.1630    1.7770 C.3   142  PHE142      0.1605
    176  C         30.7870   10.9650    0.8850 C.2   142  PHE142      0.2264
    177  O         29.8860   10.4510    0.1970 O.2   142  PHE142     -0.2867
    178  CB        29.7540   11.6960    3.0340 C.3   142  PHE142      0.0534
    179  CG        29.4300   12.7910    4.0120 C.ar  142  PHE142     -0.0203
    180  CD1       28.2690   13.5240    3.9020 C.ar  142  PHE142     -0.0042
    181  CD2       30.2600   13.0370    5.0850 C.ar  142  PHE142     -0.0042
    182  CE1       27.9580   14.5090    4.8120 C.ar  142  PHE142     -0.0003
    183  CE2       29.9490   14.0290    6.0070 C.ar  142  PHE142     -0.0003
    184  CZ        28.8010   14.7660    5.8600 C.ar  142  PHE142     -0.0000
    185  N         33.1560    7.1730    0.7240 N.3   144  ILE144     -0.1245
    186  CA        34.0070    6.1390    1.2970 C.3   144  ILE144      0.1561
    187  C         34.6990    5.4360    0.1410 C.2   144  ILE144      0.2260
    188  O         34.0740    5.1260   -0.8800 O.2   144  ILE144     -0.2867
    189  CB        33.2250    5.1660    2.2100 C.3   144  ILE144      0.0252
    190  CG1       31.9500    4.6520    1.5320 C.3   144  ILE144      0.0019
    191  CG2       32.9080    5.7950    3.5670 C.3   144  ILE144      0.0019
    192  CD1       31.1410    3.6970    2.4050 C.3   144  ILE144      0.0001
    193  N         28.8150    7.9550   -1.5240 N.3   149  ILE149     -0.1231
    194  CA        27.7010    7.3660   -0.7970 C.3   149  ILE149      0.1692
    195  C         26.5830    8.3820   -0.5660 C.2   149  ILE149      0.2591
    196  O         25.4030    8.0240   -0.6390 O.2   149  ILE149     -0.2718
    197  CB        28.1720    6.7120    0.5200 C.3   149  ILE149      0.0266
    198  CG1       26.9840    6.0350    1.2090 C.3   149  ILE149      0.0019
    199  CG2       28.8080    7.7140    1.4690 C.3   149  ILE149      0.0020
    200  CD1       26.1590    5.0860    0.3300 C.3   149  ILE149      0.0001
    201  N         26.8990    9.6590   -0.3630 N.am  150  LEU150     -0.1980
    202  CA        25.7930   10.5930   -0.1940 C.3   150  LEU150      0.1596
    203  C         26.2060   12.0190   -0.5330 C.2   150  LEU150      0.2287
    204  O         27.2070   12.5100   -0.0170 O.2   150  LEU150     -0.2864
    205  CB        25.3050   10.5390    1.2470 C.3   150  LEU150      0.0297
    206  CG        24.1940   11.5140    1.6100 C.3   150  LEU150      0.0022
    207  CD1       23.1580   10.7540    2.4020 C.3   150  LEU150      0.0001
    208  CD2       24.7130   12.7320    2.3920 C.3   150  LEU150      0.0001
    209  N         24.3930   16.2010   -1.0200 N.3   152  THR152     -0.1218
    210  CA        23.2240   16.9860   -0.6900 C.3   152  THR152      0.1862
    211  C         23.5060   18.4340   -1.0720 C.2   152  THR152      0.2287
    212  O         24.5710   18.9730   -0.7680 O.2   152  THR152     -0.2866
    213  CB        22.8490   16.7620    0.8100 C.3   152  THR152      0.1770
    214  OG1       21.8930   17.7270    1.2770 O.3   152  THR152     -0.2211
    215  CG2       24.0780   16.6540    1.7390 C.3   152  THR152      0.0375
    216  N         22.0350   22.4850   -1.2160 N.3   154  PHE154     -0.1241
    217  CA        21.2590   23.3860   -0.3890 C.3   154  PHE154      0.1605
    218  C         20.9930   24.6710   -1.1400 C.2   154  PHE154      0.2264
    219  O         21.9050   25.2340   -1.7630 O.2   154  PHE154     -0.2867
    220  CB        21.9900   23.7240    0.8910 C.3   154  PHE154      0.0534
    221  CG        22.5100   22.5460    1.5960 C.ar  154  PHE154     -0.0203
    222  CD1       21.6260   21.6110    2.1480 C.ar  154  PHE154     -0.0042
    223  CD2       23.8730   22.3630    1.7310 C.ar  154  PHE154     -0.0042
    224  CE1       22.0880   20.4970    2.8000 C.ar  154  PHE154     -0.0003
    225  CE2       24.3590   21.2470    2.3920 C.ar  154  PHE154     -0.0003
    226  CZ        23.4550   20.3050    2.9320 C.ar  154  PHE154     -0.0000
@<TRIPOS>BOND
     1    21    20    2
     2    20    19    1
     3    18    19    1
     4    13    12    2
     5    12    11    1
     6    19    22    1
     7   219   218    2
     8    10    11    1
     9   193   194    1
    10   216   217    1
    11    11    14    1
    12   218   217    1
    13     4     3    2
    14   211   212    2
    15   211   210    1
    16   209   210    1
    17    22    23    1
    18     3     2    1
    19   188   187    2
    20   194   195    1
    21   194   197    1
    22   210   213    1
    23   196   195    2
    24   195   201   am
    25   203   202    1
    26   203   204    2
    27   217   220    1
    28   201   202    1
    29   168   167    2
    30   202   205    1
    31   165   166    1
    32    23    24    1
    33   187   186    1
    34   167   166    1
    35   177   176    2
    36     2     1    1
    37     2     5    1
    38    14    15    1
    39   200   198    1
    40   197   198    1
    41   197   199    1
    42   185   186    1
    43   213   214    1
    44   213   215    1
    45   166   169    1
    46   176   175    1
    47   220   221    1
    48    15    16    1
    49   174   175    1
    50    17    16    1
    51   205   206    1
    52   186   189    1
    53    24    25    2
    54    24    26   am
    55     5     6    1
    56   190   189    1
    57   190   192    1
    58   221   223   ar
    59   221   222   ar
    60   206   208    1
    61   206   207    1
    62     6     7    1
    63   223   225   ar
    64   175   178    1
    65   222   224   ar
    66   169   170    1
    67   189   191    1
    68   225   226   ar
    69   224   226   ar
    70     9     7   am
    71     7     8    2
    72   178   179    1
    73   170   171    1
    74   180   179   ar
    75   180   182   ar
    76   179   181   ar
    77   158   157    1
    78   158   159    2
    79   157   156    1
    80   157   160    1
    81   171   172   ar
    82   171   173   ar
    83   182   184   ar
    84   161   160    1
    85   161   162    1
    86   181   183   ar
    87    27    28    1
    88    34    32    1
    89    31    28    1
    90    31    32    1
    91    60    58    1
    92    72    71    1
    93   184   183   ar
    94    28    29    1
    95   162   164   ar
    96   162   163   ar
    97    32    33    1
    98   145   144    1
    99    69    71   ar
   100    69    67   ar
   101    30    29    2
   102    71    70   ar
   103   147   148    1
   104   146   144    1
   105    58    55    1
   106    58    59    1
   107    56    55    1
   108    56    57    2
   109   144   143    1
   110    67    66   ar
   111    55    54    1
   112   143   140    1
   113    70    68   ar
   114   148   149    1
   115   148   151    1
   116   150   149    2
   117   155   154    1
   118   142   141    2
   119   152   151    1
   120   152   153    1
   121   141   140    1
   122   140   139    1
   123    66    68   ar
   124    66    65    1
   125   154   153    1
   126    39    40    1
   127    39    36    1
   128    61    62    1
   129   137   136   ar
   130    65    62    1
   131    40    41   ar
   132    40    42   ar
   133    35    36    1
   134    53    51    1
   135    41    43   ar
   136    42    44   ar
   137   138   136   ar
   138    62    63    1
   139    36    37    1
   140   136   135    1
   141   108   107    2
   142   109   107   am
   143    43    45   ar
   144    44    45   ar
   145    64    63    2
   146   134   133    2
   147    45    46    1
   148   107   106    1
   149   135   132    1
   150    38    37    2
   151    51    52    1
   152    51    48    1
   153    79    78    1
   154   133   132    1
   155    80    78    1
   156   100    99    1
   157    49    48    1
   158    49    50    2
   159    48    47    1
   160   132   131    1
   161    99    98    1
   162   106   105    1
   163    78    77    1
   164    92    91    1
   165   105   102    1
   166   131   119   am
   167    77    74    1
   168   130   129   ar
   169   130   128   ar
   170    91    90   ar
   171    91    89   ar
   172    98    97    1
   173    90    88   ar
   174    73    74    1
   175   129   127   ar
   176   113   112    2
   177   128   126   ar
   178   119   120    2
   179   119   118    1
   180    74    75    1
   181    97    94    1
   182   102   101    1
   183   102   103    1
   184   127   124   ar
   185    89    87   ar
   186   126   124   ar
   187   126   125   ar
   188   116   110    1
   189   116   115    1
   190   124   122   ar
   191   103   104    2
   192   103   110   am
   193   112   117   am
   194   112   111    1
   195    88    86   ar
   196   118   117    1
   197   118   121    1
   198   125   123   ar
   199   110   111    1
   200    76    75    2
   201   115   114    1
   202    95    94    1
   203    95    96    2
   204   122   123   ar
   205   122   121    1
   206    94    93    1
   207    87    86   ar
   208   111   114    1
   209    86    85    1
   210    85    82    1
   211    81    82    1
   212    82    83    1
   213    83    84    2
