@<TRIPOS>MOLECULE
tmp/6e8qA03.pdb
 90 84 0 0 0
SMALL
GASTEIGER

@<TRIPOS>ATOM
      1  N         39.7070    9.5060   12.0090 N.3   149  GLY149     -0.1210
      2  CA        41.0600    9.7530   11.5520 C.3   149  GLY149      0.1956
      3  C         41.4160   11.2220   11.4790 C.2   149  GLY149      0.2611
      4  O         42.5970   11.5790   11.4770 O.2   149  GLY149     -0.2717
      5  N         40.4200   12.0940   11.3700 N.am  150  ALA150     -0.1979
      6  CA        40.6940   13.5180   11.4570 C.3   150  ALA150      0.1597
      7  C         40.4880   14.0590   12.8630 C.2   150  ALA150      0.2287
      8  O         40.5850   15.2770   13.0580 O.2   150  ALA150     -0.2864
      9  CB        39.8130   14.3050   10.4770 C.3   150  ALA150      0.0319
     10  N         42.2440   13.5720   15.8070 N.3   152  THR152     -0.1218
     11  CA        43.4080   13.1250   16.5460 C.3   152  THR152      0.1862
     12  C         43.8810   14.2570   17.4430 C.2   152  THR152      0.2287
     13  O         43.5120   15.4240   17.2510 O.2   152  THR152     -0.2866
     14  CB        44.5230   12.6870   15.5830 C.3   152  THR152      0.1770
     15  OG1       45.0220   13.8250   14.8720 O.3   152  THR152     -0.2211
     16  CG2       43.9750   11.7020   14.5620 C.3   152  THR152      0.0375
     17  N         46.6610   15.6240   17.4090 N.3   154  GLU154     -0.1231
     18  CA        47.3090   16.6450   16.5930 C.3   154  GLU154      0.1699
     19  C         46.2850   17.4540   15.8190 C.2   154  GLU154      0.2592
     20  O         46.4680   18.6560   15.6080 O.2   154  GLU154     -0.2718
     21  CB        48.3280   16.0290   15.6380 C.3   154  GLU154      0.0402
     22  CG        49.7170   15.9730   16.2290 C.3   154  GLU154      0.1161
     23  CD        49.9410   14.7080   17.0090 C.2   154  GLU154      0.3649
     24  OE1       49.1590   13.7450   16.8030 O.co2 154  GLU154     -0.2457
     25  OE2       50.8890   14.6800   17.8260 O.co2 154  GLU154     -0.2457
     26  N         45.1980   16.8200   15.3830 N.am  155  ALA155     -0.1980
     27  CA        44.1140   17.6130   14.8270 C.3   155  ALA155      0.1597
     28  C         43.5810   18.5870   15.8720 C.2   155  ALA155      0.2287
     29  O         43.3990   19.7710   15.5870 O.2   155  ALA155     -0.2864
     30  CB        43.0070   16.7060   14.2850 C.3   155  ALA155      0.0319
     31  N         45.7210   21.7370   16.3200 N.3   158  SER158     -0.1202
     32  CA        45.5290   22.8160   15.3560 C.3   158  SER158      0.2020
     33  C         44.1070   23.3910   15.3540 C.2   158  SER158      0.2618
     34  O         43.9360   24.5380   14.9500 O.2   158  SER158     -0.2717
     35  CB        45.9130   22.3720   13.9290 C.3   158  SER158      0.2103
     36  OG        45.3890   21.1110   13.5630 O.3   158  SER158     -0.2182
     37  N         43.0960   22.6540   15.8230 N.am  159  TYR159     -0.1975
     38  CA        41.7490   23.2190   15.8580 C.3   159  TYR159      0.1639
     39  C         41.6260   24.3310   16.8850 C.2   159  TYR159      0.2290
     40  O         40.8080   25.2480   16.7140 O.2   159  TYR159     -0.2864
     41  CB        40.7070   22.1410   16.1780 C.3   159  TYR159      0.0560
     42  CG        40.4930   21.1110   15.1100 C.ar  159  TYR159     -0.0198
     43  CD1       41.0310   21.2700   13.8390 C.ar  159  TYR159     -0.0009
     44  CD2       39.7410   19.9740   15.3690 C.ar  159  TYR159     -0.0009
     45  CE1       40.8290   20.3160   12.8610 C.ar  159  TYR159      0.0417
     46  CE2       39.5360   19.0240   14.3990 C.ar  159  TYR159      0.0417
     47  CZ        40.0810   19.2040   13.1440 C.ar  159  TYR159      0.1957
     48  OH        39.8840   18.2530   12.1790 O.3   159  TYR159     -0.2866
     49  N         46.4400   18.0300    5.1210 N.3   273  ASP273     -0.1225
     50  CA        45.9150   17.5700    6.4040 C.3   273  ASP273      0.1805
     51  C         45.2280   18.7100    7.1460 C.2   273  ASP273      0.2598
     52  O         45.4040   18.8860    8.3530 O.2   273  ASP273     -0.2718
     53  CB        47.0220   16.9820    7.2740 C.3   273  ASP273      0.1424
     54  CG        47.7670   15.8620    6.5900 C.2   273  ASP273      0.3668
     55  OD1       47.1170   14.9000    6.1240 O.co2 273  ASP273     -0.2456
     56  OD2       49.0110   15.9570    6.5060 O.co2 273  ASP273     -0.2456
     57  N         44.4340   19.5000    6.4240 N.am  274  ARG274     -0.1966
     58  CA        43.8670   20.7290    6.9690 C.3   274  ARG274      0.1729
     59  C         42.5860   20.4730    7.7550 C.2   274  ARG274      0.2616
     60  O         42.3930   21.0430    8.8370 O.2   274  ARG274     -0.2715
     61  CB        43.5980   21.7100    5.8280 C.3   274  ARG274      0.0348
     62  CG        44.8410   22.0880    5.0230 C.3   274  ARG274      0.0492
     63  CD        44.5030   22.6260    3.6300 C.3   274  ARG274      0.2205
     64  NE        44.1100   21.5630    2.7090 N.pl3 274  ARG274     -0.0865
     65  CZ        43.9490   21.7190    1.3950 C.cat 274  ARG274      0.5346
     66  NH1       44.1530   22.9030    0.8280 N.pl3 274  ARG274      0.1354
     67  NH2       43.5900   20.6850    0.6350 N.pl3 274  ARG274      0.1354
     68  N         41.7050   19.6150    7.2470 N.am  275  ASP275     -0.1971
     69  CA        40.3510   19.5360    7.7690 C.3   275  ASP275      0.1709
     70  C         39.8400   18.1160    7.5590 C.2   275  ASP275      0.2293
     71  O         40.5730   17.2400    7.0930 O.2   275  ASP275     -0.2864
     72  CB        39.4870   20.5970    7.0940 C.3   275  ASP275      0.1436
     73  CG        39.6850   20.6200    5.5850 C.2   275  ASP275      0.3671
     74  OD1       39.7080   19.5290    4.9790 O.co2 275  ASP275     -0.2456
     75  OD2       39.8150   21.7180    5.0050 O.co2 275  ASP275     -0.2456
     76  N         40.9580   14.7410    5.0650 N.3   279  SER279     -0.1217
     77  CA        41.1030   13.4180    5.6610 C.3   279  SER279      0.1889
     78  C         40.2480   12.3830    4.9300 C.2   279  SER279      0.2288
     79  O         40.7320   11.2920    4.5950 O.2   279  SER279     -0.2866
     80  CB        40.7490   13.4810    7.1520 C.3   279  SER279      0.2089
     81  OG        40.8630   12.2130    7.7770 O.3   279  SER279     -0.2183
     82  N         41.6070   11.3500    1.6110 N.3   282  LYS282     -0.1245
     83  CA        42.7610   10.4590    1.6470 C.3   282  LYS282      0.1561
     84  C         42.4510    9.0960    2.2440 C.2   282  LYS282      0.2260
     85  O         43.2580    8.1720    2.1010 O.2   282  LYS282     -0.2867
     86  CB        43.9030   11.0860    2.4530 C.3   282  LYS282      0.0271
     87  CG        44.1400   12.5370    2.1500 C.3   282  LYS282      0.0035
     88  CD        45.6160   12.8850    2.1880 C.3   282  LYS282      0.0206
     89  CE        46.0420   13.3170    3.5640 C.3   282  LYS282      0.1093
     90  NZ        47.3990   13.9390    3.5310 N.3   282  LYS282     -0.1314
@<TRIPOS>BOND
     1    67    65    1
     2    66    65    1
     3    65    64    2
     4    82    83    1
     5    83    84    1
     6    83    86    1
     7    85    84    2
     8    87    88    1
     9    87    86    1
    10    88    89    1
    11    64    63    1
    12    90    89    1
    13    63    62    1
    14    79    78    2
    15    78    77    1
    16    74    73   ar
    17    75    73   ar
    18    62    61    1
    19    76    77    1
    20    49    50    1
    21    73    72    1
    22    77    80    1
    23    61    58    1
    24    55    54   ar
    25    50    51    1
    26    50    53    1
    27    57    58    1
    28    57    51   am
    29    56    54   ar
    30    54    53    1
    31    58    59    1
    32    71    70    2
    33    72    69    1
    34    51    52    2
    35    80    81    1
    36    68    59   am
    37    68    69    1
    38    70    69    1
    39    59    60    2
    40     9     6    1
    41     5     6    1
    42     5     3   am
    43     6     7    1
    44     4     3    2
    45     3     2    1
    46     2     1    1
    47    48    47    1
    48    45    47   ar
    49    45    43   ar
    50     7     8    2
    51    47    46   ar
    52    36    35    1
    53    43    42   ar
    54    35    32    1
    55    30    27    1
    56    46    44   ar
    57    16    14    1
    58    27    26    1
    59    27    28    1
    60    15    14    1
    61    34    33    2
    62    42    44   ar
    63    42    41    1
    64    33    32    1
    65    33    37   am
    66    32    31    1
    67    26    19   am
    68    14    11    1
    69    29    28    2
    70    20    19    2
    71    21    22    1
    72    21    18    1
    73    10    11    1
    74    19    18    1
    75    37    38    1
    76    38    41    1
    77    38    39    1
    78    22    23    1
    79    11    12    1
    80    18    17    1
    81    40    39    2
    82    24    23   ar
    83    23    25   ar
    84    13    12    2
