@<TRIPOS>MOLECULE
tmp/6e90B01.pdb
 114 105 0 0 0
SMALL
GASTEIGER

@<TRIPOS>ATOM
      1  N         63.4760  212.2900   79.6710 N.3   118  LYS118     -0.1245
      2  CA        63.1070  213.6790   79.3870 C.3   118  LYS118      0.1561
      3  C         64.3370  214.5550   79.5680 C.2   118  LYS118      0.2260
      4  O         64.5980  215.0940   80.6420 O.2   118  LYS118     -0.2867
      5  CB        61.9490  214.1250   80.2640 C.3   118  LYS118      0.0271
      6  CG        60.7020  213.3360   79.9740 C.3   118  LYS118      0.0035
      7  CD        59.5120  213.7030   80.8710 C.3   118  LYS118      0.0206
      8  CE        58.3140  212.9280   80.4470 C.3   118  LYS118      0.1093
      9  NZ        57.0760  213.1810   81.2760 N.3   118  LYS118     -0.1314
     10  N         54.3610  211.6610   78.5410 N.3   147  GLY147     -0.1225
     11  CA        53.0120  212.0010   78.9240 C.3   147  GLY147      0.1811
     12  C         53.0100  212.7240   80.2480 C.2   147  GLY147      0.2280
     13  O         54.0500  212.9260   80.8780 O.2   147  GLY147     -0.2866
     14  N         52.6650  212.0990   83.4540 N.3   149  ASN149     -0.1225
     15  CA        52.8160  210.7930   84.1060 C.3   149  ASN149      0.1785
     16  C         53.5990  210.8680   85.4170 C.2   149  ASN149      0.2597
     17  O         54.5850  210.1540   85.5810 O.2   149  ASN149     -0.2718
     18  CB        53.5480  209.8250   83.1690 C.3   149  ASN149      0.1169
     19  CG        52.8370  209.6210   81.8880 C.2   149  ASN149      0.2627
     20  OD1       51.6040  209.6660   81.8380 O.2   149  ASN149     -0.2716
     21  ND2       53.6010  209.3850   80.8190 N.am  149  ASN149     -0.0877
     22  N         53.1610  211.6530   86.3780 N.am  150  ILE150     -0.1966
     23  CA        53.7880  211.6080   87.6840 C.3   150  ILE150      0.1727
     24  C         53.8180  210.1080   88.1180 C.2   150  ILE150      0.2616
     25  O         52.8370  209.4770   88.1900 O.2   150  ILE150     -0.2715
     26  CB        53.1120  212.5010   88.7250 C.3   150  ILE150      0.0290
     27  CG1       53.1000  213.9410   88.2590 C.3   150  ILE150      0.0022
     28  CG2       53.7820  212.3670   90.0920 C.3   150  ILE150      0.0023
     29  CD1       52.5490  214.8610   89.2690 C.3   150  ILE150      0.0001
     30  N         54.9950  209.5950   88.4160 N.am  151  ALA151     -0.1977
     31  CA        55.1570  208.1560   88.6260 C.3   151  ALA151      0.1597
     32  C         54.3080  207.6280   89.7960 C.2   151  ALA151      0.2287
     33  O         53.6570  206.5780   89.6960 O.2   151  ALA151     -0.2864
     34  CB        56.6440  207.8620   88.8730 C.3   151  ALA151      0.0319
     35  N         59.4590  220.7970   79.0410 N.3   202  LYS202     -0.1231
     36  CA        58.5100  221.1820   80.0800 C.3   202  LYS202      0.1693
     37  C         59.1410  221.2030   81.4750 C.2   202  LYS202      0.2592
     38  O         58.6160  221.8680   82.3800 O.2   202  LYS202     -0.2718
     39  CB        57.2950  220.2530   80.0460 C.3   202  LYS202      0.0285
     40  CG        57.6050  218.8100   80.2040 C.3   202  LYS202      0.0035
     41  CD        57.6410  218.4150   81.6800 C.3   202  LYS202      0.0206
     42  CE        57.8840  216.9180   81.8590 C.3   202  LYS202      0.1093
     43  NZ        57.8620  216.5160   83.3110 N.3   202  LYS202     -0.1314
     44  N         60.2380  220.4810   81.6830 N.am  203  ASN203     -0.1974
     45  CA        60.8700  220.5060   83.0010 C.3   203  ASN203      0.1688
     46  C         61.6150  221.8000   83.2700 C.2   203  ASN203      0.2292
     47  O         61.8840  222.1290   84.4410 O.2   203  ASN203     -0.2864
     48  CB        61.8500  219.3400   83.1560 C.3   203  ASN203      0.1181
     49  CG        61.1490  218.0180   83.4640 C.2   203  ASN203      0.2629
     50  OD1       60.0780  217.9940   84.0860 O.2   203  ASN203     -0.2716
     51  ND2       61.7500  216.9210   83.0480 N.am  203  ASN203     -0.0877
     52  N         51.3650  217.4960   80.0290 N.3   256  ASP256     -0.1239
     53  CA        52.5490  217.2240   80.8210 C.3   256  ASP256      0.1674
     54  C         53.0470  218.5080   81.4610 C.2   256  ASP256      0.2266
     55  O         53.4270  218.5280   82.6400 O.2   256  ASP256     -0.2867
     56  CB        53.6310  216.5850   79.9710 C.3   256  ASP256      0.1410
     57  CG        54.6890  215.8590   80.8200 C.2   256  ASP256      0.3668
     58  OD1       54.4700  215.6680   82.0580 O.co2 256  ASP256     -0.2456
     59  OD2       55.7280  215.4840   80.2450 O.co2 256  ASP256     -0.2456
     60  N         50.7340  219.0610   84.7310 N.3   259  THR259     -0.1203
     61  CA        50.9490  218.1830   85.8680 C.3   259  THR259      0.1994
     62  C         52.3210  218.4310   86.4780 C.2   259  THR259      0.2618
     63  O         52.4860  218.4200   87.7060 O.2   259  THR259     -0.2717
     64  CB        50.7910  216.7150   85.4480 C.3   259  THR259      0.1784
     65  OG1       50.5790  215.9190   86.6190 O.3   259  THR259     -0.2211
     66  CG2       52.0470  216.1600   84.7580 C.3   259  THR259      0.0376
     67  N         53.3070  218.6660   85.6330 N.am  260  THR260     -0.1952
     68  CA        54.6640  218.9160   86.1130 C.3   260  THR260      0.1897
     69  C         54.7410  220.2300   86.8730 C.2   260  THR260      0.2313
     70  O         55.3290  220.2930   87.9550 O.2   260  THR260     -0.2863
     71  CB        55.6720  218.9100   84.9400 C.3   260  THR260      0.1794
     72  OG1       55.6250  217.6290   84.3160 O.3   260  THR260     -0.2208
     73  CG2       57.0830  219.0860   85.4150 C.3   260  THR260      0.0378
     74  N         55.1130  218.0630   90.2650 N.3   264  GLY264     -0.1210
     75  CA        56.3460  217.3780   89.9350 C.3   264  GLY264      0.1956
     76  C         57.5530  217.7700   90.8400 C.2   264  GLY264      0.2612
     77  O         57.5190  218.6970   91.6590 O.2   264  GLY264     -0.2717
     78  N         58.6440  217.0300   90.6460 N.am  265  ARG265     -0.1965
     79  CA        59.8380  217.1540   91.4780 C.3   265  ARG265      0.1729
     80  C         60.6590  218.3870   91.1380 C.2   265  ARG265      0.2616
     81  O         61.1900  219.0330   92.0470 O.2   265  ARG265     -0.2715
     82  CB        60.6900  215.8820   91.3510 C.3   265  ARG265      0.0348
     83  CG        59.9060  214.6320   91.8170 C.3   265  ARG265      0.0492
     84  CD        60.5340  213.3360   91.3390 C.3   265  ARG265      0.2205
     85  NE        60.8170  213.3660   89.9190 N.pl3 265  ARG265     -0.0865
     86  CZ        61.6030  212.5030   89.2850 C.cat 265  ARG265      0.5346
     87  NH1       62.1570  211.4710   89.9160 N.pl3 265  ARG265      0.1354
     88  NH2       61.8310  212.6870   88.0020 N.pl3 265  ARG265      0.1354
     89  N         60.7780  218.7370   89.8480 N.am  266  ASN266     -0.1972
     90  CA        61.4950  219.9590   89.5050 C.3   266  ASN266      0.1688
     91  C         60.8580  221.1580   90.1700 C.2   266  ASN266      0.2292
     92  O         61.5560  222.0620   90.6440 O.2   266  ASN266     -0.2864
     93  CB        61.5350  220.1700   87.9920 C.3   266  ASN266      0.1181
     94  CG        62.4740  219.1930   87.2930 C.2   266  ASN266      0.2629
     95  OD1       63.6730  219.4270   87.2050 O.2   266  ASN266     -0.2716
     96  ND2       61.9190  218.0970   86.7870 N.am  266  ASN266     -0.0877
     97  N         66.2510  212.1990   90.7660 N.3   292  LYS292     -0.1245
     98  CA        67.0700  213.1040   89.9750 C.3   292  LYS292      0.1561
     99  C         66.2480  214.1810   89.2970 C.2   292  LYS292      0.2260
    100  O         65.2310  213.8990   88.6290 O.2   292  LYS292     -0.2867
    101  CB        67.8720  212.3240   88.9290 C.3   292  LYS292      0.0271
    102  CG        68.7690  211.3120   89.4950 C.3   292  LYS292      0.0035
    103  CD        69.8160  211.9010   90.4900 C.3   292  LYS292      0.0206
    104  CE        70.7180  210.8260   90.9990 C.3   292  LYS292      0.1093
    105  NZ        71.6610  211.3980   91.9660 N.3   292  LYS292     -0.1314
    106  N         65.7790  216.8550   86.4570 N.3   294  GLN294     -0.1245
    107  CA        66.0970  216.9260   85.0450 C.3   294  GLN294      0.1566
    108  C         66.0290  218.3370   84.4690 C.2   294  GLN294      0.2260
    109  O         66.7120  218.6100   83.4720 O.2   294  GLN294     -0.2867
    110  CB        65.1500  215.9940   84.2820 C.3   294  GLN294      0.0367
    111  CG        65.1360  214.5240   84.7850 C.3   294  GLN294      0.0905
    112  CD        66.3860  213.7600   84.3490 C.2   294  GLN294      0.2608
    113  OE1       66.3410  212.9150   83.4610 O.2   294  GLN294     -0.2717
    114  NE2       67.5050  214.0470   85.0010 N.am  294  GLN294     -0.0878
@<TRIPOS>BOND
     1    10    11    1
     2    11    12    1
     3    35    36    1
     4     2     3    1
     5     2     1    1
     6     2     5    1
     7     3     4    2
     8    56    57    1
     9    56    53    1
    10     6     5    1
    11     6     7    1
    12    52    53    1
    13    39    36    1
    14    39    40    1
    15    36    37    1
    16    40    41    1
    17    59    57   ar
    18    12    13    2
    19     8     7    1
    20     8     9    1
    21    21    19   am
    22    57    58   ar
    23    53    54    1
    24    54    55    2
    25    37    44   am
    26    37    38    2
    27    41    42    1
    28    44    45    1
    29    20    19    2
    30    42    43    1
    31    19    18    1
    32    45    48    1
    33    45    46    1
    34    51    49   am
    35    48    49    1
    36    18    15    1
    37    46    47    2
    38    14    15    1
    39   113   112    2
    40    49    50    2
    41   109   108    2
    42    15    16    1
    43   110   111    1
    44   110   107    1
    45    72    71    1
    46   112   111    1
    47   112   114   am
    48   108   107    1
    49    60    61    1
    50    66    64    1
    51    71    73    1
    52    71    68    1
    53   107   106    1
    54    16    17    2
    55    16    22   am
    56    64    61    1
    57    64    65    1
    58    67    68    1
    59    67    62   am
    60    61    62    1
    61    68    69    1
    62    22    23    1
    63    62    63    2
    64    96    94   am
    65    69    70    2
    66    95    94    2
    67    94    93    1
    68    23    24    1
    69    23    26    1
    70    93    90    1
    71    88    86    1
    72    24    25    2
    73    24    30   am
    74    27    26    1
    75    27    29    1
    76    30    31    1
    77    31    34    1
    78    31    32    1
    79   100    99    2
    80    26    28    1
    81   101   102    1
    82   101    98    1
    83    86    87    1
    84    86    85    2
    85    99    98    1
    86   102   103    1
    87    90    89    1
    88    90    91    1
    89    33    32    2
    90    89    80   am
    91    85    84    1
    92    75    74    1
    93    75    76    1
    94    98    97    1
    95    91    92    2
    96   103   104    1
    97    78    76   am
    98    78    79    1
    99    76    77    2
   100   104   105    1
   101    80    79    1
   102    80    81    2
   103    84    83    1
   104    82    79    1
   105    82    83    1
