@<TRIPOS>MOLECULE
tmp/6e99A00.pdb
 187 179 0 0 0
SMALL
GASTEIGER

@<TRIPOS>ATOM
      1  N         -5.7840    2.3240   -8.4700 N.3    32  LEU32      -0.1231
      2  CA        -6.3050    2.1210   -9.8280 C.3    32  LEU32       0.1693
      3  C         -5.2790    2.4780  -10.9170 C.2    32  LEU32       0.2593
      4  O         -5.4040    2.0080  -12.0470 O.2    32  LEU32      -0.2718
      5  CB        -7.5960    2.9420  -10.0500 C.3    32  LEU32       0.0284
      6  CG        -8.8040    2.6160   -9.1570 C.3    32  LEU32       0.0019
      7  CD1       -9.8270    3.7300   -9.2090 C.3    32  LEU32       0.0001
      8  CD2       -9.4520    1.2920   -9.5560 C.3    32  LEU32       0.0001
      9  N         -4.3140    3.3300  -10.5730 N.am   33  GLY33      -0.1942
     10  CA        -3.2700    3.8020  -11.4770 C.3    33  GLY33       0.2014
     11  C         -2.3010    4.7620  -10.8180 C.2    33  GLY33       0.2640
     12  O         -2.5320    5.2080   -9.6900 O.2    33  GLY33      -0.2714
     13  N         -1.1980    5.0820  -11.5220 N.am   34  THR34      -0.1936
     14  CA        -0.1450    5.9790  -11.0210 C.3    34  THR34       0.2028
     15  C          0.1690    7.1120  -12.0130 C.2    34  THR34       0.2643
     16  O         -0.1840    7.0300  -13.1920 O.2    34  THR34      -0.2714
     17  CB         1.1440    5.1900  -10.7010 C.3    34  THR34       0.1808
     18  OG1        1.6020    4.5460  -11.8900 O.3    34  THR34      -0.2208
     19  CG2        0.9700    4.1770   -9.5680 C.3    34  THR34       0.0379
     20  N          0.8540    8.1340  -11.5140 N.am   35  GLY35      -0.1939
     21  CA         1.3000    9.3000  -12.2680 C.3    35  GLY35       0.2014
     22  C          2.5910    9.8600  -11.7010 C.2    35  GLY35       0.2640
     23  O          3.0700    9.3750  -10.6730 O.2    35  GLY35      -0.2714
     24  N          3.1480   10.9060  -12.3450 N.am   36  SER36      -0.1935
     25  CA         4.4120   11.5360  -11.9390 C.3    36  SER36       0.2055
     26  C          4.4620   12.0190  -10.4810 C.2    36  SER36       0.2643
     27  O          5.4930   11.8300   -9.8260 O.2    36  SER36      -0.2714
     28  CB         4.7790   12.6860  -12.8750 C.3    36  SER36       0.2130
     29  OG         4.7840   12.2970  -14.2390 O.3    36  SER36      -0.2179
     30  N          3.3660   12.6400   -9.9720 N.am   37  PHE37      -0.1959
     31  CA         3.3550   13.1930   -8.6100 C.3    37  PHE37       0.1774
     32  C          2.4390   12.4730   -7.6090 C.2    37  PHE37       0.2659
     33  O          2.2150   12.9900   -6.5120 O.2    37  PHE37      -0.2711
     34  CB         3.0320   14.7020   -8.6330 C.3    37  PHE37       0.0574
     35  CG         3.7270   15.4880   -9.7210 C.ar   37  PHE37      -0.0200
     36  CD1        5.1040   15.3950   -9.9010 C.ar   37  PHE37      -0.0042
     37  CD2        3.0070   16.3320  -10.5570 C.ar   37  PHE37      -0.0042
     38  CE1        5.7360   16.0950  -10.9290 C.ar   37  PHE37      -0.0003
     39  CE2        3.6430   17.0410  -11.5780 C.ar   37  PHE37      -0.0003
     40  CZ         5.0040   16.9220  -11.7520 C.ar   37  PHE37      -0.0000
     41  N          1.9570   11.2870   -7.9590 N.am   38  GLY38      -0.1716
     42  CA         1.0940   10.5400   -7.0550 C.2    38  GLY38       0.1480
     43  C          0.3950    9.3450   -7.6510 C.2    38  GLY38       0.2820
     44  O          0.9870    8.5980   -8.4370 O.2    38  GLY38      -0.2669
     45  N         -0.8750    9.1480   -7.2460 N.am   39  ARG39      -0.1929
     46  CA        -1.6800    7.9990   -7.6600 C.3    39  ARG39       0.1732
     47  C         -3.1880    8.2770   -7.6780 C.2    39  ARG39       0.2616
     48  O         -3.6500    9.2840   -7.1230 O.2    39  ARG39      -0.2715
     49  CB        -1.3590    6.7930   -6.7460 C.3    39  ARG39       0.0348
     50  CG        -1.8200    6.9510   -5.2860 C.3    39  ARG39       0.0492
     51  CD        -0.9170    6.2600   -4.2740 C.3    39  ARG39       0.2205
     52  NE        -0.7930    4.8240   -4.5120 N.pl3  39  ARG39      -0.0865
     53  CZ         0.3390    4.2090   -4.8400 C.cat  39  ARG39       0.5346
     54  NH1        1.4690    4.8960   -4.9540 N.pl3  39  ARG39       0.1354
     55  NH2        0.3530    2.9010   -5.0460 N.pl3  39  ARG39       0.1354
     56  N         -3.9500    7.3580   -8.2990 N.am   40  VAL40      -0.1977
     57  CA        -5.4180    7.3740   -8.3500 C.3    40  VAL40       0.1596
     58  C         -5.8830    6.1440   -7.5720 C.2    40  VAL40       0.2287
     59  O         -5.4770    5.0240   -7.8960 O.2    40  VAL40      -0.2864
     60  CB        -5.9970    7.3960   -9.7940 C.3    40  VAL40       0.0276
     61  CG1       -7.5280    7.4050   -9.7820 C.3    40  VAL40       0.0022
     62  CG2       -5.4720    8.5900  -10.5770 C.3    40  VAL40       0.0022
     63  N        -13.2470    7.6970   -7.3670 N.3    53  ALA53      -0.1245
     64  CA       -11.8390    7.6210   -7.7760 C.3    53  ALA53       0.1562
     65  C        -11.1600    8.9020   -7.2460 C.2    53  ALA53       0.2260
     66  O        -11.5880   10.0060   -7.5910 O.2    53  ALA53      -0.2867
     67  CB       -11.7250    7.5430   -9.3000 C.3    53  ALA53       0.0290
     68  N         -7.7680   11.1930   -6.9390 N.3    55  LYS55      -0.1245
     69  CA        -6.4430   11.5610   -7.4660 C.3    55  LYS55       0.1561
     70  C         -5.6920   12.3020   -6.3430 C.2    55  LYS55       0.2260
     71  O         -6.1950   13.3060   -5.8180 O.2    55  LYS55      -0.2867
     72  CB        -6.5610   12.4210   -8.7490 C.3    55  LYS55       0.0271
     73  CG        -5.2150   12.8590   -9.3540 C.3    55  LYS55       0.0035
     74  CD        -5.3550   13.4650  -10.7580 C.3    55  LYS55       0.0206
     75  CE        -4.0220   13.9810  -11.2660 C.3    55  LYS55       0.1093
     76  NZ        -4.0710   14.4040  -12.7020 N.3    55  LYS55      -0.1314
     77  N         -2.0590   14.1610   -5.1450 N.3    57  LEU57      -0.1245
     78  CA        -0.8290   14.8080   -5.6250 C.3    57  LEU57       0.1561
     79  C          0.0350   15.3110   -4.4630 C.2    57  LEU57       0.2260
     80  O         -0.4600   16.0530   -3.6120 O.2    57  LEU57      -0.2867
     81  CB        -1.1390   15.9760   -6.5910 C.3    57  LEU57       0.0270
     82  CG        -1.9720   15.6840   -7.8550 C.3    57  LEU57       0.0019
     83  CD1       -2.3600   16.9850   -8.5610 C.3    57  LEU57       0.0001
     84  CD2       -1.2080   14.8120   -8.8350 C.3    57  LEU57       0.0001
     85  N        -15.5330   13.3250  -17.2620 N.3    87  VAL87      -0.1245
     86  CA       -15.6140   12.7810  -15.8930 C.3    87  VAL87       0.1561
     87  C        -15.9360   13.9480  -14.9270 C.2    87  VAL87       0.2260
     88  O        -15.4160   15.0510  -15.0990 O.2    87  VAL87      -0.2867
     89  CB       -14.3840   11.9210  -15.4680 C.3    87  VAL87       0.0252
     90  CG1      -13.1340   12.7710  -15.2710 C.3    87  VAL87       0.0019
     91  CG2      -14.6790   11.1030  -14.2140 C.3    87  VAL87       0.0019
     92  N        -13.3910   12.2190   -7.8900 N.3   103  MET103     -0.1230
     93  CA       -14.1960   12.1190   -9.1120 C.3   103  MET103      0.1702
     94  C        -15.1400   10.9240   -9.0970 C.2   103  MET103      0.2592
     95  O        -14.9460    9.9840   -8.3200 O.2   103  MET103     -0.2718
     96  CB       -13.2680   11.9490  -10.3320 C.3   103  MET103      0.0401
     97  CG       -12.4820   13.1790  -10.7080 C.3   103  MET103      0.0596
     98  SD       -11.0350   12.6570  -11.6580 S.3   103  MET103     -0.1393
     99  CE        -9.8560   12.5190  -10.3600 C.3   103  MET103      0.0692
    100  N        -16.1110   10.9160  -10.0340 N.am  104  GLU104     -0.1966
    101  CA       -17.0200    9.7830  -10.2170 C.3   104  GLU104      0.1733
    102  C        -16.1620    8.5650  -10.6540 C.2   104  GLU104      0.2616
    103  O        -15.2410    8.7330  -11.4580 O.2   104  GLU104     -0.2715
    104  CB       -18.0670   10.1160  -11.2950 C.3   104  GLU104      0.0429
    105  CG       -19.0900    9.0100  -11.5400 C.3   104  GLU104      0.1163
    106  CD       -20.0440    9.2280  -12.7020 C.2   104  GLU104      0.3649
    107  OE1      -20.2200    8.2830  -13.5040 O.co2 104  GLU104     -0.2457
    108  OE2      -20.6120   10.3380  -12.8140 O.co2 104  GLU104     -0.2457
    109  N        -16.4290    7.3730  -10.0900 N.am  105  TYR105     -0.1960
    110  CA       -15.6830    6.1570  -10.4430 C.3   105  TYR105      0.1771
    111  C        -16.2130    5.5490  -11.7520 C.2   105  TYR105      0.2619
    112  O        -17.4250    5.3850  -11.9010 O.2   105  TYR105     -0.2715
    113  CB       -15.7140    5.1340   -9.2820 C.3   105  TYR105      0.0574
    114  CG       -15.0930    3.7820   -9.5840 C.ar  105  TYR105     -0.0198
    115  CD1      -13.8000    3.6820  -10.0960 C.ar  105  TYR105     -0.0009
    116  CD2      -15.7750    2.6000   -9.3010 C.ar  105  TYR105     -0.0009
    117  CE1      -13.2270    2.4420  -10.3790 C.ar  105  TYR105      0.0417
    118  CE2      -15.2020    1.3530   -9.5590 C.ar  105  TYR105      0.0417
    119  CZ       -13.9230    1.2790  -10.0890 C.ar  105  TYR105      0.1957
    120  OH       -13.3480    0.0590  -10.3510 O.3   105  TYR105     -0.2866
    121  N        -15.3040    5.2340  -12.7030 N.am  106  VAL106     -0.1977
    122  CA       -15.6750    4.6160  -13.9860 C.3   106  VAL106      0.1596
    123  C        -15.1560    3.1510  -13.9820 C.2   106  VAL106      0.2287
    124  O        -13.9720    2.9200  -14.2520 O.2   106  VAL106     -0.2864
    125  CB       -15.2630    5.4500  -15.2400 C.3   106  VAL106      0.0276
    126  CG1      -15.8970    4.8740  -16.5020 C.3   106  VAL106      0.0022
    127  CG2      -15.6540    6.9220  -15.0890 C.3   106  VAL106      0.0022
    128  N        -10.0640    1.7920  -18.8830 N.3   110  GLU110     -0.1196
    129  CA        -9.5900    2.6270  -19.9960 C.3   110  GLU110      0.1783
    130  C         -9.8250    1.9510  -21.3450 C.2   110  GLU110      0.2306
    131  O         -9.6680    0.7290  -21.4510 O.2   110  GLU110     -0.2863
    132  CB        -8.0780    2.9140  -19.8460 C.2   110  GLU110      0.0071
    133  CG        -7.6530    3.4690  -18.4920 C.2   110  GLU110      0.0834
    134  CD        -6.1770    3.3770  -18.1480 C.2   110  GLU110      0.3877
    135  OE1       -5.3610    3.0150  -19.0290 O.co2 110  GLU110     -0.2406
    136  OE2       -5.8360    3.6820  -16.9820 O.co2 110  GLU110     -0.2406
    137  N         -5.6410    5.9450  -23.4130 N.3   153  GLU153     -0.1231
    138  CA        -5.3720    5.8240  -21.9760 C.3   153  GLU153      0.1699
    139  C         -6.2770    6.7580  -21.1290 C.2   153  GLU153      0.2592
    140  O         -6.6400    6.3900  -20.0180 O.2   153  GLU153     -0.2718
    141  CB        -3.8790    6.0860  -21.6700 C.3   153  GLU153      0.0402
    142  CG        -2.9240    5.0350  -22.2310 C.3   153  GLU153      0.1161
    143  CD        -2.3050    5.3130  -23.5930 C.2   153  GLU153      0.3649
    144  OE1       -3.0310    5.7540  -24.5140 O.co2 153  GLU153     -0.2457
    145  OE2       -1.0880    5.0620  -23.7430 O.co2 153  GLU153     -0.2457
    146  N         -6.6600    7.9400  -21.6720 N.am  154  ASN154     -0.1974
    147  CA        -7.4760    8.9550  -20.9820 C.3   154  ASN154      0.1688
    148  C         -8.9990    8.8480  -21.2410 C.2   154  ASN154      0.2292
    149  O         -9.7680    9.6780  -20.7280 O.2   154  ASN154     -0.2864
    150  CB        -6.9500   10.3730  -21.3230 C.3   154  ASN154      0.1181
    151  CG        -5.6100   10.6850  -20.6930 C.2   154  ASN154      0.2629
    152  OD1       -5.1420    9.9840  -19.7910 O.2   154  ASN154     -0.2716
    153  ND2       -4.9580   11.7500  -21.1420 N.am  154  ASN154     -0.0877
    154  N        -12.2530    6.7190  -20.5530 N.3   156  LEU156     -0.1245
    155  CA       -12.8610    5.6690  -19.7210 C.3   156  LEU156      0.1561
    156  C        -14.2280    5.2430  -20.2520 C.2   156  LEU156      0.2260
    157  O        -14.9860    6.0920  -20.7120 O.2   156  LEU156     -0.2867
    158  CB       -12.9640    6.1340  -18.2560 C.3   156  LEU156      0.0270
    159  CG       -11.6750    6.6900  -17.6250 C.3   156  LEU156      0.0019
    160  CD1      -11.9880    7.5360  -16.4200 C.3   156  LEU156      0.0001
    161  CD2      -10.7000    5.5770  -17.2680 C.3   156  LEU156      0.0001
    162  N        -10.8830   11.8350  -19.0340 N.3   166  THR166     -0.1203
    163  CA       -10.2050   12.1470  -17.7660 C.3   166  THR166      0.1994
    164  C         -8.8410   12.8480  -18.0050 C.2   166  THR166      0.2617
    165  O         -8.4240   12.9930  -19.1520 O.2   166  THR166     -0.2717
    166  CB       -10.1120   10.8920  -16.8640 C.3   166  THR166      0.1784
    167  OG1       -9.7960   11.3080  -15.5340 O.3   166  THR166     -0.2211
    168  CG2       -9.0760    9.8690  -17.3560 C.3   166  THR166      0.0376
    169  N         -8.1550   13.2600  -16.9110 N.am  167  ASP167     -0.1973
    170  CA        -6.8320   13.9080  -16.8830 C.3   167  ASP167      0.1709
    171  C         -6.7770   15.2590  -17.6200 C.2   167  ASP167      0.2293
    172  O         -6.3580   15.3430  -18.7840 O.2   167  ASP167     -0.2864
    173  CB        -5.6960   12.9660  -17.3630 C.3   167  ASP167      0.1436
    174  CG        -4.2940   13.4140  -16.9560 C.2   167  ASP167      0.3671
    175  OD1       -4.1470   14.5630  -16.4760 O.co2 167  ASP167     -0.2456
    176  OD2       -3.3450   12.6200  -17.1180 O.co2 167  ASP167     -0.2456
    177  N         -9.2500   -3.0430  -14.2630 N.3   309  PHE309     -0.1241
    178  CA        -8.0190   -2.2840  -14.0060 C.3   309  PHE309      0.1605
    179  C         -6.8620   -3.2100  -13.6260 C.2   309  PHE309      0.2264
    180  O         -7.0900   -4.2670  -13.0340 O.2   309  PHE309     -0.2867
    181  CB        -8.2350   -1.2400  -12.8910 C.3   309  PHE309      0.0534
    182  CG        -9.1730   -0.1140  -13.2510 C.ar  309  PHE309     -0.0203
    183  CD1       -8.6920    1.0560  -13.8270 C.ar  309  PHE309     -0.0042
    184  CD2      -10.5370   -0.2160  -13.0020 C.ar  309  PHE309     -0.0042
    185  CE1       -9.5620    2.0970  -14.1630 C.ar  309  PHE309     -0.0003
    186  CE2      -11.4060    0.8250  -13.3360 C.ar  309  PHE309     -0.0003
    187  CZ       -10.9110    1.9740  -13.9120 C.ar  309  PHE309     -0.0000
@<TRIPOS>BOND
     1   144   143   ar
     2   145   143   ar
     3   143   142    1
     4   137   138    1
     5   142   141    1
     6   138   141    1
     7   138   139    1
     8   146   139   am
     9   146   147    1
    10   131   130    2
    11   130   129    1
    12   150   147    1
    13   150   151    1
    14   148   147    1
    15   148   149    2
    16   153   151   am
    17   139   140    2
    18   157   156    2
    19   151   152    2
    20   154   155    1
    21   156   155    1
    22   129   132    1
    23   129   128    1
    24   132   133    2
    25   155   158    1
    26   165   164    2
    27   162   163    1
    28   135   134   ar
    29   172   171    2
    30   133   134    1
    31   158   159    1
    32   134   136   ar
    33   164   163    1
    34   164   169   am
    35   163   166    1
    36   159   161    1
    37   159   160    1
    38   171   170    1
    39   173   174    1
    40   173   170    1
    41   168   166    1
    42    85    86    1
    43   176   174   ar
    44   174   175   ar
    45   169   170    1
    46   166   167    1
    47   126   125    1
    48    86    89    1
    49    86    87    1
    50    89    90    1
    51    89    91    1
    52   125   127    1
    53   125   122    1
    54    88    87    2
    55   177   178    1
    56   124   123    2
    57    29    28    1
    58   185   187   ar
    59   185   183   ar
    60   178   179    1
    61   178   181    1
    62   122   123    1
    63   122   121    1
    64   187   186   ar
    65   183   182   ar
    66   179   180    2
    67   107   106   ar
    68   186   184   ar
    69   182   184   ar
    70   182   181    1
    71    16    15    2
    72    28    25    1
    73   108   106   ar
    74   121   111   am
    75    76    75    1
    76   106   105    1
    77    24    25    1
    78    24    22   am
    79    21    22    1
    80    21    20    1
    81     4     3    2
    82    15    20   am
    83    15    14    1
    84    25    26    1
    85   112   111    2
    86    18    17    1
    87    40    39   ar
    88    40    38   ar
    89   111   110    1
    90    22    23    2
    91    98    97    1
    92    98    99    1
    93    39    37   ar
    94   105   104    1
    95    13    14    1
    96    13    11   am
    97    10    11    1
    98    10     9    1
    99   103   102    2
   100   104   101    1
   101    75    74    1
   102    14    17    1
   103    38    36   ar
   104     3     9   am
   105     3     2    1
   106    11    12    2
   107    74    73    1
   108    97    96    1
   109    17    19    1
   110   102   101    1
   111   102   109   am
   112    62    60    1
   113    37    35   ar
   114    26    30   am
   115    26    27    2
   116   110   109    1
   117   110   113    1
   118   117   115   ar
   119   117   119   ar
   120   120   119    1
   121    96    93    1
   122   101   100    1
   123   115   114   ar
   124   119   118   ar
   125     5     2    1
   126     5     6    1
   127   100    94   am
   128    30    31    1
   129    36    35   ar
   130     2     1    1
   131    60    61    1
   132    60    57    1
   133    35    34    1
   134   114   116   ar
   135   114   113    1
   136   118   116   ar
   137     8     6    1
   138    73    72    1
   139    67    64    1
   140     7     6    1
   141    93    94    1
   142    93    92    1
   143    94    95    2
   144    84    82    1
   145    72    69    1
   146    34    31    1
   147    31    32    1
   148    83    82    1
   149    44    43    2
   150    57    56    1
   151    57    58    1
   152    56    47   am
   153    41    32    1
   154    41    42    2
   155    59    58    2
   156    82    81    1
   157    64    63    1
   158    64    65    1
   159    47    46    1
   160    47    48    2
   161    46    45    1
   162    46    49    1
   163    43    45   am
   164    43    42    1
   165    32    33    2
   166    66    65    2
   167    69    68    1
   168    69    70    1
   169    49    50    1
   170    81    78    1
   171    70    71    2
   172    78    77    1
   173    78    79    1
   174    50    51    1
   175    55    53    1
   176    54    53    1
   177    53    52    2
   178    52    51    1
   179    79    80    2
