@<TRIPOS>MOLECULE
tmp/6e9aB00.pdb
 101 95 0 0 0
SMALL
GASTEIGER

@<TRIPOS>ATOM
      1  N         17.3050   26.2580   28.1920 N.3    23  LEU23      -0.1245
      2  CA        16.8940   27.2260   27.1740 C.3    23  LEU23       0.1561
      3  C         15.4100   27.1040   26.9390 C.2    23  LEU23       0.2260
      4  O         14.9260   25.9970   26.6350 O.2    23  LEU23      -0.2867
      5  CB        17.7430   26.8860   25.9190 C.3    23  LEU23       0.0270
      6  CG        17.5920   27.7280   24.7080 C.3    23  LEU23       0.0019
      7  CD1       18.1150   29.1090   24.9220 C.3    23  LEU23       0.0001
      8  CD2       18.3780   27.0140   23.5860 C.3    23  LEU23       0.0001
      9  N         12.5460   27.0960   24.6520 N.3    25  ASP25      -0.1239
     10  CA        12.6480   26.8260   23.2180 C.3    25  ASP25       0.1674
     11  C         11.3340   26.5740   22.5420 C.2    25  ASP25       0.2266
     12  O         10.7930   25.4600   22.5150 O.2    25  ASP25      -0.2867
     13  CB        13.5570   25.5880   23.1140 C.3    25  ASP25       0.1410
     14  CG        13.9890   25.3640   21.6720 C.2    25  ASP25       0.3668
     15  OD1       13.4400   26.0570   20.7580 O.co2  25  ASP25      -0.2456
     16  OD2       14.8560   24.4880   21.5000 O.co2  25  ASP25      -0.2456
     17  N         10.7000   26.4160   19.4760 N.3    27  GLY27      -0.1210
     18  CA        10.8990   25.5220   18.3350 C.3    27  GLY27       0.1956
     19  C         11.0520   24.0670   18.6980 C.2    27  GLY27       0.2612
     20  O         11.2210   23.2330   17.7820 O.2    27  GLY27      -0.2717
     21  N         10.9450   23.7000   19.9600 N.am   28  ALA28      -0.1965
     22  CA        11.0060   22.3260   20.4040 C.3    28  ALA28       0.1728
     23  C          9.6560   21.8400   20.8670 C.2    28  ALA28       0.2616
     24  O          9.0610   22.4090   21.7730 O.2    28  ALA28      -0.2715
     25  CB        11.9930   22.2470   21.5660 C.3    28  ALA28       0.0334
     26  N          9.1680   20.7410   20.2410 N.am   29  ASP29      -0.1957
     27  CA         7.9370   20.1610   20.7290 C.3    29  ASP29       0.1840
     28  C          8.0770   19.6480   22.1590 C.2    29  ASP29       0.2622
     29  O          7.1190   19.7470   22.9580 O.2    29  ASP29      -0.2715
     30  CB         7.5210   18.9650   19.8620 C.3    29  ASP29       0.1450
     31  CG         7.2900   19.2390   18.4010 C.2    29  ASP29       0.3671
     32  OD1        6.9970   20.3740   17.9840 O.co2  29  ASP29      -0.2456
     33  OD2        7.4320   18.2170   17.6710 O.co2  29  ASP29      -0.2456
     34  N          9.2700   19.1070   22.4150 N.am   30  ASP30      -0.1971
     35  CA         9.6100   18.2870   23.5700 C.3    30  ASP30       0.1709
     36  C         10.7480   18.8670   24.4000 C.2    30  ASP30       0.2293
     37  O         11.6060   19.5370   23.8230 O.2    30  ASP30      -0.2864
     38  CB        10.1230   16.9010   23.0930 C.3    30  ASP30       0.1436
     39  CG         9.2270   16.1990   22.1130 C.2    30  ASP30       0.3671
     40  OD1        8.0170   16.0380   22.4240 O.co2  30  ASP30      -0.2456
     41  OD2        9.7070   15.7680   21.0300 O.co2  30  ASP30      -0.2456
     42  N         14.1300   18.3020   26.4120 N.3    32  VAL32      -0.1245
     43  CA        15.2600   17.3620   26.3500 C.3    32  VAL32       0.1561
     44  C         16.3350   17.8720   27.2850 C.2    32  VAL32       0.2260
     45  O         16.7990   19.0110   27.1930 O.2    32  VAL32      -0.2867
     46  CB        15.8880   17.2320   24.9440 C.3    32  VAL32       0.0252
     47  CG1       16.8610   16.0560   24.9800 C.3    32  VAL32       0.0019
     48  CG2       14.8380   17.0690   23.8810 C.3    32  VAL32       0.0019
     49  N         13.7600   11.5040   18.2600 N.3    47  ILE47      -0.1231
     50  CA        13.4060   12.9100   17.9630 C.3    47  ILE47       0.1692
     51  C         14.3130   13.4020   16.8610 C.2    47  ILE47       0.2593
     52  O         15.4540   12.9710   16.7550 O.2    47  ILE47      -0.2718
     53  CB        13.5790   13.7800   19.2300 C.3    47  ILE47       0.0266
     54  CG1       14.9930   13.6880   19.8100 C.3    47  ILE47       0.0019
     55  CG2       12.4910   13.3900   20.2140 C.3    47  ILE47       0.0020
     56  CD1       15.2220   14.5990   20.9940 C.3    47  ILE47       0.0001
     57  N         13.7910   14.3300   16.0620 N.am   48  GLY48      -0.1942
     58  CA        14.5390   14.8470   14.9290 C.3    48  GLY48       0.2014
     59  C         14.8450   16.3080   15.1250 C.2    48  GLY48       0.2639
     60  O         13.9510   17.1410   15.3610 O.2    48  GLY48      -0.2714
     61  N         16.1220   16.6190   15.0000 N.am   49  GLY49      -0.1939
     62  CA        16.5850   17.9690   15.1140 C.3    49  GLY49       0.2014
     63  C         17.2780   18.3850   13.8060 C.2    49  GLY49       0.2638
     64  O         17.1620   17.7750   12.7160 O.2    49  GLY49      -0.2714
     65  N         18.0180   19.4750   13.9500 N.am   50  ILE50      -0.1977
     66  CA        18.6110   20.0660   12.7580 C.3    50  ILE50       0.1596
     67  C         19.5060   19.0810   12.0330 C.2    50  ILE50       0.2287
     68  O         19.5120   19.1440   10.8070 O.2    50  ILE50      -0.2864
     69  CB        19.4210   21.3380   13.1320 C.3    50  ILE50       0.0276
     70  CG1       19.7410   22.1480   11.8790 C.3    50  ILE50       0.0022
     71  CG2       20.6420   20.9720   13.9570 C.3    50  ILE50       0.0022
     72  CD1       19.0500   23.4860   11.8400 C.3    50  ILE50       0.0001
     73  N         22.3880   16.5950   23.9730 N.3    80  THR80      -0.1204
     74  CA        21.8390   17.8080   23.3860 C.3    80  THR80       0.1979
     75  C         22.8350   18.9440   23.5520 C.2    80  THR80       0.2460
     76  O         23.6210   18.9050   24.5060 O.2    80  THR80      -0.2732
     77  CB        20.4460   18.0960   24.0000 C.3    80  THR80       0.1783
     78  OG1       19.9990   19.3790   23.5240 O.3    80  THR80      -0.2211
     79  CG2       20.4440   18.1390   25.5170 C.3    80  THR80       0.0376
     80  N         22.9070   19.9850   22.7460 N.am   81  PRO81      -0.2717
     81  CA        23.9670   20.9730   22.9960 C.3    81  PRO81       0.1535
     82  C         23.6880   21.7380   24.2890 C.2    81  PRO81       0.2598
     83  O         24.6140   22.2870   24.8550 O.2    81  PRO81      -0.2715
     84  CB        23.8720   21.9170   21.7940 C.3    81  PRO81       0.0310
     85  CG        22.4550   21.7300   21.3220 C.3    81  PRO81       0.0237
     86  CD        22.0710   20.3080   21.5800 C.3    81  PRO81       0.0939
     87  N         22.4260   21.7810   24.7150 N.am   82  VAL82      -0.1978
     88  CA        21.9430   22.5330   25.8710 C.3    82  VAL82       0.1596
     89  C         20.6570   21.8550   26.2930 C.2    82  VAL82       0.2287
     90  O         19.9200   21.2270   25.5220 O.2    82  VAL82      -0.2864
     91  CB        21.8200   24.0470   25.5870 C.3    82  VAL82       0.0276
     92  CG1       20.8120   24.4280   24.5350 C.3    82  VAL82       0.0022
     93  CG2       21.4680   24.8000   26.8750 C.3    82  VAL82       0.0022
     94  N         16.9180   21.8220   26.9110 N.3    84  ILE84      -0.1245
     95  CA        15.8890   22.6290   26.2400 C.3    84  ILE84       0.1561
     96  C         14.5190   22.3520   26.8620 C.2    84  ILE84       0.2260
     97  O         14.1350   21.1940   27.0760 O.2    84  ILE84      -0.2867
     98  CB        15.9240   22.3800   24.7130 C.3    84  ILE84       0.0252
     99  CG1       15.7540   20.9470   24.2510 C.3    84  ILE84       0.0019
    100  CG2       17.2090   22.9190   24.1090 C.3    84  ILE84       0.0019
    101  CD1       15.8460   20.7770   22.7360 C.3    84  ILE84       0.0001
@<TRIPOS>BOND
     1    68    67    2
     2    72    70    1
     3    70    69    1
     4    67    66    1
     5    64    63    2
     6    66    69    1
     7    66    65    1
     8    69    71    1
     9    63    65   am
    10    63    62    1
    11    58    59    1
    12    58    57    1
    13    61    62    1
    14    61    59   am
    15    59    60    2
    16    57    51   am
    17    52    51    2
    18    51    50    1
    19    33    31   ar
    20    20    19    2
    21    50    49    1
    22    50    53    1
    23    32    31   ar
    24    18    19    1
    25    18    17    1
    26    31    30    1
    27    19    21   am
    28    53    54    1
    29    53    55    1
    30    54    56    1
    31    30    27    1
    32    21    22    1
    33    26    27    1
    34    26    23   am
    35    22    23    1
    36    22    25    1
    37    27    28    1
    38    15    14   ar
    39    23    24    2
    40    41    39   ar
    41    85    86    1
    42    85    84    1
    43    16    14   ar
    44    86    80    1
    45    14    13    1
    46    84    81    1
    47    39    40   ar
    48    39    38    1
    49    28    34   am
    50    28    29    2
    51    34    35    1
    52    12    11    2
    53    11    10    1
    54   101    99    1
    55    80    81    1
    56    80    75   am
    57    81    82    1
    58    38    35    1
    59    13    10    1
    60    10     9    1
    61    74    75    1
    62    74    73    1
    63    74    77    1
    64    78    77    1
    65    75    76    2
    66    35    36    1
    67     8     6    1
    68    37    36    2
    69    48    46    1
    70    77    79    1
    71   100    98    1
    72    99    98    1
    73    82    87   am
    74    82    83    2
    75    92    91    1
    76     6     7    1
    77     6     5    1
    78    98    95    1
    79    87    88    1
    80    46    47    1
    81    46    43    1
    82    90    89    2
    83    91    88    1
    84    91    93    1
    85    88    89    1
    86     5     2    1
    87    95    96    1
    88    95    94    1
    89    43    42    1
    90    43    44    1
    91     4     3    2
    92    96    97    2
    93     3     2    1
    94     2     1    1
    95    45    44    2
