@<TRIPOS>MOLECULE
tmp/6e9lA00.pdb
 204 196 0 0 0
SMALL
GASTEIGER

@<TRIPOS>ATOM
      1  N        -27.4190  -15.5470   -8.5200 N.3    33  LEU33      -0.1231
      2  CA       -27.5370  -14.1070   -8.7330 C.3    33  LEU33       0.1693
      3  C        -26.2890  -13.3470   -8.3090 C.2    33  LEU33       0.2593
      4  O        -26.0730  -12.2150   -8.7500 O.2    33  LEU33      -0.2718
      5  CB       -28.7420  -13.5710   -7.9530 C.3    33  LEU33       0.0284
      6  CG       -30.0220  -14.3950   -8.0040 C.3    33  LEU33       0.0019
      7  CD1      -30.9590  -14.0000   -6.8730 C.3    33  LEU33       0.0001
      8  CD2      -30.6890  -14.2990   -9.3790 C.3    33  LEU33       0.0001
      9  N        -25.4980  -13.9590   -7.4380 N.am   34  GLY34      -0.1942
     10  CA       -24.2800  -13.3590   -6.9090 C.3    34  GLY34       0.2014
     11  C        -23.4220  -14.3150   -6.1110 C.2    34  GLY34       0.2640
     12  O        -23.8960  -15.3490   -5.6220 O.2    34  GLY34      -0.2714
     13  N        -22.1520  -13.9300   -5.9440 N.am   35  THR35      -0.1936
     14  CA       -21.1350  -14.7070   -5.2510 C.3    35  THR35       0.2028
     15  C        -20.4140  -13.8380   -4.1630 C.2    35  THR35       0.2643
     16  O        -20.6450  -12.6140   -4.0700 O.2    35  THR35      -0.2714
     17  CB       -20.2470  -15.3470   -6.3160 C.3    35  THR35       0.1808
     18  OG1      -19.9650  -16.6920   -5.9580 O.3    35  THR35      -0.2208
     19  CG2      -18.9820  -14.5350   -6.6350 C.3    35  THR35       0.0379
     20  N        -19.6050  -14.5070   -3.3350 N.am   36  GLY36      -0.1939
     21  CA       -18.8690  -13.9000   -2.2350 C.3    36  GLY36       0.2014
     22  C        -17.9560  -14.8620   -1.4970 C.2    36  GLY36       0.2640
     23  O        -18.0600  -16.0840   -1.6410 O.2    36  GLY36      -0.2714
     24  N        -17.0620  -14.3020   -0.6770 N.am   37  SER37      -0.1935
     25  CA       -16.0480  -15.0530    0.0670 C.3    37  SER37       0.2055
     26  C        -16.5730  -16.2530    0.8770 C.2    37  SER37       0.2643
     27  O        -15.8770  -17.2710    0.9830 O.2    37  SER37      -0.2714
     28  CB       -15.2420  -14.1230    0.9680 C.3    37  SER37       0.2130
     29  OG       -16.0860  -13.3690    1.8230 O.3    37  SER37      -0.2179
     30  N        -17.7700  -16.1410    1.4580 N.am   38  PHE38      -0.1959
     31  CA       -18.2420  -17.2490    2.2770 C.3    38  PHE38       0.1774
     32  C        -19.6210  -17.8150    1.8630 C.2    38  PHE38       0.2659
     33  O        -20.2800  -18.4720    2.6560 O.2    38  PHE38      -0.2711
     34  CB       -18.1800  -16.9000    3.7620 C.3    38  PHE38       0.0574
     35  CG       -18.6560  -15.5490    4.2310 C.ar   38  PHE38      -0.0200
     36  CD1      -20.0150  -15.2560    4.2900 C.ar   38  PHE38      -0.0042
     37  CD2      -17.7650  -14.6410    4.7860 C.ar   38  PHE38      -0.0042
     38  CE1      -20.4650  -14.0620    4.8580 C.ar   38  PHE38      -0.0003
     39  CE2      -18.2150  -13.4390    5.3380 C.ar   38  PHE38      -0.0003
     40  CZ       -19.5610  -13.1650    5.3910 C.ar   38  PHE38      -0.0000
     41  N        -19.9480  -17.6810    0.5870 N.am   39  GLY39      -0.1716
     42  CA       -21.1600  -18.2440    0.0190 C.2    39  GLY39       0.1480
     43  C        -21.5660  -17.6940   -1.3300 C.2    39  GLY39       0.2820
     44  O        -20.7270  -17.2780   -2.1320 O.2    39  GLY39      -0.2669
     45  N        -22.8660  -17.7390   -1.5900 N.am   40  ARG40      -0.1929
     46  CA       -23.4870  -17.2400   -2.8100 C.3    40  ARG40       0.1732
     47  C        -24.9410  -16.8370   -2.5330 C.2    40  ARG40       0.2616
     48  O        -25.4650  -17.1470   -1.4580 O.2    40  ARG40      -0.2715
     49  CB       -23.3920  -18.2810   -3.9440 C.3    40  ARG40       0.0348
     50  CG       -24.0650  -19.6360   -3.6810 C.3    40  ARG40       0.0492
     51  CD       -23.6440  -20.6230   -4.7660 C.3    40  ARG40       0.2205
     52  NE       -23.8260  -22.0390   -4.4180 N.pl3  40  ARG40      -0.0865
     53  CZ       -22.9500  -22.7790   -3.7400 C.cat  40  ARG40       0.5346
     54  NH1      -23.1960  -24.0620   -3.5090 N.pl3  40  ARG40       0.1354
     55  NH2      -21.8300  -22.2380   -3.2760 N.pl3  40  ARG40       0.1354
     56  N        -25.5770  -16.1310   -3.4880 N.am   41  VAL41      -0.1977
     57  CA       -26.9950  -15.7640   -3.4240 C.3    41  VAL41       0.1596
     58  C        -27.7110  -16.4980   -4.5870 C.2    41  VAL41       0.2287
     59  O        -27.2420  -16.4350   -5.7270 O.2    41  VAL41      -0.2864
     60  CB       -27.2300  -14.2360   -3.4400 C.3    41  VAL41       0.0276
     61  CG1      -28.7000  -13.9040   -3.6950 C.3    41  VAL41       0.0022
     62  CG2      -26.7600  -13.6070   -2.1430 C.3    41  VAL41       0.0022
     63  N        -34.7530  -14.6570   -2.9660 N.3    54  ALA54      -0.1245
     64  CA       -33.2930  -14.6090   -3.0020 C.3    54  ALA54       0.1562
     65  C        -32.8690  -15.3430   -1.7300 C.2    54  ALA54       0.2260
     66  O        -33.3800  -15.0440   -0.6510 O.2    54  ALA54      -0.2867
     67  CB       -32.7870  -13.1700   -2.9940 C.3    54  ALA54       0.0290
     68  N        -29.6150  -16.4960    0.5520 N.3    56  LYS56      -0.1231
     69  CA       -28.2000  -16.2900    0.8580 C.3    56  LYS56       0.1693
     70  C        -27.6710  -17.5170    1.5830 C.2    56  LYS56       0.2592
     71  O        -28.0750  -17.7660    2.7110 O.2    56  LYS56      -0.2718
     72  CB       -28.0270  -15.0290    1.7140 C.3    56  LYS56       0.0285
     73  CG       -26.6190  -14.5160    1.8080 C.3    56  LYS56       0.0035
     74  CD       -26.5940  -13.1850    2.5130 C.3    56  LYS56       0.0206
     75  CE       -25.2690  -12.9010    3.1690 C.3    56  LYS56       0.1093
     76  NZ       -25.1030  -11.4640    3.5120 N.3    56  LYS56      -0.1314
     77  N        -26.7940  -18.2980    0.9250 N.am   57  ILE57      -0.1966
     78  CA       -26.1660  -19.5100    1.4820 C.3    57  ILE57       0.1727
     79  C        -24.7730  -19.1510    2.0320 C.2    57  ILE57       0.2616
     80  O        -23.9380  -18.6520    1.2820 O.2    57  ILE57      -0.2715
     81  CB       -26.1010  -20.6630    0.4480 C.3    57  ILE57       0.0290
     82  CG1      -27.4980  -20.9420   -0.1870 C.3    57  ILE57       0.0022
     83  CG2      -25.5170  -21.9150    1.1020 C.3    57  ILE57       0.0023
     84  CD1      -27.5360  -21.8970   -1.4580 C.3    57  ILE57       0.0001
     85  N        -24.5250  -19.4200    3.3320 N.am   58  LEU58      -0.1977
     86  CA       -23.2640  -19.1010    4.0060 C.3    58  LEU58       0.1596
     87  C        -22.5880  -20.3440    4.4980 C.2    58  LEU58       0.2287
     88  O        -23.1280  -21.0210    5.3610 O.2    58  LEU58      -0.2864
     89  CB       -23.5180  -18.1960    5.2180 C.3    58  LEU58       0.0297
     90  CG       -23.6390  -16.7230    4.9760 C.3    58  LEU58       0.0022
     91  CD1      -25.0570  -16.3660    4.6490 C.3    58  LEU58       0.0001
     92  CD2      -23.2810  -15.9810    6.2160 C.3    58  LEU58       0.0001
     93  N        -26.2300  -10.0780   11.6020 N.3    75  GLU75      -0.1245
     94  CA       -26.9480   -9.9620   10.3200 C.3    75  GLU75       0.1567
     95  C        -28.3610  -10.5260   10.3960 C.2    75  GLU75       0.2260
     96  O        -29.3130   -9.8070   10.0920 O.2    75  GLU75      -0.2867
     97  CB       -26.1470  -10.6360    9.1910 C.3    75  GLU75       0.0388
     98  CG       -26.9780  -10.8900    7.9500 C.3    75  GLU75       0.1160
     99  CD       -26.2160  -11.1180    6.6710 C.2    75  GLU75       0.3649
    100  OE1      -25.1630  -11.8000    6.7200 O.co2  75  GLU75      -0.2457
    101  OE2      -26.6800  -10.6120    5.6190 O.co2  75  GLU75      -0.2457
    102  N        -34.6350   -5.1340    2.8000 N.3    88  VAL88      -0.1245
    103  CA       -34.9680   -6.4230    2.1950 C.3    88  VAL88       0.1561
    104  C        -35.8340   -7.2510    3.1270 C.2    88  VAL88       0.2260
    105  O        -35.5750   -7.2810    4.3250 O.2    88  VAL88      -0.2867
    106  CB       -33.7860   -7.2410    1.6330 C.3    88  VAL88       0.0252
    107  CG1      -33.3780   -6.7540    0.2570 C.3    88  VAL88       0.0019
    108  CG2      -32.6120   -7.2810    2.5950 C.3    88  VAL88       0.0019
    109  N        -35.1040  -14.2780    1.4310 N.3   104  MET104     -0.1230
    110  CA       -35.6560  -12.9280    1.3010 C.3   104  MET104      0.1702
    111  C        -36.4550  -12.7380    0.0110 C.2   104  MET104      0.2592
    112  O        -36.1280  -13.3550   -1.0040 O.2   104  MET104     -0.2718
    113  CB       -34.5020  -11.9100    1.3410 C.3   104  MET104      0.0401
    114  CG       -33.6360  -12.0530    2.5750 C.3   104  MET104      0.0596
    115  SD       -32.0060  -11.3910    2.2930 S.3   104  MET104     -0.1393
    116  CE       -31.1240  -12.8450    2.0240 C.3   104  MET104      0.0692
    117  N        -37.4770  -11.8630    0.0290 N.am  105  GLU105     -0.1966
    118  CA       -38.2870  -11.6620   -1.1630 C.3   105  GLU105      0.1733
    119  C        -37.4130  -11.1620   -2.3490 C.2   105  GLU105      0.2616
    120  O        -36.5420  -10.3050   -2.1640 O.2   105  GLU105     -0.2715
    121  CB       -39.5540  -10.8120   -0.8850 C.3   105  GLU105      0.0429
    122  CG       -39.3760   -9.3050   -0.8530 C.3   105  GLU105      0.1163
    123  CD       -40.3350   -8.5660   -1.7590 C.2   105  GLU105      0.3649
    124  OE1      -41.5070   -8.4030   -1.3520 O.co2 105  GLU105     -0.2457
    125  OE2      -39.9240   -8.1590   -2.8730 O.co2 105  GLU105     -0.2457
    126  N        -37.5730  -11.8220   -3.5300 N.am  106  TYR106     -0.1960
    127  CA       -36.8080  -11.5390   -4.7500 C.3   106  TYR106      0.1771
    128  C        -37.0910  -10.1440   -5.3220 C.2   106  TYR106      0.2619
    129  O        -38.2650   -9.7690   -5.4830 O.2   106  TYR106     -0.2715
    130  CB       -37.0130  -12.6410   -5.8110 C.3   106  TYR106      0.0574
    131  CG       -36.1500  -12.4950   -7.0460 C.ar  106  TYR106     -0.0198
    132  CD1      -34.7660  -12.4230   -6.9480 C.ar  106  TYR106     -0.0009
    133  CD2      -36.7150  -12.4930   -8.3200 C.ar  106  TYR106     -0.0009
    134  CE1      -33.9650  -12.3020   -8.0800 C.ar  106  TYR106      0.0417
    135  CE2      -35.9220  -12.3900   -9.4640 C.ar  106  TYR106      0.0417
    136  CZ       -34.5450  -12.2840   -9.3390 C.ar  106  TYR106      0.1957
    137  OH       -33.7270  -12.1630  -10.4440 O.3   106  TYR106     -0.2866
    138  N        -36.0070   -9.3620   -5.5640 N.am  107  VAL107     -0.1977
    139  CA       -36.0310   -8.0130   -6.1380 C.3   107  VAL107      0.1596
    140  C        -35.4450   -8.1770   -7.5660 C.2   107  VAL107      0.2287
    141  O        -34.2200   -8.2370   -7.7470 O.2   107  VAL107     -0.2864
    142  CB       -35.2790   -6.9900   -5.2580 C.3   107  VAL107      0.0276
    143  CG1      -35.5570   -5.5580   -5.7150 C.3   107  VAL107      0.0022
    144  CG2      -35.6610   -7.1580   -3.7900 C.3   107  VAL107      0.0022
    145  N        -29.2170   -4.6310   -8.7100 N.3   111  GLU111     -0.1245
    146  CA       -28.4460   -3.6040   -8.0020 C.3   111  GLU111      0.1567
    147  C        -28.5390   -2.2680   -8.7090 C.2   111  GLU111      0.2260
    148  O        -28.5480   -2.2200   -9.9380 O.2   111  GLU111     -0.2867
    149  CB       -26.9600   -4.0150   -7.9610 C.3   111  GLU111      0.0388
    150  CG       -26.6250   -5.0430   -6.9000 C.3   111  GLU111      0.1160
    151  CD       -25.4920   -5.9980   -7.2330 C.2   111  GLU111      0.3649
    152  OE1      -24.3330   -5.5470   -7.3980 O.co2 111  GLU111     -0.2457
    153  OE2      -25.7730   -7.2150   -7.3120 O.co2 111  GLU111     -0.2457
    154  N        -23.9620   -1.4200   -4.9230 N.3   154  GLU154     -0.1231
    155  CA       -23.9870   -2.8930   -4.9600 C.3   154  GLU154      0.1699
    156  C        -24.9410   -3.4990   -3.9200 C.2   154  GLU154      0.2592
    157  O        -25.2020   -4.7160   -3.9720 O.2   154  GLU154     -0.2718
    158  CB       -22.5580   -3.4630   -4.7170 C.3   154  GLU154      0.0402
    159  CG       -21.5330   -3.0730   -5.7630 C.3   154  GLU154      0.1161
    160  CD       -20.7210   -1.8260   -5.4830 C.2   154  GLU154      0.3649
    161  OE1      -21.3140   -0.7460   -5.2620 O.co2 154  GLU154     -0.2457
    162  OE2      -19.4750   -1.9290   -5.4980 O.co2 154  GLU154     -0.2457
    163  N        -25.3780   -2.6830   -2.9240 N.am  155  ASN155     -0.1974
    164  CA       -26.2510   -3.1390   -1.8460 C.3   155  ASN155      0.1688
    165  C        -27.6360   -2.5520   -1.8950 C.2   155  ASN155      0.2292
    166  O        -28.5260   -3.0000   -1.1740 O.2   155  ASN155     -0.2864
    167  CB       -25.6080   -2.9360   -0.5020 C.3   155  ASN155      0.1181
    168  CG       -24.4860   -3.9180   -0.2570 C.2   155  ASN155      0.2629
    169  OD1      -24.1820   -4.8030   -1.0760 O.2   155  ASN155     -0.2716
    170  ND2      -23.8220   -3.7680    0.8710 N.am  155  ASN155     -0.0877
    171  N        -30.9760   -2.3840   -3.9910 N.3   157  LEU157     -0.1245
    172  CA       -31.7380   -3.0620   -5.0450 C.3   157  LEU157      0.1561
    173  C        -32.9610   -2.2260   -5.4390 C.2   157  LEU157      0.2260
    174  O        -33.5600   -1.5740   -4.5690 O.2   157  LEU157     -0.2867
    175  CB       -32.1690   -4.4650   -4.6180 C.3   157  LEU157      0.0270
    176  CG       -31.0730   -5.4050   -4.0950 C.3   157  LEU157      0.0019
    177  CD1      -31.6230   -6.3150   -3.0230 C.3   157  LEU157      0.0001
    178  CD2      -30.3940   -6.2000   -5.2240 C.3   157  LEU157      0.0001
    179  N        -29.8350   -4.2990    0.9600 N.3   167  THR167     -0.1203
    180  CA       -29.3930   -5.6390    1.3720 C.3   167  THR167      0.1994
    181  C        -28.1950   -5.5780    2.2880 C.2   167  THR167      0.2617
    182  O        -27.9830   -4.5680    2.9610 O.2   167  THR167     -0.2717
    183  CB       -29.0030   -6.5150    0.2100 C.3   167  THR167      0.1784
    184  OG1      -29.0600   -5.7940   -1.0160 O.3   167  THR167     -0.2211
    185  CG2      -29.8000   -7.7630    0.1790 C.3   167  THR167      0.0376
    186  N        -27.3920   -6.6710    2.2730 N.am  168  ASP168     -0.1973
    187  CA       -26.1550   -6.9330    3.0050 C.3   168  ASP168      0.1709
    188  C        -26.1040   -6.3030    4.3730 C.2   168  ASP168      0.2293
    189  O        -25.4680   -5.2560    4.5610 O.2   168  ASP168     -0.2864
    190  CB       -24.9220   -6.5560    2.1810 C.3   168  ASP168      0.1436
    191  CG       -23.7780   -7.5430    2.2720 C.2   168  ASP168      0.3671
    192  OD1      -23.5610   -8.1110    3.3780 O.co2 168  ASP168     -0.2456
    193  OD2      -23.0910   -7.7490    1.2380 O.co2 168  ASP168     -0.2456
    194  N        -29.2180   -9.5080  -13.1930 N.3   310  PHE310     -0.1241
    195  CA       -28.1360  -10.1220  -12.4470 C.3   310  PHE310      0.1605
    196  C        -27.1450  -10.7660  -13.4230 C.2   310  PHE310      0.2264
    197  O        -27.5430  -11.2180  -14.5010 O.2   310  PHE310     -0.2867
    198  CB       -28.6880  -11.1330  -11.4360 C.3   310  PHE310      0.0534
    199  CG       -29.4100  -10.4610  -10.2980 C.ar  310  PHE310     -0.0203
    200  CD1      -28.7180  -10.0200   -9.1790 C.ar  310  PHE310     -0.0042
    201  CD2      -30.7830  -10.2450  -10.3540 C.ar  310  PHE310     -0.0042
    202  CE1      -29.3800   -9.3730   -8.1420 C.ar  310  PHE310     -0.0003
    203  CE2      -31.4500   -9.6090   -9.3010 C.ar  310  PHE310     -0.0003
    204  CZ       -30.7410   -9.1680   -8.2110 C.ar  310  PHE310     -0.0000
@<TRIPOS>BOND
     1   197   196    2
     2   196   195    1
     3   194   195    1
     4   195   198    1
     5   198   199    1
     6   137   136    1
     7   201   199   ar
     8   201   203   ar
     9   199   200   ar
    10   148   147    2
    11   135   136   ar
    12   135   133   ar
    13     8     6    1
    14   136   134   ar
    15   203   204   ar
    16   200   202   ar
    17     4     3    2
    18     2     1    1
    19     2     3    1
    20     2     5    1
    21   145   146    1
    22   147   146    1
    23   133   131   ar
    24     3     9   am
    25   204   202   ar
    26   134   132   ar
    27     6     5    1
    28     6     7    1
    29   146   149    1
    30   149   150    1
    31   141   140    2
    32   140   139    1
    33     9    10    1
    34   152   151   ar
    35   153   151   ar
    36   151   150    1
    37   131   132   ar
    38   131   130    1
    39    10    11    1
    40    19    17    1
    41    17    18    1
    42    17    14    1
    43   139   138    1
    44   139   142    1
    45    11    13   am
    46    11    12    2
    47    13    14    1
    48   130   127    1
    49   159   160    1
    50   159   158    1
    51    59    58    2
    52   143   142    1
    53   138   128   am
    54   162   160   ar
    55   129   128    2
    56   160   161   ar
    57   173   172    1
    58   173   174    2
    59   128   127    1
    60   142   144    1
    61    14    15    1
    62   178   176    1
    63   172   175    1
    64   172   171    1
    65   155   154    1
    66   155   158    1
    67   155   156    1
    68    51    52    1
    69    51    50    1
    70   127   126    1
    71   175   176    1
    72    58    57    1
    73    52    53    2
    74    15    16    2
    75    15    20   am
    76   176   177    1
    77   157   156    2
    78    49    50    1
    79    49    46    1
    80   156   163   am
    81    53    54    1
    82    53    55    1
    83    61    60    1
    84   126   119   am
    85    56    57    1
    86    56    47   am
    87    60    57    1
    88    60    62    1
    89    20    21    1
    90    64    67    1
    91    64    63    1
    92    64    65    1
    93   163   164    1
    94   125   123   ar
    95    46    47    1
    96    46    45    1
    97    47    48    2
    98   119   120    2
    99   119   118    1
   100    21    22    1
   101    44    43    2
   102   165   164    1
   103   165   166    2
   104   164   167    1
   105   123   124   ar
   106   123   122    1
   107    65    66    2
   108    23    22    2
   109    45    43   am
   110    22    24   am
   111    84    82    1
   112    43    42    1
   113   118   121    1
   114   118   117    1
   115   169   168    2
   116   184   183    1
   117   112   111    2
   118   121   122    1
   119    24    25    1
   120   167   168    1
   121   168   170   am
   122    82    81    1
   123   111   117   am
   124   111   110    1
   125    42    41    2
   126    25    26    1
   127    25    28    1
   128   185   183    1
   129   183   180    1
   130   107   106    1
   131    81    83    1
   132    81    78    1
   133    68    69    1
   134    41    32    1
   135    69    70    1
   136    69    72    1
   137    26    27    2
   138    26    30   am
   139    77    78    1
   140    77    70   am
   141   179   180    1
   142    28    29    1
   143   193   191   ar
   144    80    79    2
   145   110   113    1
   146   110   109    1
   147   113   114    1
   148   180   181    1
   149    30    31    1
   150    78    79    1
   151    70    71    2
   152   106   103    1
   153   106   108    1
   154    72    73    1
   155    73    74    1
   156    32    31    1
   157    32    33    2
   158   116   115    1
   159    79    85   am
   160   190   191    1
   161   190   187    1
   162   103   102    1
   163   103   104    1
   164   191   192   ar
   165   186   181   am
   166   186   187    1
   167    31    34    1
   168   181   182    2
   169   115   114    1
   170    74    75    1
   171   187   188    1
   172   104   105    2
   173    75    76    1
   174    85    86    1
   175    34    35    1
   176    86    87    1
   177    86    89    1
   178    35    36   ar
   179    35    37   ar
   180    36    38   ar
   181   188   189    2
   182    87    88    2
   183    91    90    1
   184    37    39   ar
   185    38    40   ar
   186    90    89    1
   187    90    92    1
   188    39    40   ar
   189   101    99   ar
   190    99   100   ar
   191    99    98    1
   192    98    97    1
   193    97    94    1
   194    96    95    2
   195    94    95    1
   196    94    93    1
