@<TRIPOS>MOLECULE
tmp/6ea1A00.pdb
 201 191 0 0 0
SMALL
GASTEIGER

@<TRIPOS>ATOM
      1  N        -15.8840   17.2010  -24.3680 N.3   110  THR110     -0.1218
      2  CA       -14.5080   17.3080  -23.8900 C.3   110  THR110      0.1862
      3  C        -13.9400   18.6470  -24.3970 C.2   110  THR110      0.2287
      4  O        -14.2910   19.0930  -25.4930 O.2   110  THR110     -0.2866
      5  CB       -13.6440   16.1220  -24.3700 C.3   110  THR110      0.1770
      6  OG1      -13.7110   16.0370  -25.8080 O.3   110  THR110     -0.2211
      7  CG2      -14.1410   14.7880  -23.7520 C.3   110  THR110      0.0375
      8  N        -14.3670   20.5080  -19.8220 N.3   122  GLN122     -0.1245
      9  CA       -13.9190   19.2710  -19.2070 C.3   122  GLN122      0.1566
     10  C        -12.5390   18.9660  -19.7780 C.2   122  GLN122      0.2260
     11  O        -12.4020   18.6460  -20.9710 O.2   122  GLN122     -0.2867
     12  CB       -14.9120   18.1190  -19.4520 C.3   122  GLN122      0.0367
     13  CG       -14.3920   16.7500  -19.0950 C.3   122  GLN122      0.0905
     14  CD       -13.9810   16.6630  -17.6390 C.2   122  GLN122      0.2608
     15  OE1      -14.6660   17.2080  -16.7540 O.2   122  GLN122     -0.2717
     16  NE2      -12.8770   15.9620  -17.3690 N.am  122  GLN122     -0.0878
     17  N         -9.7800   17.0080  -17.9770 N.3   124  GLU124     -0.1231
     18  CA        -9.1740   15.6790  -17.7520 C.3   124  GLU124      0.1699
     19  C         -9.6530   14.6820  -18.8330 C.2   124  GLU124      0.2592
     20  O        -10.8420   14.6370  -19.1560 O.2   124  GLU124     -0.2718
     21  CB        -9.5030   15.1280  -16.3530 C.3   124  GLU124      0.0402
     22  CG        -8.5240   14.0310  -15.9050 C.3   124  GLU124      0.1161
     23  CD        -8.8490   13.4190  -14.5560 C.2   124  GLU124      0.3649
     24  OE1       -9.7930   13.8880  -13.9020 O.co2 124  GLU124     -0.2457
     25  OE2       -8.1720   12.4310  -14.1650 O.co2 124  GLU124     -0.2457
     26  N         -8.7470   13.8860  -19.4060 N.am  125  ALA125     -0.1966
     27  CA        -7.3200   13.8910  -19.0950 C.3   125  ALA125      0.1728
     28  C         -6.5510   14.8420  -20.0000 C.2   125  ALA125      0.2617
     29  O         -5.7410   15.6390  -19.5270 O.2   125  ALA125     -0.2715
     30  CB        -6.7430   12.4730  -19.2040 C.3   125  ALA125      0.0334
     31  N         -6.8070   14.7560  -21.3020 N.am  126  THR126     -0.1937
     32  CA        -6.0960   15.5780  -22.2640 C.3   126  THR126      0.2028
     33  C         -7.0660   16.4320  -23.0790 C.2   126  THR126      0.2642
     34  O         -6.9680   16.5340  -24.3130 O.2   126  THR126     -0.2714
     35  CB        -5.2220   14.6890  -23.1680 C.3   126  THR126      0.1808
     36  OG1       -6.0210   13.6380  -23.7100 O.3   126  THR126     -0.2208
     37  CG2       -4.1030   14.0500  -22.3120 C.3   126  THR126      0.0379
     38  N         -8.0110   17.0570  -22.3740 N.am  127  GLY127     -0.1954
     39  CA        -8.9590   17.9440  -23.0180 C.3   127  GLY127      0.1869
     40  C         -8.4960   19.4090  -23.1070 C.2   127  GLY127      0.2309
     41  O         -9.0480   20.1690  -23.8750 O.2   127  GLY127     -0.2863
     42  N        -20.0080   13.4570  -19.3990 N.3   263  ASN263     -0.1225
     43  CA       -19.6180   12.0970  -19.7760 C.3   263  ASN263      0.1785
     44  C        -19.5760   11.1520  -18.6010 C.2   263  ASN263      0.2597
     45  O        -19.7820    9.9570  -18.7820 O.2   263  ASN263     -0.2718
     46  CB       -18.2610   12.1130  -20.4950 C.3   263  ASN263      0.1169
     47  CG       -18.3740   12.6760  -21.8800 C.2   263  ASN263      0.2627
     48  OD1      -19.4740   12.7260  -22.4350 O.2   263  ASN263     -0.2716
     49  ND2      -17.2540   13.1290  -22.4450 N.am  263  ASN263     -0.0877
     50  N        -19.3390   11.6840  -17.3920 N.am  264  VAL264     -0.1966
     51  CA       -19.1910   10.8430  -16.2070 C.3   264  VAL264      0.1727
     52  C        -19.9790   11.4220  -15.0190 C.2   264  VAL264      0.2617
     53  O        -20.9570   12.1450  -15.2270 O.2   264  VAL264     -0.2715
     54  CB       -17.6860   10.6600  -15.8600 C.3   264  VAL264      0.0290
     55  CG1      -16.9890    9.8880  -16.9960 C.3   264  VAL264      0.0023
     56  CG2      -16.9810   12.0080  -15.6300 C.3   264  VAL264      0.0023
     57  N        -19.5820   11.1060  -13.7920 N.am  265  GLY265     -0.1940
     58  CA       -20.2730   11.6340  -12.6120 C.3   265  GLY265      0.2014
     59  C        -19.9060   13.0850  -12.2520 C.2   265  GLY265      0.2639
     60  O        -20.7960   13.9320  -12.0800 O.2   265  GLY265     -0.2714
     61  N        -18.6080   13.3630  -12.1030 N.am  266  ALA266     -0.1963
     62  CA       -18.1350   14.7380  -11.8310 C.3   266  ALA266      0.1728
     63  C        -16.6130   14.8790  -11.9660 C.2   266  ALA266      0.2616
     64  O        -15.8810   13.9010  -12.1940 O.2   266  ALA266     -0.2715
     65  CB       -18.5600   15.1950  -10.4390 C.3   266  ALA266      0.0334
     66  N        -16.1460   16.1090  -11.7960 N.am  267  MET267     -0.1963
     67  CA       -14.7550   16.4420  -12.0550 C.3   267  MET267      0.1736
     68  C        -14.2200   17.3960  -10.9890 C.2   267  MET267      0.2616
     69  O        -14.8930   18.3530  -10.6260 O.2   267  MET267     -0.2715
     70  CB       -14.6330   17.0750  -13.4450 C.3   267  MET267      0.0427
     71  CG       -13.2240   17.5040  -13.7600 C.3   267  MET267      0.0599
     72  SD       -12.0990   16.0660  -13.7590 S.3   267  MET267     -0.1393
     73  CE       -10.5920   16.9230  -13.2690 C.3   267  MET267      0.0692
     74  N        -13.0010   17.1470  -10.5070 N.am  268  GLU268     -0.1977
     75  CA       -12.4820   17.8580   -9.3490 C.3   268  GLU268      0.1602
     76  C        -11.6810   19.1490   -9.6660 C.2   268  GLU268      0.2287
     77  O        -10.7560   19.4850   -8.9350 O.2   268  GLU268     -0.2864
     78  CB       -11.6180   16.8860   -8.5220 C.3   268  GLU268      0.0415
     79  CG       -10.2310   16.5510   -9.1120 C.3   268  GLU268      0.1163
     80  CD       -10.2040   15.3260  -10.0200 C.2   268  GLU268      0.3649
     81  OE1      -11.2810   14.8940  -10.4860 O.co2 268  GLU268     -0.2457
     82  OE2       -9.0850   14.7890  -10.2390 O.co2 268  GLU268     -0.2457
     83  N        -25.8200    8.7380   -3.8380 N.3   294  ARG294     -0.1245
     84  CA       -25.0040    9.1050   -5.0050 C.3   294  ARG294      0.1563
     85  C        -24.3650   10.5090   -4.8470 C.2   294  ARG294      0.2260
     86  O        -23.1630   10.7030   -5.1060 O.2   294  ARG294     -0.2867
     87  CB       -25.8690    9.0390   -6.2800 C.3   294  ARG294      0.0307
     88  CG       -25.1620    9.4760   -7.5600 C.3   294  ARG294      0.0489
     89  CD       -23.9640    8.5990   -7.9050 C.3   294  ARG294      0.2205
     90  NE       -23.3500    9.0250   -9.1640 N.pl3 294  ARG294     -0.0865
     91  CZ       -22.2710    8.4780   -9.7110 C.cat 294  ARG294      0.5346
     92  NH1      -21.6620    7.4540   -9.1160 N.pl3 294  ARG294      0.1354
     93  NH2      -21.8060    8.9540  -10.8610 N.pl3 294  ARG294      0.1354
     94  N        -21.6660   10.4960   -2.1560 N.3   297  THR297     -0.1203
     95  CA       -20.3850    9.9250   -2.5610 C.3   297  THR297      0.1994
     96  C        -19.6680   10.8250   -3.5660 C.2   297  THR297      0.2617
     97  O        -18.4580   10.9960   -3.4850 O.2   297  THR297     -0.2717
     98  CB       -20.5080    8.5040   -3.1880 C.3   297  THR297      0.1784
     99  OG1      -21.1190    8.5740   -4.4770 O.3   297  THR297     -0.2211
    100  CG2      -21.2620    7.5580   -2.3130 C.3   297  THR297      0.0376
    101  N        -20.4120   11.4030   -4.5110 N.am  298  VAL298     -0.1979
    102  CA       -19.7280   12.1350   -5.5740 C.3   298  VAL298      0.1595
    103  C        -19.2440   13.5100   -5.0960 C.2   298  VAL298      0.2287
    104  O        -18.1290   13.9430   -5.4220 O.2   298  VAL298     -0.2864
    105  CB       -20.6200   12.2870   -6.8210 C.3   298  VAL298      0.0276
    106  CG1      -19.9080   13.1750   -7.8640 C.3   298  VAL298      0.0022
    107  CG2      -20.8840   10.8950   -7.4310 C.3   298  VAL298      0.0022
    108  N        -16.3080   12.5700   -2.9710 N.3   301  HIS301     -0.1226
    109  CA       -15.2160   12.1930   -3.8660 C.3   301  HIS301      0.1752
    110  C        -14.4870   13.4240   -4.4630 C.2   301  HIS301      0.2595
    111  O        -13.2630   13.5480   -4.3520 O.2   301  HIS301     -0.2718
    112  CB       -15.7680   11.2900   -4.9850 C.3   301  HIS301      0.0759
    113  CG       -14.7290   10.7720   -5.9380 C.ar  301  HIS301      0.0818
    114  ND1      -14.2720    9.4720   -5.8990 N.ar  301  HIS301     -0.2268
    115  CD2      -14.0740   11.3770   -6.9620 C.ar  301  HIS301      0.1154
    116  CE1      -13.3630    9.3020   -6.8470 C.ar  301  HIS301      0.1986
    117  NE2      -13.2360   10.4270   -7.5130 N.ar  301  HIS301     -0.2212
    118  N        -15.2240   14.3540   -5.0680 N.am  302  GLU302     -0.1979
    119  CA       -14.5380   15.5160   -5.6610 C.3   302  GLU302      0.1602
    120  C        -13.8480   16.3500   -4.5680 C.2   302  GLU302      0.2287
    121  O        -12.7540   16.8720   -4.7960 O.2   302  GLU302     -0.2864
    122  CB       -15.5020   16.3870   -6.4800 C.3   302  GLU302      0.0415
    123  CG       -16.3090   15.5870   -7.5300 C.3   302  GLU302      0.1163
    124  CD       -15.4710   14.6590   -8.3960 C.2   302  GLU302      0.3649
    125  OE1      -14.2520   14.9110   -8.6120 O.co2 302  GLU302     -0.2457
    126  OE2      -16.0430   13.6390   -8.8570 O.co2 302  GLU302     -0.2457
    127  N        -10.5010   14.8660   -3.4780 N.3   305  HIS305     -0.1241
    128  CA        -9.4670   15.1100   -4.4840 C.3   305  HIS305      0.1621
    129  C         -8.6470   16.3730   -4.1820 C.2   305  HIS305      0.2264
    130  O         -7.5260   16.5080   -4.6950 O.2   305  HIS305     -0.2867
    131  CB       -10.0660   15.2600   -5.8960 C.3   305  HIS305      0.0745
    132  CG       -10.1320   13.9940   -6.6870 C.ar  305  HIS305      0.0817
    133  ND1       -9.0660   13.1160   -6.7950 N.ar  305  HIS305     -0.2268
    134  CD2      -11.1240   13.4640   -7.4420 C.ar  305  HIS305      0.1154
    135  CE1       -9.4150   12.0920   -7.5560 C.ar  305  HIS305      0.1986
    136  NE2      -10.6610   12.2700   -7.9470 N.ar  305  HIS305     -0.2212
    137  N         -7.1790    8.2730   -8.0710 N.3   324  GLU324     -0.1245
    138  CA        -8.5540    7.7410   -8.1050 C.3   324  GLU324      0.1567
    139  C         -8.8050    6.5830   -7.1140 C.2   324  GLU324      0.2260
    140  O         -9.7960    6.6040   -6.4060 O.2   324  GLU324     -0.2867
    141  CB        -8.9370    7.2940   -9.5170 C.3   324  GLU324      0.0388
    142  CG        -8.9150    8.4490  -10.5410 C.3   324  GLU324      0.1160
    143  CD        -9.7930    9.6400  -10.1530 C.2   324  GLU324      0.3649
    144  OE1      -10.7010    9.5030   -9.3120 O.co2 324  GLU324     -0.2457
    145  OE2       -9.5970   10.7270  -10.7290 O.co2 324  GLU324     -0.2457
    146  N        -11.3690    7.2270   -4.0860 N.3   328  VAL328     -0.1245
    147  CA       -12.5090    6.3040   -3.8640 C.3   328  VAL328      0.1561
    148  C        -12.4590    5.7070   -2.4450 C.2   328  VAL328      0.2260
    149  O        -13.4810    5.6560   -1.7500 O.2   328  VAL328     -0.2867
    150  CB       -12.5430    5.1830   -4.9190 C.3   328  VAL328      0.0252
    151  CG1      -13.6900    4.1560   -4.6100 C.3   328  VAL328      0.0019
    152  CG2      -12.7710    5.7800   -6.2710 C.3   328  VAL328      0.0019
    153  N         -6.6130    7.6680  -23.4800 N.3   376  MET376     -0.1230
    154  CA        -6.8580    8.0260  -22.0750 C.3   376  MET376      0.1702
    155  C         -8.3370    7.9890  -21.7400 C.2   376  MET376      0.2592
    156  O         -8.7020    7.7570  -20.5950 O.2   376  MET376     -0.2718
    157  CB        -6.3090    9.4370  -21.7430 C.3   376  MET376      0.0401
    158  CG        -4.8510    9.4630  -21.2820 C.3   376  MET376      0.0596
    159  SD        -4.4750    8.1500  -20.0840 S.3   376  MET376     -0.1393
    160  CE        -5.4920    8.6840  -18.6870 C.3   376  MET376      0.0692
    161  N         -9.1970    8.2620  -22.7240 N.am  377  GLU377     -0.1979
    162  CA       -10.6220    8.3740  -22.4430 C.3   377  GLU377      0.1602
    163  C        -11.2070    7.0040  -22.0970 C.2   377  GLU377      0.2287
    164  O        -12.3160    6.9310  -21.5560 O.2   377  GLU377     -0.2864
    165  CB       -11.3830    9.0150  -23.6190 C.3   377  GLU377      0.0415
    166  CG       -11.0910   10.5220  -23.7720 C.3   377  GLU377      0.1163
    167  CD       -11.8370   11.1830  -24.9250 C.2   377  GLU377      0.3649
    168  OE1      -12.5270   10.4780  -25.6970 O.co2 377  GLU377     -0.2457
    169  OE2      -11.7290   12.4200  -25.0660 O.co2 377  GLU377     -0.2457
    170  N        -10.2760    5.1170  -17.6560 N.3   380  TYR380     -0.1241
    171  CA       -10.9390    5.3930  -16.3710 C.3   380  TYR380      0.1605
    172  C        -11.8610    4.2190  -16.0200 C.2   380  TYR380      0.2264
    173  O        -13.0660    4.2850  -16.2120 O.2   380  TYR380     -0.2867
    174  CB       -11.6850    6.7480  -16.4460 C.3   380  TYR380      0.0534
    175  CG       -10.6810    7.8830  -16.4440 C.ar  380  TYR380     -0.0201
    176  CD1       -9.8680    8.1180  -17.5530 C.ar  380  TYR380     -0.0009
    177  CD2      -10.4960    8.6680  -15.3120 C.ar  380  TYR380     -0.0009
    178  CE1       -8.9150    9.1110  -17.5590 C.ar  380  TYR380      0.0417
    179  CE2       -9.5320    9.6610  -15.2950 C.ar  380  TYR380      0.0417
    180  CZ        -8.7560    9.8860  -16.4230 C.ar  380  TYR380      0.1957
    181  OH        -7.7980   10.8510  -16.3940 O.3   380  TYR380     -0.2866
    182  N        -10.2890    2.3450  -10.5610 N.3   385  TYR385     -0.1241
    183  CA       -11.0490    2.9970   -9.4890 C.3   385  TYR385      0.1605
    184  C        -11.3300    2.0660   -8.2980 C.2   385  TYR385      0.2264
    185  O        -11.0000    2.3860   -7.1390 O.2   385  TYR385     -0.2867
    186  CB       -12.3940    3.5400  -10.0190 C.3   385  TYR385      0.0534
    187  CG       -12.2540    4.9050  -10.6500 C.ar  385  TYR385     -0.0201
    188  CD1      -11.5260    5.0730  -11.8280 C.ar  385  TYR385     -0.0009
    189  CD2      -12.8030    6.0390  -10.0360 C.ar  385  TYR385     -0.0009
    190  CE1      -11.3720    6.3490  -12.4180 C.ar  385  TYR385      0.0417
    191  CE2      -12.6380    7.3100  -10.5990 C.ar  385  TYR385      0.0417
    192  CZ       -11.9280    7.4530  -11.7920 C.ar  385  TYR385      0.1957
    193  OH       -11.7630    8.7110  -12.3510 O.3   385  TYR385     -0.2866
    194  N        -16.3800    8.6530  -26.2560 N.3   839  MET839     -0.1245
    195  CA       -16.2520    8.1690  -24.8980 C.3   839  MET839      0.1570
    196  C        -17.5350    7.4540  -24.4220 C.2   839  MET839      0.2261
    197  O        -17.4870    6.3450  -23.8360 O.2   839  MET839     -0.2867
    198  CB       -15.8970    9.3300  -23.9730 C.3   839  MET839      0.0387
    199  CG       -15.5670    8.8890  -22.5900 C.3   839  MET839      0.0595
    200  SD       -15.0230   10.3010  -21.6160 S.3   839  MET839     -0.1393
    201  CE       -14.7890    9.5480  -20.0350 C.3   839  MET839      0.0692
@<TRIPOS>BOND
     1   194   195    1
     2     6     5    1
     3   168   167   ar
     4     4     3    2
     5   169   167   ar
     6   167   166    1
     7   195   196    1
     8   195   198    1
     9   196   197    2
    10     3     2    1
    11     5     2    1
    12     5     7    1
    13     1     2    1
    14    34    33    2
    15   198   199    1
    16    41    40    2
    17   166   165    1
    18    36    35    1
    19   165   162    1
    20   153   154    1
    21    35    37    1
    22    35    32    1
    23    40    39    1
    24    33    38   am
    25    33    32    1
    26    39    38    1
    27   161   162    1
    28   161   155   am
    29   199   200    1
    30    49    47   am
    31   162   163    1
    32    48    47    2
    33    32    31    1
    34   163   164    2
    35   154   157    1
    36   154   155    1
    37    47    46    1
    38   157   158    1
    39   155   156    2
    40   200   201    1
    41    31    28   am
    42   158   159    1
    43    11    10    2
    44    46    43    1
    45   159   160    1
    46    28    29    2
    47    28    27    1
    48     8     9    1
    49    10     9    1
    50    43    42    1
    51    43    44    1
    52    12     9    1
    53    12    13    1
    54    26    27    1
    55    26    19   am
    56    30    27    1
    57    20    19    2
    58    13    14    1
    59    19    18    1
    60    45    44    2
    61    44    50   am
    62    17    18    1
    63    18    21    1
    64   170   171    1
    65    14    16   am
    66    14    15    2
    67   178   176   ar
    68   178   180   ar
    69   176   175   ar
    70    50    51    1
    71    55    54    1
    72   174   175    1
    73   174   171    1
    74   175   177   ar
    75   180   181    1
    76   180   179   ar
    77   171   172    1
    78    21    22    1
    79   173   172    2
    80    51    54    1
    81    51    52    1
    82    22    23    1
    83    54    56    1
    84   177   179   ar
    85    53    52    2
    86    52    57   am
    87    23    25   ar
    88    23    24   ar
    89    57    58    1
    90    71    72    1
    91    71    70    1
    92    72    73    1
    93    70    67    1
    94    58    59    1
    95   190   188   ar
    96   190   192   ar
    97   193   192    1
    98    59    61   am
    99    59    60    2
   100    64    63    2
   101    61    62    1
   102    67    66    1
   103    67    68    1
   104    63    62    1
   105    63    66   am
   106    62    65    1
   107   188   187   ar
   108   192   191   ar
   109    68    69    2
   110    68    74   am
   111    93    91    1
   112   145   143   ar
   113   187   189   ar
   114   187   186    1
   115   191   189   ar
   116   182   183    1
   117   142   143    1
   118   142   141    1
   119    74    75    1
   120    81    80   ar
   121    82    80   ar
   122   143   144   ar
   123    80    79    1
   124   186   183    1
   125    91    90    2
   126    91    92    1
   127    76    75    1
   128    76    77    2
   129   141   138    1
   130   183   184    1
   131    75    78    1
   132    90    89    1
   133    79    78    1
   134   126   124   ar
   135   125   124   ar
   136   124   123    1
   137   184   185    2
   138   138   137    1
   139   138   139    1
   140   136   135   ar
   141   136   134   ar
   142    89    88    1
   143   106   105    1
   144    88    87    1
   145   135   133   ar
   146   123   122    1
   147   117   115   ar
   148   117   116   ar
   149   134   132   ar
   150   107   105    1
   151   139   140    2
   152   115   113   ar
   153   116   114   ar
   154   105   102    1
   155   133   132   ar
   156   132   131    1
   157   122   119    1
   158    87    84    1
   159   152   150    1
   160   113   114   ar
   161   113   112    1
   162   131   128    1
   163   119   118    1
   164   119   120    1
   165   102   103    1
   166   102   101    1
   167   104   103    2
   168    86    85    2
   169   118   110   am
   170    84    85    1
   171    84    83    1
   172   112   109    1
   173   150   151    1
   174   150   147    1
   175   121   120    2
   176   130   129    2
   177   101    96   am
   178   128   129    1
   179   128   127    1
   180    99    98    1
   181   110   111    2
   182   110   109    1
   183   146   147    1
   184   109   108    1
   185   147   148    1
   186    96    97    2
   187    96    95    1
   188    98    95    1
   189    98   100    1
   190    95    94    1
   191   148   149    2
