@<TRIPOS>MOLECULE
tmp/6ea2A00.pdb
 197 187 0 0 0
SMALL
GASTEIGER

@<TRIPOS>ATOM
      1  N         15.8980  126.1440  142.4530 N.3   110  THR110     -0.1218
      2  CA        14.5230  126.2540  141.9960 C.3   110  THR110      0.1862
      3  C         13.9670  127.5540  142.5540 C.2   110  THR110      0.2287
      4  O         14.3050  127.9600  143.6690 O.2   110  THR110     -0.2866
      5  CB        13.6710  125.0770  142.4870 C.3   110  THR110      0.1770
      6  OG1       13.7590  125.0040  143.9130 O.3   110  THR110     -0.2211
      7  CG2       14.1480  123.7540  141.8900 C.3   110  THR110      0.0375
      8  N         14.4120  129.4230  137.9400 N.3   122  GLN122     -0.1245
      9  CA        13.9800  128.1630  137.3310 C.3   122  GLN122      0.1566
     10  C         12.6000  127.8670  137.9000 C.2   122  GLN122      0.2260
     11  O         12.4750  127.5330  139.0870 O.2   122  GLN122     -0.2867
     12  CB        14.9610  127.0260  137.6220 C.3   122  GLN122      0.0367
     13  CG        14.4460  125.6420  137.2240 C.3   122  GLN122      0.0905
     14  CD        14.0390  125.5880  135.7560 C.2   122  GLN122      0.2608
     15  OE1       14.7240  126.1570  134.8950 O.2   122  GLN122     -0.2717
     16  NE2       12.9260  124.9100  135.4620 N.am  122  GLN122     -0.0878
     17  N          9.8610  125.9180  136.1280 N.3   124  GLU124     -0.1231
     18  CA         9.2340  124.6160  135.8910 C.3   124  GLU124      0.1699
     19  C          9.6830  123.6340  136.9700 C.2   124  GLU124      0.2592
     20  O         10.8550  123.6190  137.3470 O.2   124  GLU124     -0.2718
     21  CB         9.5840  124.0800  134.4940 C.3   124  GLU124      0.0402
     22  CG         8.6450  122.9420  134.0990 C.3   124  GLU124      0.1161
     23  CD         8.8880  122.3870  132.7240 C.2   124  GLU124      0.3649
     24  OE1        9.7580  122.9100  131.9990 O.co2 124  GLU124     -0.2457
     25  OE2        8.2080  121.4070  132.3580 O.co2 124  GLU124     -0.2457
     26  N          8.7640  122.8190  137.5000 N.am  125  ALA125     -0.1966
     27  CA         7.3210  122.8490  137.2380 C.3   125  ALA125      0.1728
     28  C          6.5700  123.8120  138.1420 C.2   125  ALA125      0.2616
     29  O          5.7450  124.5930  137.6650 O.2   125  ALA125     -0.2715
     30  CB         6.7340  121.4280  137.3950 C.3   125  ALA125      0.0334
     31  N          6.8420  123.7490  139.4440 N.am  126  THR126     -0.1951
     32  CA         6.1140  124.5180  140.4530 C.3   126  THR126      0.1897
     33  C          7.0590  125.3930  141.2690 C.2   126  THR126      0.2313
     34  O          6.9540  125.4900  142.4960 O.2   126  THR126     -0.2863
     35  CB         5.2560  123.6070  141.3310 C.3   126  THR126      0.1794
     36  OG1        6.0850  122.6060  141.9260 O.3   126  THR126     -0.2208
     37  CG2        4.1680  122.9150  140.4900 C.3   126  THR126      0.0378
     38  N         20.0360  122.3810  137.5100 N.3   263  ASN263     -0.1225
     39  CA        19.6820  121.0140  137.8820 C.3   263  ASN263      0.1785
     40  C         19.6510  120.0690  136.6900 C.2   263  ASN263      0.2597
     41  O         19.8650  118.8610  136.8670 O.2   263  ASN263     -0.2718
     42  CB        18.3360  120.9860  138.5940 C.3   263  ASN263      0.1169
     43  CG        18.4260  121.5340  139.9910 C.2   263  ASN263      0.2627
     44  OD1       19.5080  121.5550  140.5950 O.2   263  ASN263     -0.2716
     45  ND2       17.3030  122.0290  140.5050 N.am  263  ASN263     -0.0877
     46  N         19.3510  120.5760  135.4850 N.am  264  VAL264     -0.1966
     47  CA        19.1790  119.7400  134.3000 C.3   264  VAL264      0.1727
     48  C         19.9800  120.3400  133.1450 C.2   264  VAL264      0.2617
     49  O         20.9960  121.0010  133.3740 O.2   264  VAL264     -0.2715
     50  CB        17.6790  119.5340  133.9930 C.3   264  VAL264      0.0290
     51  CG1       17.0020  118.7590  135.1460 C.3   264  VAL264      0.0023
     52  CG2       16.9720  120.8700  133.7690 C.3   264  VAL264      0.0023
     53  N         19.5520  120.1080  131.9100 N.am  265  GLY265     -0.1940
     54  CA        20.2640  120.6350  130.7550 C.3   265  GLY265      0.2014
     55  C         19.9160  122.0690  130.3840 C.2   265  GLY265      0.2639
     56  O         20.8210  122.8880  130.2150 O.2   265  GLY265     -0.2714
     57  N         18.6310  122.3810  130.2350 N.am  266  ALA266     -0.1963
     58  CA        18.2050  123.7300  129.8740 C.3   266  ALA266      0.1728
     59  C         16.6990  123.8380  130.0390 C.2   266  ALA266      0.2616
     60  O         16.0080  122.8460  130.3020 O.2   266  ALA266     -0.2715
     61  CB        18.6210  124.1130  128.4590 C.3   266  ALA266      0.0334
     62  N         16.1950  125.0610  129.8690 N.am  267  MET267     -0.1963
     63  CA        14.7960  125.3760  130.1390 C.3   267  MET267      0.1736
     64  C         14.2810  126.3760  129.1130 C.2   267  MET267      0.2616
     65  O         14.9430  127.3780  128.8210 O.2   267  MET267     -0.2715
     66  CB        14.6520  125.9700  131.5490 C.3   267  MET267      0.0427
     67  CG        13.2480  126.4000  131.9090 C.3   267  MET267      0.0599
     68  SD        12.0870  125.0170  131.9050 S.3   267  MET267     -0.1393
     69  CE        10.6080  125.8940  131.3910 C.3   267  MET267      0.0692
     70  N         13.0700  126.1350  128.6240 N.am  268  GLU268     -0.1977
     71  CA        12.5280  126.8600  127.4750 C.3   268  GLU268      0.1602
     72  C         11.7650  128.1370  127.8270 C.2   268  GLU268      0.2287
     73  O         10.8050  128.4860  127.1290 O.2   268  GLU268     -0.2864
     74  CB        11.6410  125.9180  126.6600 C.3   268  GLU268      0.0415
     75  CG        10.2800  125.5620  127.3020 C.3   268  GLU268      0.1163
     76  CD        10.2830  124.2920  128.1550 C.2   268  GLU268      0.3649
     77  OE1       11.3570  123.8450  128.6260 O.co2 268  GLU268     -0.2457
     78  OE2        9.1680  123.7620  128.3460 O.co2 268  GLU268     -0.2457
     79  N         25.8120  117.6600  122.0570 N.3   294  ARG294     -0.1245
     80  CA        24.9860  118.0150  123.2110 C.3   294  ARG294      0.1563
     81  C         24.3880  119.3980  123.0420 C.2   294  ARG294      0.2260
     82  O         23.1880  119.5930  123.2580 O.2   294  ARG294     -0.2867
     83  CB        25.8220  117.9810  124.4940 C.3   294  ARG294      0.0307
     84  CG        25.0760  118.4230  125.7470 C.3   294  ARG294      0.0489
     85  CD        23.9340  117.4930  126.0850 C.3   294  ARG294      0.2205
     86  NE        23.3480  117.9010  127.3520 N.pl3 294  ARG294     -0.0865
     87  CZ        22.3180  117.2990  127.9240 C.cat 294  ARG294      0.5346
     88  NH1       21.7670  116.2460  127.3390 N.pl3 294  ARG294      0.1354
     89  NH2       21.8410  117.7510  129.0740 N.pl3 294  ARG294      0.1354
     90  N         21.7330  119.4130  120.3310 N.3   297  THR297     -0.1203
     91  CA        20.4780  118.8150  120.7780 C.3   297  THR297      0.1994
     92  C         19.7440  119.7150  121.7580 C.2   297  THR297      0.2617
     93  O         18.5210  119.8530  121.6570 O.2   297  THR297     -0.2717
     94  CB        20.6810  117.4270  121.4000 C.3   297  THR297      0.1784
     95  OG1       21.5350  117.5140  122.5360 O.3   297  THR297     -0.2211
     96  CG2       21.3030  116.4940  120.4390 C.3   297  THR297      0.0376
     97  N         20.4490  120.3250  122.7130 N.am  298  VAL298     -0.1979
     98  CA        19.7520  121.0680  123.7600 C.3   298  VAL298      0.1595
     99  C         19.2760  122.4320  123.2610 C.2   298  VAL298      0.2287
    100  O         18.1490  122.8470  123.5610 O.2   298  VAL298     -0.2864
    101  CB        20.6090  121.1560  125.0310 C.3   298  VAL298      0.0276
    102  CG1       19.8810  121.9610  126.0850 C.3   298  VAL298      0.0022
    103  CG2       20.8960  119.7490  125.5780 C.3   298  VAL298      0.0022
    104  N         16.3090  121.4650  121.1600 N.3   301  HIS301     -0.1226
    105  CA        15.2090  121.0970  122.0400 C.3   301  HIS301      0.1752
    106  C         14.5030  122.3280  122.6110 C.2   301  HIS301      0.2595
    107  O         13.2810  122.4560  122.5030 O.2   301  HIS301     -0.2718
    108  CB        15.7600  120.2030  123.1530 C.3   301  HIS301      0.0759
    109  CG        14.7180  119.7080  124.0990 C.ar  301  HIS301      0.0818
    110  ND1       14.2120  118.4250  124.0490 N.ar  301  HIS301     -0.2268
    111  CD2       14.0940  120.3160  125.1360 C.ar  301  HIS301      0.1154
    112  CE1       13.3070  118.2720  125.0020 C.ar  301  HIS301      0.1986
    113  NE2       13.2150  119.4100  125.6750 N.ar  301  HIS301     -0.2212
    114  N         15.2580  123.2730  123.1870 N.am  302  GLU302     -0.1979
    115  CA        14.5880  124.4310  123.7780 C.3   302  GLU302      0.1602
    116  C         13.9040  125.2830  122.7190 C.2   302  GLU302      0.2287
    117  O         12.8180  125.8190  122.9610 O.2   302  GLU302     -0.2864
    118  CB        15.5410  125.2730  124.6260 C.3   302  GLU302      0.0415
    119  CG        16.3330  124.5110  125.7040 C.3   302  GLU302      0.1163
    120  CD        15.4870  123.5740  126.5660 C.2   302  GLU302      0.3649
    121  OE1       14.2540  123.7970  126.7160 O.co2 302  GLU302     -0.2457
    122  OE2       16.0500  122.5900  127.0910 O.co2 302  GLU302     -0.2457
    123  N         10.5260  123.8280  121.6460 N.3   305  HIS305     -0.1241
    124  CA         9.4630  124.0580  122.6150 C.3   305  HIS305      0.1621
    125  C          8.6800  125.3320  122.3230 C.2   305  HIS305      0.2264
    126  O          7.5700  125.4760  122.8410 O.2   305  HIS305     -0.2867
    127  CB        10.0440  124.2180  124.0250 C.3   305  HIS305      0.0745
    128  CG        10.1170  122.9560  124.8240 C.ar  305  HIS305      0.0817
    129  ND1        9.0560  122.0840  124.9760 N.ar  305  HIS305     -0.2268
    130  CD2       11.1400  122.4330  125.5360 C.ar  305  HIS305      0.1154
    131  CE1        9.4260  121.0820  125.7580 C.ar  305  HIS305      0.1986
    132  NE2       10.6830  121.2750  126.1190 N.ar  305  HIS305     -0.2212
    133  N          7.1940  117.2310  126.2420 N.3   324  GLU324     -0.1245
    134  CA         8.5580  116.7000  126.3000 C.3   324  GLU324      0.1567
    135  C          8.7920  115.5720  125.2970 C.2   324  GLU324      0.2260
    136  O          9.7740  115.5950  124.5490 O.2   324  GLU324     -0.2867
    137  CB         8.9240  116.2820  127.7230 C.3   324  GLU324      0.0388
    138  CG         8.9100  117.4450  128.7080 C.3   324  GLU324      0.1160
    139  CD         9.7990  118.6010  128.3010 C.2   324  GLU324      0.3649
    140  OE1       10.7010  118.4360  127.4490 O.co2 324  GLU324     -0.2457
    141  OE2        9.6060  119.7040  128.8600 O.co2 324  GLU324     -0.2457
    142  N         11.3530  116.1570  122.2520 N.3   328  VAL328     -0.1245
    143  CA        12.4850  115.2560  122.0140 C.3   328  VAL328      0.1561
    144  C         12.4150  114.6780  120.6050 C.2   328  VAL328      0.2260
    145  O         13.4260  114.5980  119.8990 O.2   328  VAL328     -0.2867
    146  CB        12.5600  114.1580  123.0910 C.3   328  VAL328      0.0252
    147  CG1       13.6740  113.1520  122.7510 C.3   328  VAL328      0.0019
    148  CG2       12.8510  114.7790  124.4470 C.3   328  VAL328      0.0019
    149  N          6.5600  116.7410  141.6390 N.3   376  MET376     -0.1230
    150  CA         6.7870  117.0800  140.2360 C.3   376  MET376      0.1702
    151  C          8.2680  117.0310  139.8850 C.2   376  MET376      0.2592
    152  O          8.6230  116.7490  138.7330 O.2   376  MET376     -0.2718
    153  CB         6.2080  118.4620  139.9070 C.3   376  MET376      0.0401
    154  CG         4.7300  118.4450  139.5150 C.3   376  MET376      0.0596
    155  SD         4.3320  117.1960  138.2710 S.3   376  MET376     -0.1393
    156  CE         5.3380  117.7240  136.8700 C.3   376  MET376      0.0692
    157  N          9.1430  117.3130  140.8510 N.am  377  GLU377     -0.1979
    158  CA        10.5780  117.2610  140.6070 C.3   377  GLU377      0.1602
    159  C         11.0680  115.8520  140.2820 C.2   377  GLU377      0.2287
    160  O         12.1850  115.7160  139.7710 O.2   377  GLU377     -0.2864
    161  CB        11.3510  117.9070  141.7710 C.3   377  GLU377      0.0415
    162  CG        11.0310  119.4090  141.9410 C.3   377  GLU377      0.1163
    163  CD        11.8370  120.0930  143.0360 C.2   377  GLU377      0.3649
    164  OE1       12.5920  119.4070  143.7600 O.co2 377  GLU377     -0.2457
    165  OE2       11.7140  121.3320  143.1900 O.co2 377  GLU377     -0.2457
    166  N         10.2390  114.0290  135.8050 N.3   380  TYR380     -0.1241
    167  CA        10.9300  114.3430  134.5580 C.3   380  TYR380      0.1605
    168  C         11.8740  113.1910  134.2100 C.2   380  TYR380      0.2264
    169  O         13.0950  113.2680  134.3650 O.2   380  TYR380     -0.2867
    170  CB        11.6360  115.6920  134.7000 C.3   380  TYR380      0.0534
    171  CG        10.6370  116.8320  134.6780 C.ar  380  TYR380     -0.0201
    172  CD1       10.4990  117.6270  133.5450 C.ar  380  TYR380     -0.0009
    173  CD2        9.8010  117.0880  135.7670 C.ar  380  TYR380     -0.0009
    174  CE1        9.5530  118.6530  133.5010 C.ar  380  TYR380      0.0417
    175  CE2        8.8590  118.1060  135.7280 C.ar  380  TYR380      0.0417
    176  CZ         8.7400  118.8790  134.5920 C.ar  380  TYR380      0.1957
    177  OH         7.7880  119.8660  134.5640 O.3   380  TYR380     -0.2866
    178  N         10.2700  111.3270  128.6970 N.3   385  TYR385     -0.1241
    179  CA        11.0070  112.0120  127.6380 C.3   385  TYR385      0.1605
    180  C         11.3040  111.0890  126.4600 C.2   385  TYR385      0.2264
    181  O         10.9700  111.3950  125.3100 O.2   385  TYR385     -0.2867
    182  CB        12.3300  112.5370  128.2050 C.3   385  TYR385      0.0534
    183  CG        12.1980  113.8910  128.8360 C.ar  385  TYR385     -0.0201
    184  CD1       12.7750  115.0050  128.2450 C.ar  385  TYR385     -0.0009
    185  CD2       11.4640  114.0690  130.0020 C.ar  385  TYR385     -0.0009
    186  CE1       12.6230  116.2780  128.8220 C.ar  385  TYR385      0.0417
    187  CE2       11.3080  115.3240  130.5780 C.ar  385  TYR385      0.0417
    188  CZ        11.8900  116.4150  129.9870 C.ar  385  TYR385      0.1957
    189  OH        11.7250  117.6610  130.5670 O.3   385  TYR385     -0.2866
    190  N         16.4390  117.5470  144.3450 N.3   839  MET839     -0.1245
    191  CA        16.3110  117.0470  142.9810 C.3   839  MET839      0.1570
    192  C         17.5920  116.3450  142.5420 C.2   839  MET839      0.2261
    193  O         17.5550  115.2390  141.9800 O.2   839  MET839     -0.2867
    194  CB        15.9730  118.2000  142.0420 C.3   839  MET839      0.0387
    195  CG        15.7010  117.7360  140.6490 C.3   839  MET839      0.0595
    196  SD        15.0800  119.0820  139.6400 S.3   839  MET839     -0.1393
    197  CE        14.6190  118.2270  138.1410 C.3   839  MET839      0.0692
@<TRIPOS>BOND
     1   145   144    2
     2    90    91    1
     3    96    94    1
     4   144   143    1
     5    91    94    1
     6    91    92    1
     7   104   105    1
     8    94    95    1
     9   123   124    1
    10    93    92    2
    11    92    97   am
    12   143   142    1
    13   143   146    1
    14   105   106    1
    15   105   108    1
    16    79    80    1
    17   125   124    1
    18   125   126    2
    19   107   106    2
    20   106   114   am
    21   124   127    1
    22    97    98    1
    23   116   117    2
    24   116   115    1
    25   147   146    1
    26    81    80    1
    27    81    82    2
    28   146   148    1
    29   108   109    1
    30   114   115    1
    31    80    83    1
    32    99   100    2
    33    99    98    1
    34    98   101    1
    35   115   118    1
    36   127   128    1
    37   110   109   ar
    38   110   112   ar
    39   109   111   ar
    40    83    84    1
    41   136   135    2
    42   118   119    1
    43   128   129   ar
    44   128   130   ar
    45   129   131   ar
    46   112   113   ar
    47   101   103    1
    48   101   102    1
    49   111   113   ar
    50   135   134    1
    51   181   180    2
    52   130   132   ar
    53   119   120    1
    54    84    85    1
    55   131   132   ar
    56    85    86    1
    57   133   134    1
    58   134   137    1
    59   180   179    1
    60   120   121   ar
    61   120   122   ar
    62    74    75    1
    63    74    71    1
    64    73    72    2
    65    75    76    1
    66    88    87    1
    67    86    87    2
    68   140   139   ar
    69    71    72    1
    70    71    70    1
    71   179   182    1
    72   179   178    1
    73   137   138    1
    74    87    89    1
    75    76    78   ar
    76    76    77   ar
    77   182   183    1
    78   184   186   ar
    79   184   183   ar
    80   139   138    1
    81   139   141   ar
    82    61    58    1
    83    70    64   am
    84    65    64    2
    85   186   188   ar
    86   183   185   ar
    87    64    63    1
    88    62    59   am
    89    62    63    1
    90    58    59    1
    91    58    57    1
    92   188   189    1
    93   188   187   ar
    94   185   187   ar
    95    59    60    2
    96    63    66    1
    97    56    55    2
    98    57    55   am
    99    55    54    1
   100    54    53    1
   101    69    68    1
   102    66    67    1
   103    68    67    1
   104    53    48   am
   105    24    23   ar
   106    25    23   ar
   107    23    22    1
   108    48    49    2
   109    48    47    1
   110   174   172   ar
   111   174   176   ar
   112   172   171   ar
   113    52    50    1
   114    50    47    1
   115    50    51    1
   116    22    21    1
   117   168   169    2
   118   168   167    1
   119    47    46    1
   120    21    18    1
   121   167   170    1
   122   167   166    1
   123   177   176    1
   124   176   175   ar
   125   171   170    1
   126   171   173   ar
   127    15    14    2
   128    16    14   am
   129    46    40   am
   130   175   173   ar
   131    14    13    1
   132    18    17    1
   133    18    19    1
   134    40    41    2
   135    40    39    1
   136   156   155    1
   137    19    20    2
   138    19    26   am
   139    13    12    1
   140    27    30    1
   141    27    26    1
   142    27    28    1
   143     9    12    1
   144     9    10    1
   145     9     8    1
   146    38    39    1
   147    29    28    2
   148    39    42    1
   149    10    11    2
   150   197   196    1
   151    28    31   am
   152   155   154    1
   153    42    43    1
   154   152   151    2
   155    31    32    1
   156   154   153    1
   157   196   195    1
   158   160   159    2
   159   151   150    1
   160   151   157   am
   161   153   150    1
   162    43    45   am
   163    43    44    2
   164   150   149    1
   165   159   158    1
   166    32    33    1
   167    32    35    1
   168    37    35    1
   169   158   157    1
   170   158   161    1
   171   195   194    1
   172    33    34    2
   173    35    36    1
   174   161   162    1
   175     7     5    1
   176   162   163    1
   177   193   192    2
   178     2     1    1
   179     2     5    1
   180     2     3    1
   181   194   191    1
   182     5     6    1
   183   192   191    1
   184     3     4    2
   185   191   190    1
   186   163   165   ar
   187   163   164   ar
