@<TRIPOS>MOLECULE
tmp/6ea8F00.pdb
 121 116 0 0 0
SMALL
GASTEIGER

@<TRIPOS>ATOM
      1  N         15.9710   21.1750 -106.9060 N.3    12  TYR12      -0.1241
      2  CA        16.9690   21.5050 -105.8980 C.3    12  TYR12       0.1605
      3  C         17.8570   22.6480 -106.3700 C.2    12  TYR12       0.2264
      4  O         18.4440   22.5890 -107.4550 O.2    12  TYR12      -0.2867
      5  CB        17.8270   20.2850 -105.5670 C.3    12  TYR12       0.0534
      6  CG        18.9880   20.6060 -104.6500 C.ar   12  TYR12      -0.0201
      7  CD1       18.7780   20.9000 -103.3080 C.ar   12  TYR12      -0.0009
      8  CD2       20.2940   20.6170 -105.1250 C.ar   12  TYR12      -0.0009
      9  CE1       19.8340   21.1970 -102.4640 C.ar   12  TYR12       0.0417
     10  CE2       21.3580   20.9120 -104.2880 C.ar   12  TYR12       0.0417
     11  CZ        21.1220   21.2010 -102.9590 C.ar   12  TYR12       0.1957
     12  OH        22.1760   21.4950 -102.1230 O.3    12  TYR12      -0.2866
     13  N         21.0540   24.9030 -104.7150 N.3    14  GLU14      -0.1245
     14  CA        21.9640   24.9560 -103.5770 C.3    14  GLU14       0.1567
     15  C         21.9130   26.3070 -102.8750 C.2    14  GLU14       0.2260
     16  O         22.1280   26.3800 -101.6590 O.2    14  GLU14      -0.2867
     17  CB        23.3860   24.6460 -104.0400 C.3    14  GLU14       0.0388
     18  CG        24.3730   24.3840 -102.9210 C.3    14  GLU14       0.1160
     19  CD        25.7610   24.0820 -103.4440 C.2    14  GLU14       0.3649
     20  OE1       25.9790   24.2330 -104.6650 O.co2  14  GLU14      -0.2457
     21  OE2       26.6330   23.6930 -102.6400 O.co2  14  GLU14      -0.2457
     22  N         19.4220   27.9770 -102.0990 N.3    16  LEU16      -0.1231
     23  CA        18.2320   28.0710 -101.2680 C.3    16  LEU16       0.1693
     24  C         18.3580   27.1370 -100.0720 C.2    16  LEU16       0.2592
     25  O         19.2820   26.3250  -99.9770 O.2    16  LEU16      -0.2718
     26  CB        16.9750   27.7350 -102.0800 C.3    16  LEU16       0.0284
     27  CG        16.6750   28.6710 -103.2490 C.3    16  LEU16       0.0019
     28  CD1       15.3380   28.3190 -103.8790 C.3    16  LEU16       0.0001
     29  CD2       16.6940   30.1180 -102.7850 C.3    16  LEU16       0.0001
     30  N         17.4160   27.2670  -99.1440 N.am   17  HIS17      -0.1962
     31  CA        17.3790   26.3630  -98.0070 C.3    17  HIS17       0.1787
     32  C         17.0480   24.9510  -98.4740 C.2    17  HIS17       0.2620
     33  O         16.3260   24.7480  -99.4530 O.2    17  HIS17      -0.2715
     34  CB        16.3570   26.8320  -96.9740 C.3    17  HIS17       0.0785
     35  CG        16.7500   28.0870  -96.2630 C.ar   17  HIS17       0.0821
     36  ND1       17.9240   28.2030  -95.5480 N.ar   17  HIS17      -0.2267
     37  CD2       16.1230   29.2830  -96.1590 C.ar   17  HIS17       0.1154
     38  CE1       18.0000   29.4190  -95.0370 C.ar   17  HIS17       0.1986
     39  NE2       16.9210   30.0930  -95.3910 N.ar   17  HIS17      -0.2212
     40  N         17.5950   23.9680  -97.7650 N.am   18  ALA18      -0.1963
     41  CA        17.4700   22.5660  -98.1420 C.3    18  ALA18       0.1728
     42  C         16.8870   21.7760  -96.9810 C.2    18  ALA18       0.2616
     43  O         17.4890   21.7070  -95.9060 O.2    18  ALA18      -0.2715
     44  CB        18.8220   21.9880  -98.5610 C.3    18  ALA18       0.0334
     45  N         15.7230   21.1870  -97.2010 N.am   19  PHE19      -0.1974
     46  CA        15.0790   20.2640  -96.2810 C.3    19  PHE19       0.1639
     47  C         14.8000   18.9850  -97.0480 C.2    19  PHE19       0.2290
     48  O         14.9160   18.9540  -98.2770 O.2    19  PHE19      -0.2864
     49  CB        13.7780   20.8680  -95.7250 C.3    19  PHE19       0.0560
     50  CG        13.8980   22.3140  -95.3470 C.ar   19  PHE19      -0.0200
     51  CD1       14.5660   22.6900  -94.1960 C.ar   19  PHE19      -0.0042
     52  CD2       13.3450   23.3010  -96.1470 C.ar   19  PHE19      -0.0042
     53  CE1       14.6810   24.0210  -93.8490 C.ar   19  PHE19      -0.0003
     54  CE2       13.4560   24.6350  -95.8030 C.ar   19  PHE19      -0.0003
     55  CZ        14.1240   24.9950  -94.6530 C.ar   19  PHE19      -0.0000
     56  N         12.7930   29.3200  -94.2660 N.3    27  ALA27      -0.1245
     57  CA        13.0260   28.1940  -93.3650 C.3    27  ALA27       0.1562
     58  C         11.9410   28.2180  -92.2930 C.2    27  ALA27       0.2260
     59  O         12.0400   28.9680  -91.3170 O.2    27  ALA27      -0.2867
     60  CB        14.4230   28.2610  -92.7540 C.3    27  ALA27       0.0290
     61  N         24.5920   14.6790 -102.1650 N.3    60  ARG60      -0.1245
     62  CA        24.3730   15.2060 -100.8260 C.3    60  ARG60       0.1563
     63  C         23.1290   14.5560 -100.2390 C.2    60  ARG60       0.2260
     64  O         22.0720   14.5430 -100.8770 O.2    60  ARG60      -0.2867
     65  CB        24.2180   16.7310 -100.8550 C.3    60  ARG60       0.0307
     66  CG        23.8490   17.3480  -99.5210 C.3    60  ARG60       0.0489
     67  CD        23.4740   18.8160  -99.6630 C.3    60  ARG60       0.2205
     68  NE        23.0830   19.3920  -98.3780 N.pl3  60  ARG60      -0.0865
     69  CZ        22.6220   20.6280  -98.2170 C.cat  60  ARG60       0.5346
     70  NH1       22.4890   21.4310  -99.2640 N.pl3  60  ARG60       0.1354
     71  NH2       22.2930   21.0610  -97.0060 N.pl3  60  ARG60       0.1354
     72  N         20.2000   14.4020  -97.3630 N.3    62  ILE62      -0.1245
     73  CA        19.4390   15.2970  -96.4930 C.3    62  ILE62       0.1561
     74  C         18.2990   14.4750  -95.9020 C.2    62  ILE62       0.2260
     75  O         17.3020   14.2050  -96.5830 O.2    62  ILE62      -0.2867
     76  CB        18.9020   16.5230  -97.2400 C.3    62  ILE62       0.0252
     77  CG1       20.0400   17.2770  -97.9320 C.3    62  ILE62       0.0019
     78  CG2       18.1530   17.4430  -96.2870 C.3    62  ILE62       0.0019
     79  CD1       19.5650   18.3270  -98.9120 C.3    62  ILE62       0.0001
     80  N         10.5020   20.7150  -93.6410 N.3   104  GLY104     -0.1210
     81  CA        11.0280   21.9970  -93.2230 C.3   104  GLY104      0.1956
     82  C         11.9990   21.7860  -92.0790 C.2   104  GLY104      0.2612
     83  O         12.5740   20.7120  -91.9310 O.2   104  GLY104     -0.2717
     84  N         12.1760   22.8270  -91.2690 N.am  105  ILE105     -0.1965
     85  CA        12.9550   22.6740  -90.0450 C.3   105  ILE105      0.1727
     86  C         12.1750   21.7450  -89.1210 C.2   105  ILE105      0.2617
     87  O         11.1560   22.1390  -88.5470 O.2   105  ILE105     -0.2715
     88  CB        13.2400   24.0200  -89.3730 C.3   105  ILE105      0.0290
     89  CG1       14.0510   24.9200  -90.3060 C.3   105  ILE105      0.0022
     90  CG2       13.9910   23.8070  -88.0670 C.3   105  ILE105      0.0023
     91  CD1       14.4860   26.2200  -89.6620 C.3   105  ILE105      0.0001
     92  N         12.6400   20.5050  -88.9920 N.am  106  GLY106     -0.1940
     93  CA        11.9480   19.5230  -88.1830 C.3   106  GLY106      0.2014
     94  C         12.7300   19.0840  -86.9630 C.2   106  GLY106      0.2638
     95  O         13.3650   19.9040  -86.2920 O.2   106  GLY106     -0.2714
     96  N         12.6970   17.7860  -86.6700 N.am  107  TYR107     -0.1973
     97  CA        13.3360   17.2670  -85.4690 C.3   107  TYR107      0.1639
     98  C         14.7300   16.7340  -85.7750 C.2   107  TYR107      0.2290
     99  O         15.4950   17.3800  -86.4980 O.2   107  TYR107     -0.2864
    100  CB        12.4520   16.1940  -84.8340 C.3   107  TYR107      0.0560
    101  CG        11.1170   16.7460  -84.3860 C.ar  107  TYR107     -0.0198
    102  CD1       10.9780   17.3520  -83.1470 C.ar  107  TYR107     -0.0009
    103  CD2       10.0020   16.6830  -85.2120 C.ar  107  TYR107     -0.0009
    104  CE1        9.7670   17.8670  -82.7340 C.ar  107  TYR107      0.0417
    105  CE2        8.7850   17.1980  -84.8080 C.ar  107  TYR107      0.0417
    106  CZ         8.6740   17.7870  -83.5660 C.ar  107  TYR107      0.1957
    107  OH         7.4670   18.3010  -83.1530 O.3   107  TYR107     -0.2866
    108  N         17.8760   15.1780  -87.3260 N.3   109  SER109     -0.1217
    109  CA        18.2140   15.1520  -88.7410 C.3   109  SER109      0.1889
    110  C         19.5900   14.5310  -88.9500 C.2   109  SER109      0.2288
    111  O         20.3330   14.2630  -88.0040 O.2   109  SER109     -0.2866
    112  CB        18.1840   16.5620  -89.3430 C.3   109  SER109      0.2089
    113  OG        19.2650   17.3360  -88.8620 O.3   109  SER109     -0.2183
    114  N         22.6740   14.9310  -92.1100 N.3   111  ASP111     -0.1239
    115  CA        23.2190   15.3600  -93.3900 C.3   111  ASP111      0.1674
    116  C         24.5050   14.5970  -93.6680 C.2   111  ASP111      0.2266
    117  O         25.2960   14.3420  -92.7550 O.2   111  ASP111     -0.2867
    118  CB        23.4820   16.8670  -93.4110 C.3   111  ASP111      0.1410
    119  CG        22.2050   17.6780  -93.4790 C.2   111  ASP111      0.3668
    120  OD1       21.1370   17.1300  -93.1350 O.co2 111  ASP111     -0.2456
    121  OD2       22.2640   18.8560  -93.8900 O.co2 111  ASP111     -0.2456
@<TRIPOS>BOND
     1     4     3    2
     2     1     2    1
     3     3     2    1
     4     2     5    1
     5     5     6    1
     6     8     6   ar
     7     8    10   ar
     8    13    14    1
     9    20    19   ar
    10     6     7   ar
    11    10    11   ar
    12    17    14    1
    13    17    18    1
    14    28    27    1
    15    14    15    1
    16    19    18    1
    17    19    21   ar
    18     7     9   ar
    19    27    29    1
    20    27    26    1
    21    11     9   ar
    22    11    12    1
    23    15    16    2
    24    61    62    1
    25    22    23    1
    26    26    23    1
    27    23    24    1
    28    64    63    2
    29    65    62    1
    30    65    66    1
    31    62    63    1
    32    24    25    2
    33    24    30   am
    34    67    66    1
    35    67    68    1
    36    33    32    2
    37    70    69    1
    38    30    31    1
    39    79    77    1
    40    44    41    1
    41    32    31    1
    42    32    40   am
    43    68    69    2
    44    48    47    2
    45    69    71    1
    46    41    40    1
    47    41    42    1
    48    31    34    1
    49    77    76    1
    50    72    73    1
    51    76    73    1
    52    76    78    1
    53    45    42   am
    54    45    46    1
    55    47    46    1
    56    42    43    2
    57    34    35    1
    58    75    74    2
    59    73    74    1
    60    46    49    1
    61    35    37   ar
    62    35    36   ar
    63    37    39   ar
    64    52    54   ar
    65    52    50   ar
    66    54    55   ar
    67    49    50    1
    68    36    38   ar
    69    39    38   ar
    70    50    51   ar
    71    55    53   ar
    72    56    57    1
    73    51    53   ar
    74   121   119   ar
    75   116   115    1
    76   116   117    2
    77    80    81    1
    78   119   118    1
    79   119   120   ar
    80   118   115    1
    81   115   114    1
    82    57    60    1
    83    57    58    1
    84    81    82    1
    85    58    59    2
    86    82    83    2
    87    82    84   am
    88    84    85    1
    89    89    91    1
    90    89    88    1
    91    85    88    1
    92    85    86    1
    93    88    90    1
    94   112   113    1
    95   112   109    1
    96    86    92   am
    97    86    87    2
    98    92    93    1
    99   110   109    1
   100   110   111    2
   101   109   108    1
   102    93    94    1
   103    94    96   am
   104    94    95    2
   105    96    97    1
   106    99    98    2
   107    98    97    1
   108    97   100    1
   109   103   105   ar
   110   103   101   ar
   111   100   101    1
   112   105   106   ar
   113   101   102   ar
   114   106   107    1
   115   106   104   ar
   116   102   104   ar
