@<TRIPOS>MOLECULE
tmp/6ea8A00.pdb
 149 140 0 0 0
SMALL
GASTEIGER

@<TRIPOS>ATOM
      1  N        -17.5760   14.8750  -23.1410 N.3   129  ASN129     -0.1225
      2  CA       -16.9610   16.0350  -23.7670 C.3   129  ASN129      0.1785
      3  C        -16.4220   15.6920  -25.1490 C.2   129  ASN129      0.2597
      4  O        -15.8950   14.5980  -25.3750 O.2   129  ASN129     -0.2718
      5  CB       -15.8310   16.5840  -22.8960 C.3   129  ASN129      0.1169
      6  CG       -16.2830   17.7200  -22.0010 C.2   129  ASN129      0.2627
      7  OD1      -17.4790   17.9180  -21.7770 O.2   129  ASN129     -0.2716
      8  ND2      -15.3240   18.4790  -21.4840 N.am  129  ASN129     -0.0877
      9  N        -16.5660   16.6370  -26.0720 N.am  130  ALA130     -0.1966
     10  CA       -15.9020   16.5700  -27.3610 C.3   130  ALA130      0.1728
     11  C        -14.5500   17.2710  -27.2770 C.2   130  ALA130      0.2616
     12  O        -14.2290   17.9410  -26.2920 O.2   130  ALA130     -0.2715
     13  CB       -16.7730   17.1970  -28.4490 C.3   130  ALA130      0.0334
     14  N        -13.7480   17.1170  -28.3270 N.am  131  VAL131     -0.1963
     15  CA       -12.3860   17.6370  -28.3490 C.3   131  VAL131      0.1727
     16  C        -12.1530   18.3740  -29.6590 C.2   131  VAL131      0.2616
     17  O        -12.3910   17.8230  -30.7390 O.2   131  VAL131     -0.2715
     18  CB       -11.3430   16.5140  -28.1760 C.3   131  VAL131      0.0290
     19  CG1       -9.9420   17.0290  -28.4800 C.3   131  VAL131      0.0023
     20  CG2      -11.4110   15.9330  -26.7770 C.3   131  VAL131      0.0023
     21  N        -11.6890   19.6180  -29.5620 N.am  132  TYR132     -0.1974
     22  CA       -11.1100   20.3280  -30.6920 C.3   132  TYR132      0.1639
     23  C         -9.8200   20.9880  -30.2380 C.2   132  TYR132      0.2290
     24  O         -9.8140   21.7310  -29.2510 O.2   132  TYR132     -0.2864
     25  CB       -12.0500   21.3930  -31.2720 C.3   132  TYR132      0.0560
     26  CG       -11.4310   22.1300  -32.4440 C.ar  132  TYR132     -0.0198
     27  CD1      -10.6910   23.2940  -32.2530 C.ar  132  TYR132     -0.0009
     28  CD2      -11.5650   21.6450  -33.7380 C.ar  132  TYR132     -0.0009
     29  CE1      -10.1120   23.9560  -33.3200 C.ar  132  TYR132      0.0417
     30  CE2      -10.9940   22.3020  -34.8110 C.ar  132  TYR132      0.0417
     31  CZ       -10.2690   23.4560  -34.5970 C.ar  132  TYR132      0.1957
     32  OH        -9.6980   24.1090  -35.6650 O.3   132  TYR132     -0.2866
     33  N        -20.4120   19.1260  -27.0260 N.3   139  TYR139     -0.1241
     34  CA       -20.3890   18.9970  -28.4810 C.3   139  TYR139      0.1605
     35  C        -20.7120   20.3170  -29.1710 C.2   139  TYR139      0.2264
     36  O        -20.0220   20.7210  -30.1150 O.2   139  TYR139     -0.2867
     37  CB       -21.3690   17.9090  -28.9260 C.3   139  TYR139      0.0534
     38  CG       -21.4650   17.7620  -30.4290 C.ar  139  TYR139     -0.0201
     39  CD1      -20.5270   17.0210  -31.1320 C.ar  139  TYR139     -0.0009
     40  CD2      -22.4920   18.3670  -31.1450 C.ar  139  TYR139     -0.0009
     41  CE1      -20.6060   16.8860  -32.5020 C.ar  139  TYR139      0.0417
     42  CE2      -22.5780   18.2360  -32.5190 C.ar  139  TYR139      0.0417
     43  CZ       -21.6320   17.4930  -33.1900 C.ar  139  TYR139      0.1957
     44  OH       -21.7090   17.3590  -34.5560 O.3   139  TYR139     -0.2866
     45  N        -17.7280   22.7830  -29.0120 N.3   142  ILE142     -0.1231
     46  CA       -16.6250   22.2940  -29.8350 C.3   142  ILE142      0.1692
     47  C        -16.9720   22.4200  -31.3110 C.2   142  ILE142      0.2591
     48  O        -16.1490   22.8540  -32.1280 O.2   142  ILE142     -0.2718
     49  CB       -16.2900   20.8400  -29.4570 C.3   142  ILE142      0.0266
     50  CG1      -15.6830   20.7750  -28.0550 C.3   142  ILE142      0.0019
     51  CG2      -15.3710   20.2100  -30.4830 C.3   142  ILE142      0.0020
     52  CD1      -14.4430   21.6290  -27.8830 C.3   142  ILE142      0.0001
     53  N        -18.2060   22.0590  -31.6680 N.am  143  LYS143     -0.1980
     54  CA       -18.6390   22.1300  -33.0590 C.3   143  LYS143      0.1596
     55  C        -18.5810   23.5560  -33.5890 C.2   143  LYS143      0.2287
     56  O        -18.0740   23.7980  -34.6890 O.2   143  LYS143     -0.2864
     57  CB       -20.0510   21.5710  -33.2000 C.3   143  LYS143      0.0298
     58  CG       -20.1520   20.4350  -34.2070 C.3   143  LYS143      0.0038
     59  CD       -19.5340   20.7970  -35.5530 C.3   143  LYS143      0.0206
     60  CE       -20.0120   19.8900  -36.6730 C.3   143  LYS143      0.1093
     61  NZ       -19.0880   19.9480  -37.8420 N.3   143  LYS143     -0.1314
     62  N        -14.9520   24.6620  -34.0770 N.3   146  ALA146     -0.1231
     63  CA       -14.3460   24.0610  -35.2620 C.3   146  ALA146      0.1694
     64  C        -14.7490   24.8090  -36.5260 C.2   146  ALA146      0.2591
     65  O        -13.9270   25.0050  -37.4290 O.2   146  ALA146     -0.2718
     66  CB       -14.7370   22.5870  -35.3640 C.3   146  ALA146      0.0304
     67  N        -16.0090   25.2410  -36.6050 N.am  147  LYS147     -0.1980
     68  CA       -16.4430   26.0440  -37.7430 C.3   147  LYS147      0.1596
     69  C        -15.7930   27.4210  -37.7250 C.2   147  LYS147      0.2287
     70  O        -15.4420   27.9600  -38.7820 O.2   147  LYS147     -0.2864
     71  CB       -17.9670   26.1660  -37.7490 C.3   147  LYS147      0.0298
     72  CG       -18.6890   24.9030  -38.1920 C.3   147  LYS147      0.0038
     73  CD       -20.1790   25.1460  -38.3720 C.3   147  LYS147      0.0206
     74  CE       -20.9410   24.9970  -37.0650 C.3   147  LYS147      0.1093
     75  NZ       -21.9750   23.9260  -37.1550 N.3   147  LYS147     -0.1314
     76  N        -12.3220   27.1370  -38.7540 N.3   150  ASN150     -0.1240
     77  CA       -12.2210   26.5600  -40.0900 C.3   150  ASN150      0.1653
     78  C        -11.7770   27.5900  -41.1200 C.2   150  ASN150      0.2266
     79  O        -11.0930   27.2410  -42.0890 O.2   150  ASN150     -0.2867
     80  CB       -13.5620   25.9480  -40.4990 C.3   150  ASN150      0.1155
     81  CG       -13.4010   24.6920  -41.3330 C.2   150  ASN150      0.2627
     82  OD1      -12.3080   24.3810  -41.8090 O.2   150  ASN150     -0.2716
     83  ND2      -14.4950   23.9610  -41.5160 N.am  150  ASN150     -0.0877
     84  N        -12.8440    6.5260  -24.8100 N.3   168  ILE168     -0.1245
     85  CA       -12.1300    6.8710  -26.0340 C.3   168  ILE168      0.1561
     86  C        -10.8750    7.6490  -25.6600 C.2   168  ILE168      0.2260
     87  O        -10.8130    8.2910  -24.6080 O.2   168  ILE168     -0.2867
     88  CB       -13.0250    7.6840  -27.0030 C.3   168  ILE168      0.0252
     89  CG1      -12.3700    7.8010  -28.3820 C.3   168  ILE168      0.0019
     90  CG2      -13.3230    9.0680  -26.4330 C.3   168  ILE168      0.0019
     91  CD1      -13.2350    8.5050  -29.4210 C.3   168  ILE168      0.0001
     92  N         -7.9350   10.3140  -27.6500 N.3   170  GLN170     -0.1245
     93  CA        -7.6750   11.1100  -28.8400 C.3   170  GLN170      0.1566
     94  C         -6.3840   11.8940  -28.6720 C.2   170  GLN170      0.2260
     95  O         -6.0210   12.2940  -27.5620 O.2   170  GLN170     -0.2867
     96  CB        -8.8190   12.0930  -29.1310 C.3   170  GLN170      0.0367
     97  CG       -10.1870   11.4630  -29.3170 C.3   170  GLN170      0.0905
     98  CD       -11.2350   12.4810  -29.7340 C.2   170  GLN170      0.2608
     99  OE1      -11.1880   13.0270  -30.8390 O.2   170  GLN170     -0.2717
    100  NE2      -12.1830   12.7490  -28.8450 N.am  170  GLN170     -0.0878
    101  N         -5.6480   26.2790  -33.7780 N.3   179  LYS179     -0.1231
    102  CA        -6.3760   25.5210  -34.7820 C.3   179  LYS179      0.1693
    103  C         -5.9000   24.0760  -34.8050 C.2   179  LYS179      0.2591
    104  O         -4.6980   23.7980  -34.7580 O.2   179  LYS179     -0.2718
    105  CB        -6.2030   26.1440  -36.1650 C.3   179  LYS179      0.0285
    106  CG        -7.0440   25.4630  -37.2330 C.3   179  LYS179      0.0035
    107  CD        -6.7850   26.0320  -38.6120 C.3   179  LYS179      0.0206
    108  CE        -7.6910   25.3760  -39.6400 C.3   179  LYS179      0.1093
    109  NZ        -7.4840   25.9320  -41.0020 N.3   179  LYS179     -0.1314
    110  N         -6.8550   23.1550  -34.8830 N.am  180  GLU180     -0.1979
    111  CA        -6.5370   21.7360  -34.9380 C.3   180  GLU180      0.1602
    112  C         -5.9770   21.3930  -36.3120 C.2   180  GLU180      0.2287
    113  O         -6.6210   21.6470  -37.3350 O.2   180  GLU180     -0.2864
    114  CB        -7.7840   20.9140  -34.6320 C.3   180  GLU180      0.0415
    115  CG        -7.5570   19.4200  -34.5410 C.3   180  GLU180      0.1163
    116  CD        -8.7960   18.6890  -34.0720 C.2   180  GLU180      0.3649
    117  OE1       -9.2200   18.9170  -32.9200 O.co2 180  GLU180     -0.2457
    118  OE2       -9.3590   17.9030  -34.8610 O.co2 180  GLU180     -0.2457
    119  N         -5.7290   15.0190  -35.9560 N.3   183  ARG183     -0.1245
    120  CA        -6.4830   14.3530  -34.9000 C.3   183  ARG183      0.1563
    121  C         -6.5060   12.8520  -35.1420 C.2   183  ARG183      0.2260
    122  O         -6.8780   12.4010  -36.2320 O.2   183  ARG183     -0.2867
    123  CB        -7.9140   14.8830  -34.8150 C.3   183  ARG183      0.0307
    124  CG        -8.7490   14.1470  -33.7850 C.3   183  ARG183      0.0489
    125  CD       -10.2180   14.1690  -34.1370 C.3   183  ARG183      0.2205
    126  NE       -10.7840   15.5090  -34.0540 N.pl3 183  ARG183     -0.0865
    127  CZ       -11.2900   16.0360  -32.9460 C.cat 183  ARG183      0.5346
    128  NH1      -11.7920   17.2640  -32.9640 N.pl3 183  ARG183      0.1354
    129  NH2      -11.2920   15.3360  -31.8180 N.pl3 183  ARG183      0.1354
    130  N         -7.8130    9.0520  -33.2210 N.3   185  ARG185     -0.1245
    131  CA        -8.7280    8.5000  -32.2310 C.3   185  ARG185      0.1563
    132  C         -8.3810    7.0450  -31.9640 C.2   185  ARG185      0.2260
    133  O         -8.2160    6.2600  -32.9020 O.2   185  ARG185     -0.2867
    134  CB       -10.1860    8.6000  -32.6830 C.3   185  ARG185      0.0307
    135  CG       -10.7210   10.0090  -32.8330 C.3   185  ARG185      0.0489
    136  CD       -12.2080    9.9750  -33.1560 C.3   185  ARG185      0.2205
    137  NE       -12.7050   11.2740  -33.6000 N.pl3 185  ARG185     -0.0865
    138  CZ       -12.8500   11.6180  -34.8760 C.cat 185  ARG185      0.5346
    139  NH1      -12.5370   10.7590  -35.8350 N.pl3 185  ARG185      0.1354
    140  NH2      -13.3080   12.8210  -35.1920 N.pl3 185  ARG185      0.1354
    141  N        -10.1080    3.8890  -30.0770 N.3   187  LYS187     -0.1245
    142  CA       -11.4190    3.4850  -29.5680 C.3   187  LYS187      0.1561
    143  C        -11.2400    2.4960  -28.4140 C.2   187  LYS187      0.2260
    144  O        -11.6180    1.3250  -28.4730 O.2   187  LYS187     -0.2867
    145  CB       -12.2720    2.9120  -30.6920 C.3   187  LYS187      0.0271
    146  CG       -12.4440    3.8680  -31.8630 C.3   187  LYS187      0.0035
    147  CD       -12.7050    5.2990  -31.3990 C.3   187  LYS187      0.0206
    148  CE       -13.0260    6.2220  -32.5700 C.3   187  LYS187      0.1093
    149  NZ       -14.4090    6.0170  -33.0810 N.3   187  LYS187     -0.1314
@<TRIPOS>BOND
     1    79    78    2
     2    82    81    2
     3    83    81   am
     4    81    80    1
     5    78    77    1
     6   109   108    1
     7    80    77    1
     8    77    76    1
     9   108   107    1
    10    70    69    2
    11   107   106    1
    12    73    72    1
    13    73    74    1
    14    72    71    1
    15    61    60    1
    16    71    68    1
    17    68    69    1
    18    68    67    1
    19    65    64    2
    20   113   112    2
    21   106   105    1
    22    75    74    1
    23    60    59    1
    24    67    64   am
    25    64    63    1
    26   112   111    1
    27   122   121    2
    28   105   102    1
    29   119   120    1
    30   139   138    1
    31    32    31    1
    32    59    58    1
    33    66    63    1
    34    63    62    1
    35   140   138    1
    36   121   120    1
    37   111   110    1
    38   111   114    1
    39   120   123    1
    40   110   103   am
    41   138   137    2
    42   118   116   ar
    43   123   124    1
    44    30    31   ar
    45    30    28   ar
    46   103   102    1
    47   103   104    2
    48   102   101    1
    49    56    55    2
    50   114   115    1
    51    31    29   ar
    52    44    43    1
    53   115   116    1
    54    58    57    1
    55   125   126    1
    56   125   124    1
    57   116   117   ar
    58   126   127    2
    59    28    26   ar
    60   137   136    1
    61    55    54    1
    62    29    27   ar
    63   130   131    1
    64    57    54    1
    65    43    42   ar
    66    43    41   ar
    67   136   135    1
    68   149   148    1
    69    54    53    1
    70   128   127    1
    71   127   129    1
    72   133   132    2
    73   135   134    1
    74   134   131    1
    75   148   147    1
    76    42    40   ar
    77    41    39   ar
    78    26    27   ar
    79    26    25    1
    80   131   132    1
    81    48    47    2
    82   146   147    1
    83   146   145    1
    84    53    47   am
    85    47    46    1
    86    25    22    1
    87    40    38   ar
    88    39    38   ar
    89    99    98    2
    90    17    16    2
    91    22    23    1
    92    22    21    1
    93   145   142    1
    94    51    49    1
    95    38    37    1
    96    23    24    2
    97    36    35    2
    98   141   142    1
    99    46    49    1
   100    46    45    1
   101    98    97    1
   102    98   100   am
   103    16    21   am
   104    16    15    1
   105   142   143    1
   106    49    50    1
   107    91    89    1
   108    97    96    1
   109    35    34    1
   110    96    93    1
   111    37    34    1
   112    93    94    1
   113    93    92    1
   114    94    95    2
   115    34    33    1
   116    19    18    1
   117   144   143    2
   118    13    10    1
   119    89    88    1
   120    15    14    1
   121    15    18    1
   122    14    11   am
   123    18    20    1
   124    50    52    1
   125    10    11    1
   126    10     9    1
   127    11    12    2
   128    88    90    1
   129    88    85    1
   130     9     3   am
   131    85    86    1
   132    85    84    1
   133    86    87    2
   134     4     3    2
   135     3     2    1
   136     2     1    1
   137     2     5    1
   138     5     6    1
   139     6     7    2
   140     6     8   am
