@<TRIPOS>MOLECULE
tmp/6ea9D01.pdb
 153 144 0 0 0
SMALL
GASTEIGER

@<TRIPOS>ATOM
      1  N        -16.2790   45.8230   80.6240 N.3   128  GLY128     -0.1210
      2  CA       -15.1170   46.6240   80.3320 C.3   128  GLY128      0.1956
      3  C        -14.2940   47.0010   81.5410 C.2   128  GLY128      0.2612
      4  O        -13.2270   47.6000   81.3800 O.2   128  GLY128     -0.2717
      5  N        -14.7770   46.7260   82.7480 N.am  129  ASN129     -0.1960
      6  CA       -13.9960   47.0370   83.9330 C.3   129  ASN129      0.1819
      7  C        -13.0370   45.8990   84.2570 C.2   129  ASN129      0.2621
      8  O        -13.3010   44.7300   83.9560 O.2   129  ASN129     -0.2715
      9  CB       -14.9100   47.3090   85.1230 C.3   129  ASN129      0.1195
     10  CG       -15.2870   48.7690   85.2410 C.2   129  ASN129      0.2630
     11  OD1      -14.9270   49.5890   84.3960 O.2   129  ASN129     -0.2716
     12  ND2      -16.0260   49.1010   86.2910 N.am  129  ASN129     -0.0877
     13  N        -11.9030   46.2580   84.8530 N.am  130  ALA130     -0.1963
     14  CA       -10.9740   45.3050   85.4410 C.3   130  ALA130      0.1728
     15  C        -11.1210   45.3330   86.9590 C.2   130  ALA130      0.2616
     16  O        -11.6660   46.2720   87.5350 O.2   130  ALA130     -0.2715
     17  CB        -9.5360   45.6200   85.0310 C.3   130  ALA130      0.0334
     18  N        -10.5780   44.3100   87.6130 N.am  131  VAL131     -0.1963
     19  CA       -10.7650   44.0990   89.0440 C.3   131  VAL131      0.1727
     20  C         -9.4090   44.0540   89.7340 C.2   131  VAL131      0.2616
     21  O         -8.4990   43.3550   89.2740 O.2   131  VAL131     -0.2715
     22  CB       -11.5320   42.7930   89.3160 C.3   131  VAL131      0.0290
     23  CG1      -11.5050   42.4690   90.7980 C.3   131  VAL131      0.0023
     24  CG2      -12.9520   42.8930   88.8050 C.3   131  VAL131      0.0023
     25  N         -9.2830   44.7930   90.8400 N.am  132  TYR132     -0.1974
     26  CA        -8.2210   44.5740   91.8160 C.3   132  TYR132      0.1639
     27  C         -8.8230   44.6390   93.2090 C.2   132  TYR132      0.2290
     28  O         -9.4060   45.6600   93.5820 O.2   132  TYR132     -0.2864
     29  CB        -7.0860   45.5970   91.7050 C.3   132  TYR132      0.0560
     30  CG        -5.9770   45.3440   92.7180 C.ar  132  TYR132     -0.0198
     31  CD1       -6.0600   45.8390   94.0160 C.ar  132  TYR132     -0.0009
     32  CD2       -4.8510   44.5990   92.3760 C.ar  132  TYR132     -0.0009
     33  CE1       -5.0590   45.6020   94.9420 C.ar  132  TYR132      0.0417
     34  CE2       -3.8410   44.3590   93.2980 C.ar  132  TYR132      0.0417
     35  CZ        -3.9530   44.8640   94.5770 C.ar  132  TYR132      0.1957
     36  OH        -2.9620   44.6280   95.4990 O.3   132  TYR132     -0.2866
     37  N         -9.0910   49.6590   83.0190 N.3   139  TYR139     -0.1241
     38  CA        -7.7880   49.0070   83.0980 C.3   139  TYR139      0.1605
     39  C         -6.7030   49.9510   83.6080 C.2   139  TYR139      0.2264
     40  O         -5.9190   49.5870   84.4920 O.2   139  TYR139     -0.2867
     41  CB        -7.3970   48.4420   81.7380 C.3   139  TYR139      0.0534
     42  CG        -6.0440   47.7640   81.7590 C.ar  139  TYR139     -0.0201
     43  CD1       -5.9030   46.4820   82.2650 C.ar  139  TYR139     -0.0009
     44  CD2       -4.9090   48.4090   81.2780 C.ar  139  TYR139     -0.0009
     45  CE1       -4.6810   45.8550   82.2960 C.ar  139  TYR139      0.0417
     46  CE2       -3.6680   47.7830   81.2970 C.ar  139  TYR139      0.0417
     47  CZ        -3.5690   46.5050   81.8080 C.ar  139  TYR139      0.1957
     48  OH        -2.3630   45.8610   81.8430 O.3   139  TYR139     -0.2866
     49  N         -6.9600   50.5260   87.3170 N.3   142  ILE142     -0.1231
     50  CA        -6.7430   49.2900   88.0610 C.3   142  ILE142      0.1692
     51  C         -5.2680   48.9250   88.0670 C.2   142  ILE142      0.2591
     52  O         -4.7140   48.5270   89.1010 O.2   142  ILE142     -0.2718
     53  CB        -7.6010   48.1610   87.4610 C.3   142  ILE142      0.0266
     54  CG1       -9.0930   48.4140   87.7220 C.3   142  ILE142      0.0019
     55  CG2       -7.1150   46.7940   87.9380 C.3   142  ILE142      0.0020
     56  CD1       -9.4680   48.5280   89.1850 C.3   142  ILE142      0.0001
     57  N         -4.6070   49.0640   86.9160 N.am  143  LYS143     -0.1980
     58  CA        -3.1760   48.7920   86.8440 C.3   143  LYS143      0.1596
     59  C         -2.3960   49.7070   87.7700 C.2   143  LYS143      0.2287
     60  O         -1.4410   49.2720   88.4250 O.2   143  LYS143     -0.2864
     61  CB        -2.6780   48.9490   85.4110 C.3   143  LYS143      0.0298
     62  CG        -2.4060   47.6390   84.7140 C.3   143  LYS143      0.0038
     63  CD        -1.2050   46.9270   85.3470 C.3   143  LYS143      0.0206
     64  CE        -0.7310   45.7660   84.4810 C.3   143  LYS143      0.1093
     65  NZ         0.3770   45.0020   85.0810 N.3   143  LYS143     -0.1314
     66  N         -2.8690   48.4690   91.4080 N.3   146  ALA146     -0.1231
     67  CA        -2.1520   47.2300   91.6940 C.3   146  ALA146      0.1694
     68  C         -0.6720   47.4870   91.9420 C.2   146  ALA146      0.2591
     69  O         -0.0840   46.9170   92.8690 O.2   146  ALA146     -0.2718
     70  CB        -2.3270   46.2480   90.5380 C.3   146  ALA146      0.0304
     71  N         -0.0510   48.3300   91.1150 N.am  147  LYS147     -0.1980
     72  CA         1.3650   48.6320   91.3020 C.3   147  LYS147      0.1596
     73  C          1.6120   49.4170   92.5910 C.2   147  LYS147      0.2287
     74  O          2.6150   49.1830   93.2730 O.2   147  LYS147     -0.2864
     75  CB         1.9130   49.3620   90.0770 C.3   147  LYS147      0.0298
     76  CG         1.9360   48.4690   88.8120 C.3   147  LYS147      0.0038
     77  CD         2.6370   49.1650   87.6220 C.3   147  LYS147      0.0206
     78  CE         1.6740   49.8190   86.6270 C.3   147  LYS147      0.1093
     79  NZ         1.0990   51.1100   87.1180 N.3   147  LYS147     -0.1314
     80  N          1.6440   47.0820   95.3120 N.3   150  ASN150     -0.1240
     81  CA         2.6760   46.0610   95.1910 C.3   150  ASN150      0.1653
     82  C          3.7520   46.2390   96.2520 C.2   150  ASN150      0.2266
     83  O          4.3690   45.2590   96.6800 O.2   150  ASN150     -0.2867
     84  CB         3.2830   46.1010   93.7910 C.3   150  ASN150      0.1155
     85  CG         3.7990   44.7500   93.3450 C.2   150  ASN150      0.2627
     86  OD1        3.0410   43.7770   93.2640 O.2   150  ASN150     -0.2716
     87  ND2        5.0980   44.6750   93.0680 N.am  150  ASN150     -0.0877
     88  N        -17.0720   37.2760   82.0390 N.3   168  ILE168     -0.1245
     89  CA       -16.0970   36.6790   82.9340 C.3   168  ILE168      0.1561
     90  C        -16.6240   36.8290   84.3500 C.2   168  ILE168      0.2260
     91  O        -17.3710   37.7610   84.6540 O.2   168  ILE168     -0.2867
     92  CB       -14.7090   37.3460   82.7430 C.3   168  ILE168      0.0252
     93  CG1      -13.6040   36.5190   83.4020 C.3   168  ILE168      0.0019
     94  CG2      -14.7100   38.7760   83.2810 C.3   168  ILE168      0.0019
     95  CD1      -12.1870   37.0480   83.1450 C.3   168  ILE168      0.0001
     96  N        -15.0060   36.6470   88.4750 N.3   170  GLN170     -0.1245
     97  CA       -13.7800   36.6130   89.2560 C.3   170  GLN170      0.1566
     98  C        -14.0990   36.6040   90.7400 C.2   170  GLN170      0.2260
     99  O        -15.1500   37.0850   91.1700 O.2   170  GLN170     -0.2867
    100  CB       -12.8800   37.8070   88.9490 C.3   170  GLN170      0.0367
    101  CG       -12.4630   37.9440   87.5030 C.3   170  GLN170      0.0905
    102  CD       -11.4580   39.0520   87.3380 C.2   170  GLN170      0.2608
    103  OE1      -10.3910   39.0020   87.9380 O.2   170  GLN170     -0.2717
    104  NE2      -11.7780   40.0470   86.5220 N.am  170  GLN170     -0.0878
    105  N         -5.0800   45.1520   99.9370 N.3   179  LYS179     -0.1231
    106  CA        -4.1820   44.4840   99.0060 C.3   179  LYS179      0.1693
    107  C         -4.7720   43.1540   98.5700 C.2   179  LYS179      0.2591
    108  O         -5.2970   42.3890   99.3840 O.2   179  LYS179     -0.2718
    109  CB        -2.8130   44.2480   99.6430 C.3   179  LYS179      0.0285
    110  CG        -1.7400   43.7690   98.6650 C.3   179  LYS179      0.0035
    111  CD        -0.4740   43.3410   99.4010 C.3   179  LYS179      0.0206
    112  CE         0.5990   42.8200   98.4480 C.3   179  LYS179      0.1093
    113  NZ         1.1420   43.8710   97.5450 N.3   179  LYS179     -0.1314
    114  N         -4.6780   42.8800   97.2750 N.am  180  GLU180     -0.1979
    115  CA        -5.2200   41.6510   96.7210 C.3   180  GLU180      0.1602
    116  C         -4.2960   40.4900   97.0630 C.2   180  GLU180      0.2287
    117  O         -3.1460   40.4450   96.6080 O.2   180  GLU180     -0.2864
    118  CB        -5.4080   41.8020   95.2160 C.3   180  GLU180      0.0415
    119  CG        -5.9320   40.5710   94.5190 C.3   180  GLU180      0.1163
    120  CD        -6.3200   40.8590   93.0840 C.2   180  GLU180      0.3649
    121  OE1       -7.2380   41.6780   92.8700 O.co2 180  GLU180     -0.2457
    122  OE2       -5.7100   40.2730   92.1680 O.co2 180  GLU180     -0.2457
    123  N         -6.6000   35.9880   93.4900 N.3   183  ARG183     -0.1245
    124  CA        -7.5390   36.2280   92.4000 C.3   183  ARG183      0.1563
    125  C         -7.7340   34.9210   91.6500 C.2   183  ARG183      0.2260
    126  O         -6.7620   34.3170   91.1860 O.2   183  ARG183     -0.2867
    127  CB        -7.0360   37.2950   91.4290 C.3   183  ARG183      0.0307
    128  CG        -7.9720   37.5140   90.2510 C.3   183  ARG183      0.0489
    129  CD        -7.2950   38.2410   89.0850 C.3   183  ARG183      0.2205
    130  NE        -6.5990   39.4500   89.5010 N.pl3 183  ARG183     -0.0865
    131  CZ        -7.0550   40.6790   89.2900 C.cat 183  ARG183      0.5346
    132  NH1       -6.3530   41.7270   89.7070 N.pl3 183  ARG183      0.1354
    133  NH2       -8.2410   40.8590   88.7090 N.pl3 183  ARG183      0.1354
    134  N        -10.0840   33.4650   88.3070 N.3   185  ARG185     -0.1245
    135  CA       -10.9180   33.9100   87.2000 C.3   185  ARG185      0.1563
    136  C        -11.6720   32.7170   86.6350 C.2   185  ARG185      0.2260
    137  O        -11.0830   31.6550   86.4180 O.2   185  ARG185     -0.2867
    138  CB       -10.0950   34.5760   86.1000 C.3   185  ARG185      0.0307
    139  CG        -9.3150   35.8220   86.5160 C.3   185  ARG185      0.0489
    140  CD        -8.6660   36.4340   85.2750 C.3   185  ARG185      0.2205
    141  NE        -7.7380   37.5360   85.5340 N.pl3 185  ARG185     -0.0865
    142  CZ        -6.4110   37.3940   85.6290 C.cat 185  ARG185      0.5346
    143  NH1       -5.8510   36.1960   85.5090 N.pl3 185  ARG185      0.1354
    144  NH2       -5.6420   38.4470   85.8360 N.pl3 185  ARG185      0.1354
    145  N        -13.8580   31.8110   83.3160 N.3   187  LYS187     -0.1245
    146  CA       -14.0270   32.3490   81.9690 C.3   187  LYS187      0.1561
    147  C        -15.4070   31.9980   81.4050 C.2   187  LYS187      0.2260
    148  O        -15.5650   31.2730   80.4220 O.2   187  LYS187     -0.2867
    149  CB       -12.8940   31.8610   81.0790 C.3   187  LYS187      0.0271
    150  CG       -11.4950   32.2260   81.6390 C.3   187  LYS187      0.0035
    151  CD       -11.4280   33.6790   82.0860 C.3   187  LYS187      0.0206
    152  CE       -10.0050   34.1040   82.3900 C.3   187  LYS187      0.1093
    153  NZ        -9.2360   34.2230   81.1160 N.3   187  LYS187     -0.1314
@<TRIPOS>BOND
     1     2     1    1
     2     2     3    1
     3   148   147    2
     4   149   150    1
     5   149   146    1
     6   153   152    1
     7    44    46   ar
     8    44    42   ar
     9    46    47   ar
    10     4     3    2
    11   147   146    1
    12     3     5   am
    13   150   151    1
    14    41    42    1
    15    41    38    1
    16    42    43   ar
    17    47    48    1
    18    47    45   ar
    19   146   145    1
    20    88    89    1
    21   151   152    1
    22    43    45   ar
    23    92    89    1
    24    92    94    1
    25    92    93    1
    26     5     6    1
    27    89    90    1
    28    37    38    1
    29    38    39    1
    30    95    93    1
    31    39    40    2
    32     6     7    1
    33     6     9    1
    34     8     7    2
    35     7    13   am
    36    90    91    2
    37    11    10    2
    38    64    65    1
    39    64    63    1
    40    62    63    1
    41    62    61    1
    42    13    14    1
    43    17    14    1
    44     9    10    1
    45    10    12   am
    46   140   141    1
    47   140   139    1
    48    61    58    1
    49    14    15    1
    50   143   142    1
    51   141   142    2
    52   142   144    1
    53   138   139    1
    54   138   135    1
    55   137   136    2
    56   104   102   am
    57    78    79    1
    58    78    77    1
    59   136   135    1
    60    58    57    1
    61    58    59    1
    62    57    51   am
    63    15    16    2
    64    15    18   am
    65   135   134    1
    66    49    50    1
    67   102   101    1
    68   102   103    2
    69    53    54    1
    70    53    55    1
    71    53    50    1
    72   101   100    1
    73    18    19    1
    74    77    76    1
    75    54    56    1
    76    59    60    2
    77    50    51    1
    78    51    52    2
    79    96    97    1
    80   133   131    1
    81    24    22    1
    82    76    75    1
    83   100    97    1
    84    19    22    1
    85    19    20    1
    86   129   130    1
    87   129   128    1
    88    97    98    1
    89    21    20    2
    90   131   130    2
    91   131   132    1
    92    22    23    1
    93    20    25   am
    94    75    72    1
    95   128   127    1
    96    70    67    1
    97    98    99    2
    98    25    26    1
    99    71    72    1
   100    71    68   am
   101   126   125    2
   102    72    73    1
   103    66    67    1
   104   127   124    1
   105   125   124    1
   106    67    68    1
   107    29    26    1
   108    29    30    1
   109    26    27    1
   110    68    69    2
   111   122   120   ar
   112    32    30   ar
   113    32    34   ar
   114   124   123    1
   115    73    74    2
   116    30    31   ar
   117   121   120   ar
   118    87    85   am
   119   120   119    1
   120    27    28    2
   121    86    85    2
   122    34    35   ar
   123    85    84    1
   124    84    81    1
   125    31    33   ar
   126   119   118    1
   127    35    33   ar
   128    35    36    1
   129    81    80    1
   130    81    82    1
   131   118   115    1
   132    82    83    2
   133   117   116    2
   134   115   116    1
   135   115   114    1
   136   114   107   am
   137   113   112    1
   138   112   111    1
   139   107   106    1
   140   107   108    2
   141   110   111    1
   142   110   109    1
   143   106   109    1
   144   106   105    1
