@<TRIPOS>MOLECULE
tmp/6ea9E00.pdb
 119 114 0 0 0
SMALL
GASTEIGER

@<TRIPOS>ATOM
      1  N        -17.3840   32.3660   17.0400 N.3    13  TYR13      -0.1241
      2  CA       -15.9490   32.6190   16.9530 C.3    13  TYR13       0.1605
      3  C        -15.4180   33.2030   18.2590 C.2    13  TYR13       0.2264
      4  O        -16.0480   34.0660   18.8770 O.2    13  TYR13      -0.2867
      5  CB       -15.6220   33.5600   15.7910 C.3    13  TYR13       0.0534
      6  CG       -14.1750   33.9850   15.8040 C.ar   13  TYR13      -0.0201
      7  CD1      -13.1620   33.0820   15.4750 C.ar   13  TYR13      -0.0009
      8  CD2      -13.8120   35.2730   16.1930 C.ar   13  TYR13      -0.0009
      9  CE1      -11.8300   33.4590   15.5050 C.ar   13  TYR13       0.0417
     10  CE2      -12.4810   35.6580   16.2290 C.ar   13  TYR13       0.0417
     11  CZ       -11.4980   34.7520   15.8850 C.ar   13  TYR13       0.1957
     12  OH       -10.1830   35.1330   15.9250 O.3    13  TYR13      -0.2866
     13  N        -11.5200   34.4080   19.5920 N.3    15  GLU15      -0.1245
     14  CA       -10.1090   34.5460   19.2450 C.3    15  GLU15       0.1567
     15  C         -9.1880   33.8050   20.2110 C.2    15  GLU15       0.2260
     16  O         -8.0390   33.5240   19.8550 O.2    15  GLU15      -0.2867
     17  CB        -9.7140   36.0230   19.1800 C.3    15  GLU15       0.0388
     18  CG        -9.7680   36.7480   20.5180 C.3    15  GLU15       0.1160
     19  CD        -9.3030   38.1880   20.4160 C.2    15  GLU15       0.3649
     20  OE1       -8.9520   38.6270   19.3020 O.co2  15  GLU15      -0.2457
     21  OE2       -9.2830   38.8810   21.4510 O.co2  15  GLU15      -0.2457
     22  N         -9.5440   30.7610   21.2510 N.3    17  LEU17      -0.1231
     23  CA        -9.6200   29.3330   20.9860 C.3    17  LEU17       0.1693
     24  C         -8.9270   29.0230   19.6620 C.2    17  LEU17       0.2592
     25  O         -8.6090   29.9210   18.8790 O.2    17  LEU17      -0.2718
     26  CB       -11.0830   28.8730   20.9350 C.3    17  LEU17       0.0284
     27  CG       -11.9800   29.0680   22.1640 C.3    17  LEU17       0.0019
     28  CD1      -13.3360   28.3930   21.9500 C.3    17  LEU17       0.0001
     29  CD2      -11.3170   28.5650   23.4380 C.3    17  LEU17       0.0001
     30  N         -8.7000   27.7330   19.4180 N.am   18  HIS18      -0.1962
     31  CA        -8.1970   27.3070   18.1190 C.3    18  HIS18       0.1787
     32  C         -9.2010   27.6960   17.0430 C.2    18  HIS18       0.2620
     33  O        -10.4170   27.6240   17.2530 O.2    18  HIS18      -0.2715
     34  CB        -7.9790   25.7950   18.0870 C.3    18  HIS18       0.0785
     35  CG        -7.0640   25.2840   19.1540 C.ar   18  HIS18       0.0821
     36  ND1       -5.6950   25.4530   19.1120 N.ar   18  HIS18      -0.2267
     37  CD2       -7.3250   24.5960   20.2920 C.ar   18  HIS18       0.1154
     38  CE1       -5.1550   24.8950   20.1820 C.ar   18  HIS18       0.1986
     39  NE2       -6.1230   24.3700   20.9150 N.ar   18  HIS18      -0.2212
     40  N         -8.6890   28.1460   15.8980 N.am   19  ALA19      -0.1963
     41  CA        -9.5220   28.6280   14.8030 C.3    19  ALA19       0.1728
     42  C         -9.3210   27.7510   13.5760 C.2    19  ALA19       0.2616
     43  O         -8.1990   27.6200   13.0710 O.2    19  ALA19      -0.2715
     44  CB        -9.2150   30.0920   14.4760 C.3    19  ALA19       0.0334
     45  N        -10.4090   27.1760   13.0880 N.am   20  PHE20      -0.1974
     46  CA       -10.4580   26.3930   11.8660 C.3    20  PHE20       0.1639
     47  C        -11.6450   26.8940   11.0610 C.2    20  PHE20       0.2290
     48  O        -12.4680   27.6570   11.5710 O.2    20  PHE20      -0.2864
     49  CB       -10.6170   24.8960   12.1830 C.3    20  PHE20       0.0560
     50  CG        -9.7280   24.4220   13.2790 C.ar   20  PHE20      -0.0200
     51  CD1       -8.3660   24.3020   13.0710 C.ar   20  PHE20      -0.0042
     52  CD2      -10.2460   24.0970   14.5170 C.ar   20  PHE20      -0.0042
     53  CE1       -7.5380   23.8650   14.0800 C.ar   20  PHE20      -0.0003
     54  CE2       -9.4200   23.6570   15.5340 C.ar   20  PHE20      -0.0003
     55  CZ        -8.0640   23.5400   15.3120 C.ar   20  PHE20      -0.0000
     56  N         -7.3610   20.9800   19.4800 N.3    28  ALA28      -0.1245
     57  CA        -6.9000   21.0180   18.0940 C.3    28  ALA28       0.1562
     58  C         -6.7700   19.5900   17.5730 C.2    28  ALA28       0.2260
     59  O         -5.7410   18.9370   17.7760 O.2    28  ALA28      -0.2867
     60  CB        -5.5750   21.7660   17.9890 C.3    28  ALA28       0.0290
     61  N        -11.4120   38.6100    9.8560 N.3    61  ARG61      -0.1245
     62  CA       -10.3960   37.5750    9.7270 C.3    61  ARG61       0.1563
     63  C        -10.9140   36.4530    8.8340 C.2    61  ARG61       0.2260
     64  O        -12.0290   35.9600    9.0390 O.2    61  ARG61      -0.2867
     65  CB       -10.0060   37.0440   11.1130 C.3    61  ARG61       0.0307
     66  CG        -9.1950   35.7790   11.0950 C.3    61  ARG61       0.0489
     67  CD        -8.8170   35.3090   12.4960 C.3    61  ARG61       0.2205
     68  NE        -7.8570   34.2060   12.4260 N.pl3  61  ARG61      -0.0865
     69  CZ        -7.4770   33.4630   13.4610 C.cat  61  ARG61       0.5346
     70  NH1       -7.9690   33.7010   14.6720 N.pl3  61  ARG61       0.1354
     71  NH2       -6.5980   32.4820   13.2840 N.pl3  61  ARG61       0.1354
     72  N        -11.0260   21.0260   11.2350 N.3   105  GLY105     -0.1210
     73  CA       -10.0230   20.8460   12.2640 C.3   105  GLY105      0.1956
     74  C         -8.6820   21.2270   11.6640 C.2   105  GLY105      0.2612
     75  O         -8.6270   21.9500   10.6720 O.2   105  GLY105     -0.2717
     76  N         -7.6100   20.7120   12.2610 N.am  106  ILE106     -0.1965
     77  CA        -6.3030   20.8240   11.6100 C.3   106  ILE106      0.1727
     78  C         -6.3260   19.9320   10.3770 C.2   106  ILE106      0.2617
     79  O         -6.3820   18.7040   10.4910 O.2   106  ILE106     -0.2715
     80  CB        -5.1520   20.4480   12.5470 C.3   106  ILE106      0.0290
     81  CG1       -5.0360   21.4750   13.6690 C.3   106  ILE106      0.0022
     82  CG2       -3.8210   20.3470   11.7590 C.3   106  ILE106      0.0023
     83  CD1       -3.9650   21.1520   14.6790 C.3   106  ILE106      0.0001
     84  N         -6.3350   20.5470    9.1980 N.am  107  GLY107     -0.1940
     85  CA        -6.4540   19.8100    7.9560 C.3   107  GLY107      0.2014
     86  C         -5.2440   19.9340    7.0510 C.2   107  GLY107      0.2638
     87  O         -4.0990   19.8140    7.5020 O.2   107  GLY107     -0.2714
     88  N         -5.4870   20.1650    5.7610 N.am  108  TYR108     -0.1973
     89  CA        -4.3940   20.2730    4.8010 C.3   108  TYR108      0.1639
     90  C         -4.0670   21.7390    4.5380 C.2   108  TYR108      0.2290
     91  O         -4.2040   22.5680    5.4420 O.2   108  TYR108     -0.2864
     92  CB        -4.7500   19.5150    3.5240 C.3   108  TYR108      0.0560
     93  CG        -4.9580   18.0400    3.8020 C.ar  108  TYR108     -0.0198
     94  CD1       -3.8800   17.1660    3.8860 C.ar  108  TYR108     -0.0009
     95  CD2       -6.2350   17.5340    4.0330 C.ar  108  TYR108     -0.0009
     96  CE1       -4.0670   15.8260    4.1510 C.ar  108  TYR108      0.0417
     97  CE2       -6.4340   16.1960    4.3030 C.ar  108  TYR108      0.0417
     98  CZ        -5.3530   15.3480    4.3680 C.ar  108  TYR108      0.1957
     99  OH        -5.5540   14.0140    4.6390 O.3   108  TYR108     -0.2866
    100  N         -3.7250   25.5830    3.9680 N.3   110  SER110     -0.1217
    101  CA        -4.6480   26.5620    4.5340 C.3   110  SER110      0.1889
    102  C         -4.2450   27.9680    4.1280 C.2   110  SER110      0.2288
    103  O         -3.0960   28.2310    3.7660 O.2   110  SER110     -0.2866
    104  CB        -4.7110   26.4980    6.0700 C.3   110  SER110      0.2089
    105  OG        -3.5220   26.9980    6.6620 O.3   110  SER110     -0.2183
    106  N         -4.9960   32.0190    5.6630 N.3   112  ASP112     -0.1239
    107  CA        -5.5560   32.9330    6.6520 C.3   112  ASP112      0.1674
    108  C         -5.2510   34.3640    6.2250 C.2   112  ASP112      0.2266
    109  O         -4.1300   34.6650    5.7990 O.2   112  ASP112     -0.2867
    110  CB        -4.9780   32.6600    8.0550 C.3   112  ASP112      0.1410
    111  CG        -5.5430   31.3970    8.6950 C.2   112  ASP112      0.3668
    112  OD1       -5.2760   30.2970    8.1710 O.co2 112  ASP112     -0.2456
    113  OD2       -6.2210   31.4950    9.7480 O.co2 112  ASP112     -0.2456
    114  N         -6.1760   38.8500    6.7070 N.3   114  CYS114     -0.1235
    115  CA        -6.7760   40.0360    7.3060 C.3   114  CYS114      0.1677
    116  C         -7.6340   40.6920    6.2260 C.2   114  CYS114      0.2270
    117  O         -7.1080   41.1760    5.2180 O.2   114  CYS114     -0.2867
    118  CB        -5.6990   40.9970    7.8050 C.3   114  CYS114      0.0956
    119  SG        -5.0990   40.6940    9.4800 S.3   114  CYS114     -0.0801
@<TRIPOS>BOND
     1    92    93    1
     2    92    89    1
     3   103   102    2
     4    93    94   ar
     5    93    95   ar
     6    94    96   ar
     7   100   101    1
     8    95    97   ar
     9   102   101    1
    10    96    98   ar
    11    97    98   ar
    12    98    99    1
    13   101   104    1
    14    90    89    1
    15    90    91    2
    16    89    88    1
    17   117   116    2
    18   106   107    1
    19    88    86   am
    20   109   108    2
    21   104   105    1
    22   108   107    1
    23   116   115    1
    24   107   110    1
    25   114   115    1
    26    86    87    2
    27    86    85    1
    28   115   118    1
    29   118   119    1
    30    85    84    1
    31   110   111    1
    32   112   111   ar
    33   111   113   ar
    34    63    64    2
    35    63    62    1
    36    84    78   am
    37    62    61    1
    38    62    65    1
    39    78    79    2
    40    78    77    1
    41    75    74    2
    42    47    48    2
    43    47    46    1
    44    66    65    1
    45    66    67    1
    46    72    73    1
    47    77    76    1
    48    77    80    1
    49    74    76   am
    50    74    73    1
    51    82    80    1
    52    46    49    1
    53    46    45    1
    54    49    50    1
    55    68    67    1
    56    68    69    2
    57    80    81    1
    58    51    50   ar
    59    51    53   ar
    60    43    42    2
    61    45    42   am
    62    50    52   ar
    63    71    69    1
    64    69    70    1
    65    42    41    1
    66    81    83    1
    67    53    55   ar
    68    44    41    1
    69    52    54   ar
    70    41    40    1
    71    55    54   ar
    72     7     9   ar
    73     7     6   ar
    74     9    11   ar
    75     5     6    1
    76     5     2    1
    77     6     8   ar
    78    11    12    1
    79    11    10   ar
    80    40    32   am
    81     8    10   ar
    82     2     1    1
    83     2     3    1
    84    32    33    2
    85    32    31    1
    86    58    59    2
    87    58    57    1
    88    60    57    1
    89    34    31    1
    90    34    35    1
    91    57    56    1
    92    31    30    1
    93     3     4    2
    94    25    24    2
    95    36    35   ar
    96    36    38   ar
    97    35    37   ar
    98    17    14    1
    99    17    18    1
   100    14    13    1
   101    14    15    1
   102    20    19   ar
   103    30    24   am
   104    24    23    1
   105    16    15    2
   106    38    39   ar
   107    37    39   ar
   108    19    18    1
   109    19    21   ar
   110    26    23    1
   111    26    27    1
   112    23    22    1
   113    28    27    1
   114    27    29    1
