@<TRIPOS>MOLECULE
tmp/6eacB00.pdb
 192 181 0 0 0
SMALL
GASTEIGER

@<TRIPOS>ATOM
      1  N         12.5110   21.9140   68.5920 N.3    78  TYR78      -0.1241
      2  CA        13.7410   21.6970   69.3370 C.3    78  TYR78       0.1605
      3  C         14.0760   22.9810   70.0820 C.2    78  TYR78       0.2264
      4  O         13.4430   24.0220   69.8900 O.2    78  TYR78      -0.2867
      5  CB        14.8910   21.2600   68.4190 C.3    78  TYR78       0.0534
      6  CG        15.1960   22.2090   67.2770 C.ar   78  TYR78      -0.0201
      7  CD1       15.9800   23.3370   67.4760 C.ar   78  TYR78      -0.0009
      8  CD2       14.7140   21.9650   65.9960 C.ar   78  TYR78      -0.0009
      9  CE1       16.2660   24.2030   66.4350 C.ar   78  TYR78       0.0417
     10  CE2       14.9980   22.8260   64.9490 C.ar   78  TYR78       0.0417
     11  CZ        15.7750   23.9420   65.1780 C.ar   78  TYR78       0.1957
     12  OH        16.0660   24.8070   64.1490 O.3    78  TYR78      -0.2866
     13  N         22.2510   28.7800   72.6620 N.3    82  GLN82      -0.1245
     14  CA        22.7290   29.6910   71.6290 C.3    82  GLN82       0.1566
     15  C         23.8000   30.5920   72.2290 C.2    82  GLN82       0.2260
     16  O         23.5190   31.3700   73.1470 O.2    82  GLN82      -0.2867
     17  CB        21.5830   30.5200   71.0540 C.3    82  GLN82       0.0367
     18  CG        20.5370   29.6850   70.3410 C.3    82  GLN82       0.0905
     19  CD        19.4490   30.5250   69.7150 C.2    82  GLN82       0.2608
     20  OE1       18.9220   31.4450   70.3400 O.2    82  GLN82      -0.2717
     21  NE2       19.1080   30.2150   68.4690 N.am   82  GLN82      -0.0878
     22  N         13.0260   26.6520   70.1080 N.3    90  LEU90      -0.1231
     23  CA        13.3980   27.0700   68.7660 C.3    90  LEU90       0.1693
     24  C         12.5180   26.3450   67.7710 C.2    90  LEU90       0.2593
     25  O         11.3310   26.6770   67.6230 O.2    90  LEU90      -0.2718
     26  CB        14.8840   26.8000   68.5130 C.3    90  LEU90       0.0284
     27  CG        15.8470   27.5250   69.4540 C.3    90  LEU90       0.0019
     28  CD1       17.2860   27.0690   69.2320 C.3    90  LEU90       0.0001
     29  CD2       15.7310   29.0330   69.2800 C.3    90  LEU90       0.0001
     30  N         13.0450   25.3400   67.0730 N.am   91  GLY91      -0.1942
     31  CA        12.2820   24.5450   66.1390 C.3    91  GLY91       0.2014
     32  C         12.5090   24.9700   64.6980 C.2    91  GLY91       0.2639
     33  O         13.1950   25.9500   64.3960 O.2    91  GLY91      -0.2714
     34  N         11.9160   24.1940   63.7900 N.am   92  ASP92      -0.1957
     35  CA        11.9830   24.5040   62.3670 C.3    92  ASP92       0.1840
     36  C         11.2370   25.8000   62.0700 C.2    92  ASP92       0.2623
     37  O         10.0370   25.7830   61.7700 O.2    92  ASP92      -0.2715
     38  CB        11.4040   23.3560   61.5330 C.3    92  ASP92       0.1450
     39  CG        12.3250   22.1510   61.4730 C.2    92  ASP92       0.3671
     40  OD1       13.5520   22.3220   61.6400 O.co2  92  ASP92      -0.2456
     41  OD2       11.8190   21.0310   61.2520 O.co2  92  ASP92      -0.2456
     42  N         11.9450   26.9290   62.1430 N.am   93  GLY93      -0.1940
     43  CA        11.3170   28.2200   61.9330 C.3    93  GLY93       0.2014
     44  C         11.1550   28.6210   60.4830 C.2    93  GLY93       0.2638
     45  O         10.3640   29.5230   60.1890 O.2    93  GLY93      -0.2714
     46  N         11.8860   27.9730   59.5610 N.am   94  ARG94      -0.1977
     47  CA        11.8040   28.3490   58.1530 C.3    94  ARG94       0.1597
     48  C         12.0790   27.1700   57.2260 C.2    94  ARG94       0.2287
     49  O         12.5440   27.3650   56.0980 O.2    94  ARG94      -0.2864
     50  CB        12.7810   29.4850   57.8270 C.3    94  ARG94       0.0334
     51  CG        14.2450   29.1150   57.9630 C.3    94  ARG94       0.0492
     52  CD        15.1270   30.2020   57.3840 C.3    94  ARG94       0.2205
     53  NE        16.5400   29.9700   57.6550 N.pl3  94  ARG94      -0.0865
     54  CZ        17.5280   30.6590   57.0950 C.cat  94  ARG94       0.5346
     55  NH1       17.2570   31.6180   56.2200 N.pl3  94  ARG94       0.1354
     56  NH2       18.7870   30.3840   57.4040 N.pl3  94  ARG94       0.1354
     57  N         14.1740   17.7430   53.4860 N.3   112  HIS112     -0.1241
     58  CA        13.9270   18.9770   54.2190 C.3   112  HIS112      0.1621
     59  C         14.0060   20.1530   53.2550 C.2   112  HIS112      0.2264
     60  O         15.0510   20.3870   52.6380 O.2   112  HIS112     -0.2867
     61  CB        14.9280   19.1580   55.3590 C.3   112  HIS112      0.0745
     62  CG        14.7140   20.4110   56.1520 C.ar  112  HIS112      0.0817
     63  ND1       14.0230   20.4280   57.3450 N.ar  112  HIS112     -0.2268
     64  CD2       15.0830   21.6920   55.9130 C.ar  112  HIS112      0.1154
     65  CE1       13.9860   21.6640   57.8120 C.ar  112  HIS112      0.1986
     66  NE2       14.6210   22.4500   56.9620 N.ar  112  HIS112     -0.2212
     67  N         14.3240   23.8360   52.9700 N.3   114  LYS114     -0.1245
     68  CA        14.7470   24.9820   53.7650 C.3   114  LYS114      0.1561
     69  C         14.3520   26.2760   53.0630 C.2   114  LYS114      0.2260
     70  O         14.6840   26.4810   51.8910 O.2   114  LYS114     -0.2867
     71  CB        16.2570   24.9410   54.0030 C.3   114  LYS114      0.0271
     72  CG        16.7810   26.0890   54.8440 C.3   114  LYS114      0.0035
     73  CD        18.1600   25.7800   55.4110 C.3   114  LYS114      0.0206
     74  CE        18.6530   26.8990   56.3160 C.3   114  LYS114      0.1093
     75  NZ        20.0050   26.6160   56.8760 N.3   114  LYS114     -0.1314
     76  N          6.9900   27.9300   64.7060 N.3   121  TYR121     -0.1227
     77  CA         8.2600   28.2210   65.3560 C.3   121  TYR121      0.1736
     78  C          8.9800   29.4050   64.7270 C.2   121  TYR121      0.2596
     79  O         10.1230   29.6930   65.0970 O.2   121  TYR121     -0.2718
     80  CB         9.1470   26.9750   65.3220 C.3   121  TYR121      0.0548
     81  CG         8.4180   25.7400   65.7970 C.ar  121  TYR121     -0.0200
     82  CD1        8.1780   25.5310   67.1480 C.ar  121  TYR121     -0.0009
     83  CD2        7.9500   24.7950   64.8940 C.ar  121  TYR121     -0.0009
     84  CE1        7.5020   24.4110   67.5870 C.ar  121  TYR121      0.0417
     85  CE2        7.2750   23.6710   65.3250 C.ar  121  TYR121      0.0417
     86  CZ         7.0520   23.4850   66.6730 C.ar  121  TYR121      0.1957
     87  OH         6.3780   22.3690   67.1100 O.3   121  TYR121     -0.2866
     88  N          8.3310   30.1110   63.7980 N.am  122  SER122     -0.1952
     89  CA         8.9770   31.2260   63.1180 C.3   122  SER122      0.1924
     90  C          9.1540   32.4360   64.0270 C.2   122  SER122      0.2314
     91  O          9.9750   33.3070   63.7210 O.2   122  SER122     -0.2863
     92  CB         8.1620   31.6280   61.8850 C.3   122  SER122      0.2116
     93  OG         7.8550   30.5020   61.0800 O.3   122  SER122     -0.2180
     94  N         10.0370   35.8190   62.4140 N.3   125  GLY125     -0.1210
     95  CA        10.7190   35.6580   61.1490 C.3   125  GLY125      0.1956
     96  C          9.7570   35.4550   59.9960 C.2   125  GLY125      0.2612
     97  O          8.5750   35.1580   60.1680 O.2   125  GLY125     -0.2717
     98  N         10.2890   35.6150   58.7870 N.am  126  ASP126     -0.1959
     99  CA         9.4890   35.5350   57.5710 C.3   126  ASP126      0.1840
    100  C          9.4570   34.1360   56.9680 C.2   126  ASP126      0.2623
    101  O          8.7390   33.9160   55.9860 O.2   126  ASP126     -0.2715
    102  CB        10.0130   36.5340   56.5320 C.3   126  ASP126      0.1450
    103  CG        11.4940   36.3600   56.2400 C.2   126  ASP126      0.3671
    104  OD1       12.0690   35.3190   56.6280 O.co2 126  ASP126     -0.2456
    105  OD2       12.0830   37.2730   55.6220 O.co2 126  ASP126     -0.2456
    106  N         10.2110   33.1940   57.5280 N.am  127  GLY127     -0.1940
    107  CA        10.1780   31.8210   57.0650 C.3   127  GLY127      0.2014
    108  C         10.8420   31.5830   55.7310 C.2   127  GLY127      0.2638
    109  O         10.5830   30.5570   55.0950 O.2   127  GLY127     -0.2714
    110  N         11.7030   32.4930   55.2890 N.am  128  ARG128     -0.1977
    111  CA        12.2930   32.4180   53.9650 C.3   128  ARG128      0.1597
    112  C         13.8100   32.3480   54.0490 C.2   128  ARG128      0.2287
    113  O         14.4220   32.6780   55.0690 O.2   128  ARG128     -0.2864
    114  CB        11.8970   33.6300   53.1090 C.3   128  ARG128      0.0334
    115  CG        10.4090   33.7450   52.8320 C.3   128  ARG128      0.0492
    116  CD         9.8640   32.4700   52.2180 C.3   128  ARG128      0.2205
    117  NE         8.5450   32.6660   51.6280 N.pl3 128  ARG128     -0.0865
    118  CZ         7.7580   31.6790   51.2120 C.cat 128  ARG128      0.5346
    119  NH1        8.1530   30.4180   51.3270 N.pl3 128  ARG128      0.1354
    120  NH2        6.5730   31.9550   50.6840 N.pl3 128  ARG128      0.1354
    121  N         16.1590   41.6650   53.8970 N.3   166  ARG166     -0.1245
    122  CA        17.1900   41.3570   54.8820 C.3   166  ARG166      0.1563
    123  C         17.8120   42.6700   55.3510 C.2   166  ARG166      0.2260
    124  O         17.1850   43.4150   56.1100 O.2   166  ARG166     -0.2867
    125  CB        18.2300   40.4080   54.2830 C.3   166  ARG166      0.0307
    126  CG        17.6980   38.9970   54.0220 C.3   166  ARG166      0.0489
    127  CD        17.6240   38.1870   55.3100 C.3   166  ARG166      0.2205
    128  NE        16.8340   36.9650   55.1700 N.pl3 166  ARG166     -0.0865
    129  CZ        15.5340   36.8680   55.4440 C.cat 166  ARG166      0.5346
    130  NH1       14.8490   37.9220   55.8720 N.pl3 166  ARG166      0.1354
    131  NH2       14.9110   35.7080   55.2880 N.pl3 166  ARG166      0.1354
    132  N         17.4900   20.0130   51.2890 N.3   177  ARG177     -0.1245
    133  CA        18.5370   19.3710   52.0700 C.3   177  ARG177      0.1563
    134  C         18.1710   17.9100   52.2950 C.2   177  ARG177      0.2260
    135  O         17.0440   17.5990   52.6960 O.2   177  ARG177     -0.2867
    136  CB        18.7310   20.0860   53.4070 C.3   177  ARG177      0.0307
    137  CG        19.6890   19.3870   54.3590 C.3   177  ARG177      0.0489
    138  CD        20.0390   20.2790   55.5400 C.3   177  ARG177      0.2205
    139  NE        18.8550   20.6360   56.3150 N.pl3 177  ARG177     -0.0865
    140  CZ        18.8090   21.6170   57.2120 C.cat 177  ARG177      0.5346
    141  NH1       19.8820   22.3590   57.4510 N.pl3 177  ARG177      0.1354
    142  NH2       17.6800   21.8610   57.8660 N.pl3 177  ARG177      0.1354
    143  N         18.7920   17.0190   66.2890 N.3   184  ARG184     -0.1245
    144  CA        19.9640   17.7260   66.7830 C.3   184  ARG184      0.1563
    145  C         20.1110   17.4880   68.2810 C.2   184  ARG184      0.2260
    146  O         19.2130   16.9550   68.9390 O.2   184  ARG184     -0.2867
    147  CB        19.8640   19.2310   66.4930 C.3   184  ARG184      0.0307
    148  CG        19.4950   19.5740   65.0510 C.3   184  ARG184      0.0489
    149  CD        18.1010   20.1970   64.9680 C.3   184  ARG184      0.2205
    150  NE        17.6670   20.4350   63.5910 N.pl3 184  ARG184     -0.0865
    151  CZ        17.9410   21.5310   62.8890 C.cat 184  ARG184      0.5346
    152  NH1       18.6600   22.5130   63.4200 N.pl3 184  ARG184      0.1354
    153  NH2       17.4940   21.6460   61.6470 N.pl3 184  ARG184      0.1354
    154  N         28.5710   28.9700   63.8070 N.3   249  VAL249     -0.1245
    155  CA        27.3760   28.9820   64.6440 C.3   249  VAL249      0.1561
    156  C         27.1980   27.6130   65.2840 C.2   249  VAL249      0.2260
    157  O         26.2100   26.9180   65.0230 O.2   249  VAL249     -0.2867
    158  CB        26.1230   29.3620   63.8300 C.3   249  VAL249      0.0252
    159  CG1       24.9540   29.6630   64.7600 C.3   249  VAL249      0.0019
    160  CG2       26.4010   30.5450   62.9210 C.3   249  VAL249      0.0019
    161  N         25.9870   26.3740   67.8340 N.3   251  ASN251     -0.1240
    162  CA        24.9840   26.1750   68.8680 C.3   251  ASN251      0.1653
    163  C         24.5810   24.7030   68.9240 C.2   251  ASN251      0.2266
    164  O         24.7560   23.9470   67.9630 O.2   251  ASN251     -0.2867
    165  CB        23.7570   27.0470   68.6030 C.3   251  ASN251      0.1155
    166  CG        24.0880   28.5230   68.5690 C.2   251  ASN251      0.2627
    167  OD1       25.0560   28.9670   69.1860 O.2   251  ASN251     -0.2716
    168  ND2       23.2790   29.2950   67.8540 N.am  251  ASN251     -0.0877
    169  N         21.6960   23.4210   68.8910 N.3   253  ASP253     -0.1225
    170  CA        20.6450   23.0910   67.9360 C.3   253  ASP253      0.1805
    171  C         21.1670   22.9350   66.5120 C.2   253  ASP253      0.2597
    172  O         20.4060   22.5130   65.6340 O.2   253  ASP253     -0.2718
    173  CB        19.5420   24.1540   67.9630 C.3   253  ASP253      0.1424
    174  CG        20.0720   25.5520   67.7370 C.2   253  ASP253      0.3668
    175  OD1       20.9430   25.9860   68.5180 O.co2 253  ASP253     -0.2456
    176  OD2       19.6240   26.2130   66.7740 O.co2 253  ASP253     -0.2456
    177  N         22.4330   23.2640   66.2600 N.am  254  ASN254     -0.1974
    178  CA        23.0590   23.0180   64.9670 C.3   254  ASN254      0.1688
    179  C         23.9810   21.8040   64.9790 C.2   254  ASN254      0.2292
    180  O         24.6240   21.5220   63.9640 O.2   254  ASN254     -0.2864
    181  CB        23.8500   24.2510   64.5160 C.3   254  ASN254      0.1181
    182  CG        22.9560   25.4230   64.1540 C.2   254  ASN254      0.2629
    183  OD1       21.7820   25.2480   63.8270 O.2   254  ASN254     -0.2716
    184  ND2       23.5140   26.6280   64.2040 N.am  254  ASN254     -0.0877
    185  N         23.6330   22.9140   59.0870 N.3   263  ASP263     -0.1239
    186  CA        23.3050   24.3350   59.0120 C.3   263  ASP263      0.1674
    187  C         24.5070   25.1480   58.5580 C.2   263  ASP263      0.2266
    188  O         25.3530   25.5340   59.3720 O.2   263  ASP263     -0.2867
    189  CB        22.7930   24.8760   60.3510 C.3   263  ASP263      0.1410
    190  CG        22.2680   26.3140   60.2370 C.2   263  ASP263      0.3668
    191  OD1       22.4420   26.9290   59.1600 O.co2 263  ASP263     -0.2456
    192  OD2       21.6750   26.8270   61.2150 O.co2 263  ASP263     -0.2456
@<TRIPOS>BOND
     1   120   118    1
     2   118   119    1
     3   118   117    2
     4   132   133    1
     5   117   116    1
     6    70    69    2
     7   133   134    1
     8   133   136    1
     9   116   115    1
    10   134   135    2
    11    60    59    2
    12   115   114    1
    13    67    68    1
    14    69    68    1
    15   114   111    1
    16    59    58    1
    17   136   137    1
    18    57    58    1
    19    68    71    1
    20   121   122    1
    21   111   112    1
    22   111   110    1
    23    71    72    1
    24   126   125    1
    25   126   127    1
    26   112   113    2
    27    58    61    1
    28   125   122    1
    29   137   138    1
    30    72    73    1
    31   122   123    1
    32   109   108    2
    33   128   127    1
    34   128   129    2
    35   131   129    1
    36   110   108   am
    37   123   124    2
    38    61    62    1
    39    73    74    1
    40   129   130    1
    41   138   139    1
    42   105   103   ar
    43   108   107    1
    44    64    62   ar
    45    64    66   ar
    46   101   100    2
    47    49    48    2
    48    62    63   ar
    49    55    54    1
    50   103   102    1
    51   103   104   ar
    52   139   140    2
    53    74    75    1
    54   102    99    1
    55    66    65   ar
    56   100   106   am
    57   100    99    1
    58   107   106    1
    59    54    56    1
    60    54    53    2
    61   140   141    1
    62   140   142    1
    63    48    47    1
    64    63    65   ar
    65    52    53    1
    66    52    51    1
    67    99    98    1
    68    50    51    1
    69    50    47    1
    70    47    46    1
    71   187   186    1
    72   187   188    2
    73    98    96   am
    74   186   185    1
    75   186   189    1
    76   191   190   ar
    77    46    44   am
    78    96    97    2
    79    96    95    1
    80    45    44    2
    81   190   189    1
    82   190   192   ar
    83    44    43    1
    84    93    92    1
    85    95    94    1
    86    41    39   ar
    87    39    38    1
    88    39    40   ar
    89    38    35    1
    90   153   151    1
    91    37    36    2
    92    92    89    1
    93    43    42    1
    94    36    42   am
    95    36    35    1
    96    35    34    1
    97   151   152    1
    98   151   150    2
    99   160   158    1
   100    89    88    1
   101    89    90    1
   102   150   149    1
   103    91    90    2
   104    34    32   am
   105    88    78   am
   106   154   155    1
   107   183   182    2
   108   158   155    1
   109   158   159    1
   110   180   179    2
   111    12    11    1
   112   182   184   am
   113   182   181    1
   114    33    32    2
   115   181   178    1
   116   155   156    1
   117    32    31    1
   118    76    77    1
   119    78    79    2
   120    78    77    1
   121    83    85   ar
   122    83    81   ar
   123    10    11   ar
   124    10     8   ar
   125   178   179    1
   126   178   177    1
   127   149   148    1
   128   157   156    2
   129   148   147    1
   130    11     9   ar
   131    80    77    1
   132    80    81    1
   133    85    86   ar
   134   172   171    2
   135    81    82   ar
   136     8     6   ar
   137    31    30    1
   138   177   171   am
   139   143   144    1
   140     9     7   ar
   141   147   144    1
   142   171   170    1
   143    86    87    1
   144    86    84   ar
   145   176   174   ar
   146   144   145    1
   147    30    24   am
   148    82    84   ar
   149     6     7   ar
   150     6     5    1
   151    25    24    2
   152   174   173    1
   153   174   175   ar
   154    24    23    1
   155   161   162    1
   156   168   166   am
   157   170   173    1
   158   170   169    1
   159   164   163    2
   160   145   146    2
   161     5     2    1
   162    21    19   am
   163    26    23    1
   164    26    27    1
   165   166   165    1
   166   166   167    2
   167     1     2    1
   168   165   162    1
   169    23    22    1
   170   162   163    1
   171    28    27    1
   172    29    27    1
   173     2     3    1
   174    19    20    2
   175    19    18    1
   176     4     3    2
   177    18    17    1
   178    17    14    1
   179    14    15    1
   180    14    13    1
   181    15    16    2
