@<TRIPOS>MOLECULE
tmp/6easA00.pdb
 145 140 0 0 0
SMALL
GASTEIGER

@<TRIPOS>ATOM
      1  N         -1.4990   -3.4750   23.3950 N.3    25  ILE25      -0.1231
      2  CA        -1.2900   -2.0410   23.5280 C.3    25  ILE25       0.1692
      3  C         -2.1000   -1.3200   22.4480 C.2    25  ILE25       0.2593
      4  O         -2.5740   -0.2110   22.6670 O.2    25  ILE25      -0.2718
      5  CB         0.2130   -1.7040   23.4090 C.3    25  ILE25       0.0266
      6  CG1        1.0340   -2.3450   24.5280 C.3    25  ILE25       0.0019
      7  CG2        0.4440   -0.1990   23.3390 C.3    25  ILE25       0.0020
      8  CD1        2.4980   -2.4880   24.1980 C.3    25  ILE25       0.0001
      9  N         -2.2170   -1.9540   21.2750 N.am   26  GLY26      -0.1942
     10  CA        -2.7670   -1.3060   20.0910 C.3    26  GLY26       0.2014
     11  C         -2.7410   -2.1900   18.8540 C.2    26  GLY26       0.2640
     12  O         -2.3760   -3.3770   18.8840 O.2    26  GLY26      -0.2714
     13  N         -3.1530   -1.5870   17.7420 N.am   27  SER27      -0.1935
     14  CA        -3.3650   -2.2840   16.4900 C.3    27  SER27       0.2055
     15  C         -3.2760   -1.2460   15.3740 C.2    27  SER27       0.2643
     16  O         -3.8230   -0.1610   15.5250 O.2    27  SER27      -0.2714
     17  CB        -4.7020   -2.9880   16.5010 C.3    27  SER27       0.2130
     18  OG        -4.6380   -4.2240   15.8140 O.3    27  SER27      -0.2179
     19  N         -2.5510   -1.5620   14.2970 N.am   28  THR28      -0.1950
     20  CA        -2.3170   -0.6020   13.2200 C.3    28  THR28       0.1897
     21  C         -2.5550   -1.2790   11.8680 C.2    28  THR28       0.2313
     22  O         -3.0250   -2.4250   11.8100 O.2    28  THR28      -0.2863
     23  CB        -0.9070   -0.0030   13.3030 C.3    28  THR28       0.1794
     24  OG1        0.0180   -0.9250   12.7260 O.3    28  THR28      -0.2208
     25  CG2       -0.4930    0.3200   14.7200 C.3    28  THR28       0.0378
     26  N          0.1960   -4.8750   18.3040 N.3    33  LEU33      -0.1245
     27  CA         1.1820   -4.5330   19.3330 C.3    33  LEU33       0.1561
     28  C          0.7850   -5.1850   20.6610 C.2    33  LEU33       0.2260
     29  O         -0.3080   -4.9210   21.1520 O.2    33  LEU33      -0.2867
     30  CB         1.2400   -3.0110   19.4860 C.3    33  LEU33       0.0270
     31  CG         1.7250   -2.2430   18.2560 C.3    33  LEU33       0.0019
     32  CD1        1.6160   -0.7440   18.4760 C.3    33  LEU33       0.0001
     33  CD2        3.1570   -2.6250   17.9020 C.3    33  LEU33       0.0001
     34  N          7.4540   -3.6280   23.6450 N.3    45  ALA45      -0.1245
     35  CA         6.2950   -3.5540   22.7680 C.3    45  ALA45       0.1562
     36  C          6.5530   -4.4690   21.5660 C.2    45  ALA45       0.2260
     37  O          7.4910   -4.2390   20.7940 O.2    45  ALA45      -0.2867
     38  CB         6.0860   -2.1140   22.3440 C.3    45  ALA45       0.0290
     39  N         12.6070    4.9180   18.8120 N.3    81  MET81      -0.1245
     40  CA        12.0510    3.7440   19.4170 C.3    81  MET81       0.1570
     41  C         12.7790    2.5320   18.8150 C.2    81  MET81       0.2261
     42  O         12.4210    1.9950   17.7640 O.2    81  MET81      -0.2867
     43  CB        10.5420    3.6400   19.1930 C.3    81  MET81       0.0387
     44  CG         9.9430    2.3760   19.7800 C.3    81  MET81       0.0595
     45  SD         8.1520    2.4720   19.9480 S.3    81  MET81      -0.1393
     46  CE         8.1000    3.4920   21.4270 C.3    81  MET81       0.0692
     47  N         10.2140   -3.9110   20.1700 N.3    99  PHE99      -0.1227
     48  CA        10.6250   -2.5290   20.3320 C.3    99  PHE99       0.1736
     49  C         10.6660   -2.1520   21.8130 C.2    99  PHE99       0.2595
     50  O         10.1100   -2.8310   22.6490 O.2    99  PHE99      -0.2718
     51  CB         9.6610   -1.6120   19.5900 C.3    99  PHE99       0.0547
     52  CG         9.7400   -1.6990   18.0870 C.ar   99  PHE99      -0.0202
     53  CD1       10.7560   -1.0640   17.3910 C.ar   99  PHE99      -0.0042
     54  CD2        8.7760   -2.3920   17.3670 C.ar   99  PHE99      -0.0042
     55  CE1       10.8140   -1.1270   16.0040 C.ar   99  PHE99      -0.0003
     56  CE2        8.8410   -2.4650   15.9840 C.ar   99  PHE99      -0.0003
     57  CZ         9.8630   -1.8380   15.3090 C.ar   99  PHE99      -0.0000
     58  N         11.3860   -1.0700   22.0870 N.am  100  GLU100     -0.1965
     59  CA        11.4130   -0.4110   23.3760 C.3   100  GLU100      0.1733
     60  C          9.9790   -0.0740   23.7730 C.2   100  GLU100      0.2616
     61  O          9.1280    0.1540   22.9110 O.2   100  GLU100     -0.2715
     62  CB        12.2460    0.8590   23.2620 C.3   100  GLU100      0.0429
     63  CG        13.7240    0.5950   23.0940 C.3   100  GLU100      0.1163
     64  CD        14.5390    1.8640   22.9950 C.2   100  GLU100      0.3649
     65  OE1       14.1070    2.7830   22.2900 O.co2 100  GLU100     -0.2457
     66  OE2       15.5940    1.9300   23.6170 O.co2 100  GLU100     -0.2457
     67  N          9.6990   -0.1020   25.0720 N.am  101  TYR101     -0.1960
     68  CA         8.3820    0.2610   25.5440 C.3   101  TYR101      0.1771
     69  C          8.4440    1.6850   26.0870 C.2   101  TYR101      0.2619
     70  O          9.2820    1.9840   26.9470 O.2   101  TYR101     -0.2715
     71  CB         7.8620   -0.6770   26.6320 C.3   101  TYR101      0.0574
     72  CG         6.5270   -0.2330   27.1690 C.ar  101  TYR101     -0.0198
     73  CD1        5.3920   -0.3140   26.3800 C.ar  101  TYR101     -0.0009
     74  CD2        6.4110    0.3390   28.4270 C.ar  101  TYR101     -0.0009
     75  CE1        4.1660    0.1370   26.8300 C.ar  101  TYR101      0.0417
     76  CE2        5.1830    0.7620   28.9110 C.ar  101  TYR101      0.0417
     77  CZ         4.0600    0.6620   28.1070 C.ar  101  TYR101      0.1957
     78  OH         2.8530    1.1070   28.5430 O.3   101  TYR101     -0.2866
     79  N          7.5640    2.5480   25.5660 N.am  102  ALA102     -0.1964
     80  CA         7.4430    3.9400   26.0310 C.3   102  ALA102      0.1713
     81  C          6.2400    4.0440   26.9550 C.2   102  ALA102      0.2458
     82  O          5.0980    3.9980   26.5210 O.2   102  ALA102     -0.2730
     83  CB         7.3140    4.8800   24.8490 C.3   102  ALA102      0.0333
     84  N          6.4340    4.2010   28.2770 N.am  103  PRO103     -0.2716
     85  CA         5.2950    4.1680   29.1900 C.3   103  PRO103      0.1536
     86  C          4.3120    5.3530   29.0620 C.2   103  PRO103      0.2599
     87  O          3.1450    5.1790   29.3720 O.2   103  PRO103     -0.2715
     88  CB         5.9640    4.0630   30.5710 C.3   103  PRO103      0.0310
     89  CG         7.3100    4.6900   30.3780 C.3   103  PRO103      0.0237
     90  CD         7.7200    4.3520   28.9560 C.3   103  PRO103      0.0939
     91  N          4.7370    6.5070   28.5450 N.am  104  ASN104     -0.1959
     92  CA         3.8180    7.6720   28.4950 C.3   104  ASN104      0.1819
     93  C          3.1120    7.8000   27.1330 C.2   104  ASN104      0.2622
     94  O          2.5290    8.8490   26.8290 O.2   104  ASN104     -0.2715
     95  CB         4.5340    8.9410   28.9540 C.3   104  ASN104      0.1195
     96  CG         4.6170    8.9900   30.4670 C.2   104  ASN104      0.2630
     97  OD1        3.5920    8.9460   31.1400 O.2   104  ASN104     -0.2716
     98  ND2        5.8120    9.0930   31.0090 N.am  104  ASN104     -0.0877
     99  N          3.1140    6.7320   26.3310 N.am  105  GLY105     -0.1940
    100  CA         2.3410    6.6880   25.0950 C.3   105  GLY105      0.2014
    101  C          2.7070    7.8030   24.1280 C.2   105  GLY105      0.2639
    102  O          3.8480    8.2680   24.1190 O.2   105  GLY105     -0.2714
    103  N          1.7350    8.2330   23.3080 N.am  106  THR106     -0.1950
    104  CA         2.0100    9.1020   22.1700 C.3   106  THR106      0.1897
    105  C          1.9790   10.5890   22.5530 C.2   106  THR106      0.2313
    106  O          1.2760   11.0090   23.4670 O.2   106  THR106     -0.2863
    107  CB         1.0340    8.8860   21.0090 C.3   106  THR106      0.1794
    108  OG1       -0.2650    9.3280   21.4180 O.3   106  THR106     -0.2208
    109  CG2        1.0020    7.4450   20.5490 C.3   106  THR106      0.0378
    110  N         -1.5410   11.9740   22.2050 N.3   109  GLU109     -0.1245
    111  CA        -2.3660   11.7890   23.3980 C.3   109  GLU109      0.1567
    112  C         -2.1460   12.9440   24.3870 C.2   109  GLU109      0.2260
    113  O         -3.1300   13.4920   24.9250 O.2   109  GLU109     -0.2867
    114  CB        -2.0640   10.4650   24.0950 C.3   109  GLU109      0.0388
    115  CG        -3.0830   10.1100   25.1560 C.3   109  GLU109      0.1160
    116  CD        -2.6500    9.0470   26.1500 C.2   109  GLU109      0.3649
    117  OE1       -1.7090    8.2850   25.8450 O.co2 109  GLU109     -0.2457
    118  OE2       -3.2540    8.9930   27.2390 O.co2 109  GLU109     -0.2457
    119  N          1.2040   10.9850   16.2770 N.3   153  THR153     -0.1218
    120  CA         0.7340    9.6820   16.7330 C.3   153  THR153      0.1862
    121  C          1.8590    8.6410   16.6440 C.2   153  THR153      0.2287
    122  O          1.6800    7.5320   17.1250 O.2   153  THR153     -0.2866
    123  CB        -0.4920    9.1630   15.9630 C.3   153  THR153      0.1770
    124  OG1       -0.0530    8.7780   14.6580 O.3   153  THR153     -0.2211
    125  CG2       -1.6140   10.1780   15.8820 C.3   153  THR153      0.0375
    126  N          6.5850    8.7900   20.5680 N.3   156  TYR156     -0.1241
    127  CA         6.2590    8.2600   21.8610 C.3   156  TYR156      0.1605
    128  C          7.0580    8.9930   22.9270 C.2   156  TYR156      0.2264
    129  O          8.0400    9.6750   22.6290 O.2   156  TYR156     -0.2867
    130  CB         6.4690    6.7410   21.9000 C.3   156  TYR156      0.0534
    131  CG         5.4260    5.9830   21.1250 C.ar  156  TYR156     -0.0201
    132  CD1        5.5160    5.8510   19.7550 C.ar  156  TYR156     -0.0009
    133  CD2        4.3280    5.4280   21.7560 C.ar  156  TYR156     -0.0009
    134  CE1        4.5470    5.1720   19.0320 C.ar  156  TYR156      0.0417
    135  CE2        3.3640    4.7330   21.0570 C.ar  156  TYR156      0.0417
    136  CZ         3.4760    4.5980   19.6840 C.ar  156  TYR156      0.1957
    137  OH         2.5030    3.9440   18.9860 O.3   156  TYR156     -0.2866
    138  N          6.9000    1.5520   13.3690 N.3   168  LEU168     -0.1245
    139  CA         6.3130    0.2920   13.7750 C.3   168  LEU168      0.1561
    140  C          5.8000   -0.4980   12.5640 C.2   168  LEU168      0.2260
    141  O          5.8330   -1.7310   12.5820 O.2   168  LEU168     -0.2867
    142  CB         5.1790    0.5720   14.7600 C.3   168  LEU168      0.0270
    143  CG         5.5680    1.4150   15.9700 C.3   168  LEU168      0.0019
    144  CD1        4.3330    1.7950   16.7740 C.3   168  LEU168      0.0001
    145  CD2        6.5730    0.6810   16.8430 C.3   168  LEU168      0.0001
@<TRIPOS>BOND
     1    22    21    2
     2    21    20    1
     3   140   141    2
     4   140   139    1
     5    24    23    1
     6    20    23    1
     7    20    19    1
     8    23    25    1
     9   138   139    1
    10   139   142    1
    11    19    15   am
    12   124   123    1
    13   142   143    1
    14    57    56   ar
    15    57    55   ar
    16    15    16    2
    17    15    14    1
    18    18    17    1
    19   125   123    1
    20   123   120    1
    21   143   144    1
    22   143   145    1
    23    56    54   ar
    24    55    53   ar
    25   119   120    1
    26    14    17    1
    27    14    13    1
    28   121   120    1
    29   121   122    2
    30    54    52   ar
    31    53    52   ar
    32    13    11   am
    33    42    41    2
    34    33    31    1
    35    52    51    1
    36    31    32    1
    37    31    30    1
    38    26    27    1
    39    39    40    1
    40    41    40    1
    41    11    12    2
    42    11    10    1
    43   137   136    1
    44   134   136   ar
    45   134   132   ar
    46    43    40    1
    47    43    44    1
    48    27    30    1
    49    27    28    1
    50    51    48    1
    51   136   135   ar
    52   132   131   ar
    53    44    45    1
    54    45    46    1
    55    10     9    1
    56    47    48    1
    57    48    49    1
    58   109   107    1
    59   126   127    1
    60    28    29    2
    61    37    36    2
    62   107   108    1
    63   107   104    1
    64   135   133   ar
    65   131   133   ar
    66   131   130    1
    67     9     3   am
    68    36    35    1
    69    49    58   am
    70    49    50    2
    71   127   130    1
    72   127   128    1
    73    58    59    1
    74   104   105    1
    75   104   103    1
    76   110   111    1
    77    65    64   ar
    78    38    35    1
    79     3     4    2
    80     3     2    1
    81   105   106    2
    82   129   128    2
    83    35    34    1
    84    61    60    2
    85    64    63    1
    86    64    66   ar
    87    63    62    1
    88    62    59    1
    89   103   101   am
    90     7     5    1
    91    59    60    1
    92     1     2    1
    93   111   114    1
    94   111   112    1
    95     5     2    1
    96     5     6    1
    97    60    67   am
    98   114   115    1
    99   102   101    2
   100   101   100    1
   101     8     6    1
   102   112   113    2
   103    83    80    1
   104    67    68    1
   105   100    99    1
   106   115   116    1
   107    68    69    1
   108    68    71    1
   109    79    80    1
   110    79    69   am
   111   117   116   ar
   112    80    81    1
   113    69    70    2
   114   116   118   ar
   115    99    93   am
   116    73    75   ar
   117    73    72   ar
   118    82    81    2
   119    71    72    1
   120    94    93    2
   121    75    77   ar
   122    81    84   am
   123    93    92    1
   124    72    74   ar
   125    77    78    1
   126    77    76   ar
   127    84    90    1
   128    84    85    1
   129    74    76   ar
   130    92    91    1
   131    92    95    1
   132    91    86   am
   133    95    96    1
   134    90    89    1
   135    86    85    1
   136    86    87    2
   137    85    88    1
   138    89    88    1
   139    96    98   am
   140    96    97    2
