@<TRIPOS>MOLECULE
tmp/6eb1A00.pdb
 86 85 0 0 0
SMALL
GASTEIGER

@<TRIPOS>ATOM
      1  N        -34.9500   33.7310  -20.5710 N.3    39  GLN39      -0.1245
      2  CA       -34.2090   33.9560  -21.8030 C.3    39  GLN39       0.1566
      3  C        -32.7090   34.0080  -21.5390 C.2    39  GLN39       0.2260
      4  O        -31.9210   33.4910  -22.3340 O.2    39  GLN39      -0.2867
      5  CB       -34.6970   35.2300  -22.4800 C.3    39  GLN39       0.0367
      6  CG       -36.1370   35.1510  -23.0110 C.3    39  GLN39       0.0905
      7  CD       -36.4490   36.3200  -23.9420 C.2    39  GLN39       0.2608
      8  OE1      -35.5380   37.0300  -24.3680 O.2    39  GLN39      -0.2717
      9  NE2      -37.7310   36.5270  -24.2570 N.am   39  GLN39      -0.0878
     10  N        -31.7040   30.4490  -21.0410 N.3    42  ALA42      -0.1231
     11  CA       -31.7340   29.7330  -22.3110 C.3    42  ALA42       0.1694
     12  C        -30.4770   30.0160  -23.1070 C.2    42  ALA42       0.2592
     13  O        -29.7770   29.0920  -23.5490 O.2    42  ALA42      -0.2718
     14  CB       -32.9680   30.1480  -23.1140 C.3    42  ALA42       0.0304
     15  N        -30.1800   31.3070  -23.2910 N.am   43  TYR43      -0.1976
     16  CA       -28.9720   31.7140  -23.9930 C.3    43  TYR43       0.1639
     17  C        -27.7240   31.1290  -23.3430 C.2    43  TYR43       0.2290
     18  O        -26.8130   30.6600  -24.0400 O.2    43  TYR43      -0.2864
     19  CB       -28.8960   33.2430  -24.0240 C.3    43  TYR43       0.0560
     20  CG       -27.6980   33.7580  -24.7950 C.ar   43  TYR43      -0.0198
     21  CD1      -27.6060   33.5670  -26.1650 C.ar   43  TYR43      -0.0009
     22  CD2      -26.6540   34.4370  -24.1430 C.ar   43  TYR43      -0.0009
     23  CE1      -26.5220   34.0220  -26.8700 C.ar   43  TYR43       0.0417
     24  CE2      -25.5640   34.8970  -24.8420 C.ar   43  TYR43       0.0417
     25  CZ       -25.5070   34.6920  -26.2030 C.ar   43  TYR43       0.1957
     26  OH       -24.4280   35.1510  -26.9060 O.3    43  TYR43      -0.2866
     27  N        -27.3990   27.4910  -24.2930 N.3    46  LEU46      -0.1245
     28  CA       -26.8800   27.3730  -25.6570 C.3    46  LEU46       0.1561
     29  C        -25.3580   27.5310  -25.6890 C.2    46  LEU46       0.2260
     30  O        -24.6520   26.7030  -26.2810 O.2    46  LEU46      -0.2867
     31  CB       -27.5680   28.4030  -26.5590 C.3    46  LEU46       0.0270
     32  CG       -29.0270   28.0400  -26.8830 C.3    46  LEU46       0.0019
     33  CD1      -29.7230   29.1170  -27.7340 C.3    46  LEU46       0.0001
     34  CD2      -29.1360   26.6650  -27.5520 C.3    46  LEU46       0.0001
     35  N        -40.5310   28.6280  -21.3680 N.3    68  THR68      -0.1203
     36  CA       -40.6370   28.1830  -22.7470 C.3    68  THR68       0.1994
     37  C        -39.2860   28.2870  -23.4450 C.2    68  THR68       0.2618
     38  O        -38.8530   27.3470  -24.1210 O.2    68  THR68      -0.2717
     39  CB       -41.7090   28.9940  -23.4710 C.3    68  THR68       0.1784
     40  OG1      -42.9840   28.4580  -23.1260 O.3    68  THR68      -0.2211
     41  CG2      -41.5480   28.8920  -24.9790 C.3    68  THR68       0.0376
     42  N        -38.5840   29.3990  -23.2500 N.am   69  THR69      -0.1952
     43  CA       -37.3050   29.5670  -23.9260 C.3    69  THR69       0.1897
     44  C        -36.2830   28.5500  -23.4380 C.2    69  THR69       0.2313
     45  O        -35.5320   27.9920  -24.2480 O.2    69  THR69      -0.2863
     46  CB       -36.7880   31.0030  -23.7670 C.3    69  THR69       0.1794
     47  OG1      -36.6140   31.3340  -22.3800 O.3    69  THR69      -0.2208
     48  CG2      -37.7790   31.9610  -24.3770 C.3    69  THR69       0.0378
     49  N        -36.9820   25.2830  -24.9500 N.3    72  ALA72      -0.1231
     50  CA       -36.5860   25.3440  -26.3540 C.3    72  ALA72       0.1694
     51  C        -35.0690   25.1750  -26.5180 C.2    72  ALA72       0.2591
     52  O        -34.6130   24.4120  -27.3780 O.2    72  ALA72      -0.2718
     53  CB       -37.0840   26.6550  -26.9580 C.3    72  ALA72       0.0304
     54  N        -34.2700   25.8240  -25.6650 N.am   73  ALA73      -0.1980
     55  CA       -32.8160   25.6590  -25.7550 C.3    73  ALA73       0.1597
     56  C        -32.3890   24.2200  -25.4610 C.2    73  ALA73       0.2287
     57  O        -31.4780   23.6850  -26.1010 O.2    73  ALA73      -0.2864
     58  CB       -32.0880   26.6350  -24.7950 C.3    73  ALA73       0.0319
     59  N        -34.2370   21.5500  -25.7750 N.3    74  TRP74      -0.1227
     60  CA       -34.7080   20.7460  -26.9050 C.3    74  TRP74       0.1737
     61  C        -33.6940   20.7950  -28.0360 C.2    74  TRP74       0.2595
     62  O        -33.2450   19.7540  -28.5200 O.2    74  TRP74      -0.2718
     63  CB       -36.0710   21.2220  -27.4200 C.3    74  TRP74       0.0564
     64  CG       -36.4520   20.6100  -28.7750 C.ar   74  TRP74       0.0003
     65  CD1      -36.9290   19.3420  -29.0100 C.ar   74  TRP74       0.0946
     66  CD2      -36.3590   21.2420  -30.0600 C.ar   74  TRP74       0.0152
     67  NE1      -37.1400   19.1600  -30.3490 N.ar   74  TRP74      -0.2442
     68  CE2      -36.7950   20.3040  -31.0190 C.ar   74  TRP74       0.0810
     69  CE3      -35.9420   22.5120  -30.4940 C.ar   74  TRP74       0.0012
     70  CZ2      -36.8380   20.5970  -32.3780 C.ar   74  TRP74       0.0191
     71  CZ3      -35.9770   22.7930  -31.8610 C.ar   74  TRP74       0.0001
     72  CH2      -36.4220   21.8460  -32.7800 C.ar   74  TRP74       0.0015
     73  N        -33.3080   22.0010  -28.4470 N.am   75  TRP75      -0.1976
     74  CA       -32.4320   22.1200  -29.6170 C.3    75  TRP75       0.1640
     75  C        -31.0480   21.5420  -29.3440 C.2    75  TRP75       0.2290
     76  O        -30.4750   20.8720  -30.2070 O.2    75  TRP75      -0.2864
     77  CB       -32.3220   23.5820  -30.0670 C.3    75  TRP75       0.0576
     78  CG       -31.5140   23.7400  -31.3180 C.ar   75  TRP75       0.0006
     79  CD1      -31.9840   23.6840  -32.6000 C.ar   75  TRP75       0.0946
     80  CD2      -30.0920   23.9580  -31.4210 C.ar   75  TRP75       0.0152
     81  NE1      -30.9530   23.8480  -33.4880 N.ar   75  TRP75      -0.2442
     82  CE2      -29.7830   24.0270  -32.8000 C.ar   75  TRP75       0.0810
     83  CE3      -29.0570   24.1230  -30.4870 C.ar   75  TRP75       0.0012
     84  CZ2      -28.4840   24.2430  -33.2680 C.ar   75  TRP75       0.0191
     85  CZ3      -27.7700   24.3320  -30.9480 C.ar   75  TRP75       0.0001
     86  CH2      -27.4900   24.3900  -32.3210 C.ar   75  TRP75       0.0015
@<TRIPOS>BOND
     1    81    82   ar
     2    81    79   ar
     3    84    82   ar
     4    84    86   ar
     5    82    80   ar
     6    72    70   ar
     7    72    71   ar
     8    79    78   ar
     9    70    68   ar
    10    86    85   ar
    11    71    69   ar
    12    80    78   ar
    13    80    83   ar
    14    78    77    1
    15    68    67   ar
    16    68    66   ar
    17    85    83   ar
    18    69    66   ar
    19    67    65   ar
    20    76    75    2
    21    77    74    1
    22    66    64   ar
    23    74    75    1
    24    74    73    1
    25    65    64   ar
    26    64    63    1
    27    62    61    2
    28    73    61   am
    29    61    60    1
    30    33    32    1
    31    34    32    1
    32    63    60    1
    33    52    51    2
    34    53    50    1
    35    26    25    1
    36    60    59    1
    37    32    31    1
    38    23    25   ar
    39    23    21   ar
    40    31    28    1
    41    51    50    1
    42    51    54   am
    43    50    49    1
    44    30    29    2
    45    25    24   ar
    46    21    20   ar
    47    57    56    2
    48    55    54    1
    49    55    56    1
    50    55    58    1
    51    29    28    1
    52    28    27    1
    53    41    39    1
    54    24    22   ar
    55    20    22   ar
    56    20    19    1
    57    48    46    1
    58     8     7    2
    59     9     7   am
    60    45    44    2
    61    38    37    2
    62    18    17    2
    63    19    16    1
    64    16    17    1
    65    16    15    1
    66     7     6    1
    67    43    46    1
    68    43    44    1
    69    43    42    1
    70    46    47    1
    71    13    12    2
    72    39    40    1
    73    39    36    1
    74    37    42   am
    75    37    36    1
    76    15    12   am
    77    14    11    1
    78    12    11    1
    79     6     5    1
    80    36    35    1
    81     5     2    1
    82     4     3    2
    83    11    10    1
    84     2     3    1
    85     2     1    1
