@<TRIPOS>MOLECULE
tmp/6eb2A00.pdb
 95 94 0 0 0
SMALL
GASTEIGER

@<TRIPOS>ATOM
      1  N        -34.9560   33.7850  -20.6200 N.3    39  GLN39      -0.1245
      2  CA       -34.1840   34.0230  -21.8290 C.3    39  GLN39       0.1566
      3  C        -32.6890   34.0240  -21.5460 C.2    39  GLN39       0.2260
      4  O        -31.9030   33.4780  -22.3350 O.2    39  GLN39      -0.2867
      5  CB       -34.6150   35.3400  -22.4700 C.3    39  GLN39       0.0367
      6  CG       -36.0250   35.2960  -23.0840 C.3    39  GLN39       0.0905
      7  CD       -36.2080   36.3480  -24.1680 C.2    39  GLN39       0.2608
      8  OE1      -35.2310   36.9850  -24.5820 O.2    39  GLN39      -0.2717
      9  NE2      -37.4550   36.5350  -24.6400 N.am   39  GLN39      -0.0878
     10  N        -31.6500   30.5540  -21.1500 N.3    42  ALA42      -0.1231
     11  CA       -31.6870   29.8320  -22.4120 C.3    42  ALA42       0.1694
     12  C        -30.4050   30.0670  -23.1890 C.2    42  ALA42       0.2592
     13  O        -29.7020   29.1250  -23.5820 O.2    42  ALA42      -0.2718
     14  CB       -32.9090   30.2840  -23.2180 C.3    42  ALA42       0.0304
     15  N        -30.0740   31.3350  -23.3780 N.am   43  TYR43      -0.1976
     16  CA       -28.8600   31.7040  -24.0780 C.3    43  TYR43       0.1639
     17  C        -27.6310   31.1120  -23.4030 C.2    43  TYR43       0.2290
     18  O        -26.6980   30.6220  -24.0740 O.2    43  TYR43      -0.2864
     19  CB       -28.7840   33.2270  -24.1060 C.3    43  TYR43       0.0560
     20  CG       -27.6020   33.7550  -24.8390 C.ar   43  TYR43      -0.0198
     21  CD1      -27.4570   33.5510  -26.2130 C.ar   43  TYR43      -0.0009
     22  CD2      -26.6130   34.4530  -24.1580 C.ar   43  TYR43      -0.0009
     23  CE1      -26.3760   34.0520  -26.8780 C.ar   43  TYR43       0.0417
     24  CE2      -25.5150   34.9510  -24.8260 C.ar   43  TYR43       0.0417
     25  CZ       -25.4030   34.7630  -26.1740 C.ar   43  TYR43       0.1957
     26  OH       -24.3020   35.2830  -26.8010 O.3    43  TYR43      -0.2866
     27  N        -27.3720   27.5390  -24.2740 N.3    46  LEU46      -0.1245
     28  CA       -26.8100   27.4050  -25.6230 C.3    46  LEU46       0.1561
     29  C        -25.2890   27.5750  -25.6310 C.2    46  LEU46       0.2260
     30  O        -24.5730   26.7980  -26.2840 O.2    46  LEU46      -0.2867
     31  CB       -27.4620   28.4040  -26.5860 C.3    46  LEU46       0.0270
     32  CG       -28.9140   28.0080  -26.9340 C.3    46  LEU46       0.0019
     33  CD1      -29.6520   29.1430  -27.5940 C.3    46  LEU46       0.0001
     34  CD2      -28.9470   26.7750  -27.8440 C.3    46  LEU46       0.0001
     35  N        -40.6630   28.4540  -21.6170 N.3    68  THR68      -0.1203
     36  CA       -40.6410   27.8980  -22.9630 C.3    68  THR68       0.1994
     37  C        -39.2740   28.0990  -23.5950 C.2    68  THR68       0.2618
     38  O        -38.7120   27.1880  -24.2130 O.2    68  THR68      -0.2717
     39  CB       -41.7370   28.5540  -23.8030 C.3    68  THR68       0.1784
     40  OG1      -43.0000   28.3640  -23.1620 O.3    68  THR68      -0.2211
     41  CG2      -41.8160   27.9090  -25.1120 C.3    68  THR68       0.0376
     42  N        -38.7090   29.2750  -23.4090 N.am   69  THR69      -0.1952
     43  CA       -37.4060   29.5860  -23.9730 C.3    69  THR69       0.1897
     44  C        -36.3300   28.6150  -23.4910 C.2    69  THR69       0.2313
     45  O        -35.5210   28.1170  -24.2860 O.2    69  THR69      -0.2863
     46  CB       -37.0680   31.0310  -23.6170 C.3    69  THR69       0.1794
     47  OG1      -38.2810   31.8080  -23.6870 O.3    69  THR69      -0.2208
     48  CG2      -36.1360   31.5660  -24.6280 C.3    69  THR69       0.0378
     49  N        -36.8870   25.5670  -22.2860 N.3    71  LYS71      -0.1231
     50  CA       -37.2120   24.2680  -22.8680 C.3    71  LYS71       0.1693
     51  C        -36.7600   24.2090  -24.3230 C.2    71  LYS71       0.2592
     52  O        -36.1580   23.2210  -24.7570 O.2    71  LYS71      -0.2718
     53  CB       -38.7130   24.0000  -22.7200 C.3    71  LYS71       0.0285
     54  CG       -39.2310   24.1220  -21.2620 C.3    71  LYS71       0.0035
     55  CD       -40.5850   23.3900  -21.0720 C.3    71  LYS71       0.0206
     56  CE       -41.1700   23.4770  -19.6540 C.3    71  LYS71       0.1093
     57  NZ       -41.9910   24.7040  -19.4680 N.3    71  LYS71      -0.1314
     58  N        -36.9480   25.3050  -25.0570 N.am   72  ALA72      -0.1966
     59  CA       -36.5390   25.3430  -26.4560 C.3    72  ALA72       0.1728
     60  C        -35.0270   25.0970  -26.6010 C.2    72  ALA72       0.2616
     61  O        -34.5880   24.2140  -27.3660 O.2    72  ALA72      -0.2715
     62  CB       -36.9590   26.6840  -27.0500 C.3    72  ALA72       0.0334
     63  N        -34.2180   25.8430  -25.8330 N.am   73  ALA73      -0.1977
     64  CA       -32.7690   25.6700  -25.7870 C.3    73  ALA73       0.1597
     65  C        -32.3420   24.2110  -25.5200 C.2    73  ALA73       0.2287
     66  O        -31.4640   23.6650  -26.2130 O.2    73  ALA73      -0.2864
     67  CB       -32.1710   26.6010  -24.7080 C.3    73  ALA73       0.0319
     68  N        -34.1150   21.5790  -25.8730 N.3    74  TRP74      -0.1227
     69  CA       -34.6050   20.7630  -26.9640 C.3    74  TRP74       0.1737
     70  C        -33.5880   20.8170  -28.0940 C.2    74  TRP74       0.2595
     71  O        -33.1220   19.7640  -28.5480 O.2    74  TRP74      -0.2718
     72  CB       -35.9790   21.2210  -27.4530 C.3    74  TRP74       0.0564
     73  CG       -36.3530   20.6490  -28.8300 C.ar   74  TRP74       0.0003
     74  CD1      -36.8670   19.4020  -29.0950 C.ar   74  TRP74       0.0946
     75  CD2      -36.2230   21.3020  -30.1090 C.ar   74  TRP74       0.0152
     76  NE1      -37.0580   19.2410  -30.4380 N.ar   74  TRP74      -0.2442
     77  CE2      -36.6860   20.3900  -31.0890 C.ar   74  TRP74       0.0810
     78  CE3      -35.7700   22.5600  -30.5170 C.ar   74  TRP74       0.0012
     79  CZ2      -36.7070   20.7010  -32.4590 C.ar   74  TRP74       0.0191
     80  CZ3      -35.7960   22.8690  -31.8770 C.ar   74  TRP74       0.0001
     81  CH2      -36.2530   21.9370  -32.8350 C.ar   74  TRP74       0.0015
     82  N        -33.2170   22.0220  -28.5380 N.am   75  TRP75      -0.1976
     83  CA       -32.3180   22.1150  -29.6980 C.3    75  TRP75       0.1640
     84  C        -30.9480   21.4980  -29.4210 C.2    75  TRP75       0.2290
     85  O        -30.3770   20.8240  -30.2920 O.2    75  TRP75      -0.2864
     86  CB       -32.1430   23.5670  -30.1220 C.3    75  TRP75       0.0576
     87  CG       -31.4070   23.7030  -31.4010 C.ar   75  TRP75       0.0006
     88  CD1      -31.9460   23.6880  -32.6570 C.ar   75  TRP75       0.0946
     89  CD2      -29.9990   23.9110  -31.5660 C.ar   75  TRP75       0.0152
     90  NE1      -30.9550   23.8590  -33.5900 N.ar   75  TRP75      -0.2442
     91  CE2      -29.7530   24.0010  -32.9500 C.ar   75  TRP75       0.0810
     92  CE3      -28.9260   24.0620  -30.6750 C.ar   75  TRP75       0.0012
     93  CZ2      -28.4850   24.2090  -33.4690 C.ar   75  TRP75       0.0191
     94  CZ3      -27.6560   24.2710  -31.1910 C.ar   75  TRP75       0.0001
     95  CH2      -27.4480   24.3330  -32.5810 C.ar   75  TRP75       0.0015
@<TRIPOS>BOND
     1    90    91   ar
     2    90    88   ar
     3    93    91   ar
     4    93    95   ar
     5    91    89   ar
     6    81    79   ar
     7    81    80   ar
     8    88    87   ar
     9    95    94   ar
    10    79    77   ar
    11    80    78   ar
    12    89    87   ar
    13    89    92   ar
    14    87    86    1
    15    94    92   ar
    16    77    76   ar
    17    77    75   ar
    18    78    75   ar
    19    76    74   ar
    20    85    84    2
    21    86    83    1
    22    75    73   ar
    23    83    84    1
    24    83    82    1
    25    74    73   ar
    26    73    72    1
    27    71    70    2
    28    82    70   am
    29    70    69    1
    30    34    32    1
    31    33    32    1
    32    72    69    1
    33    61    60    2
    34    62    59    1
    35    69    68    1
    36    32    31    1
    37    23    21   ar
    38    23    25   ar
    39    26    25    1
    40    60    59    1
    41    60    63   am
    42    31    28    1
    43    59    58    1
    44    30    29    2
    45    21    20   ar
    46    66    65    2
    47    25    24   ar
    48    63    64    1
    49    64    65    1
    50    64    67    1
    51    29    28    1
    52    28    27    1
    53    41    39    1
    54    58    51   am
    55    20    22   ar
    56    20    19    1
    57    24    22   ar
    58    52    51    2
    59     9     7   am
    60    48    46    1
    61     8     7    2
    62    51    50    1
    63    45    44    2
    64    38    37    2
    65     7     6    1
    66    19    16    1
    67    16    17    1
    68    16    15    1
    69    18    17    2
    70    43    46    1
    71    43    44    1
    72    43    42    1
    73    39    40    1
    74    39    36    1
    75    47    46    1
    76    37    42   am
    77    37    36    1
    78    13    12    2
    79    15    12   am
    80    14    11    1
    81    12    11    1
    82     6     5    1
    83    36    35    1
    84    50    53    1
    85    50    49    1
    86    53    54    1
    87     5     2    1
    88    11    10    1
    89     4     3    2
    90     2     3    1
    91     2     1    1
    92    54    55    1
    93    55    56    1
    94    56    57    1
