@<TRIPOS>MOLECULE
tmp/6ebqA00.pdb
 141 138 0 0 0
SMALL
GASTEIGER

@<TRIPOS>ATOM
      1  N         22.8040    0.8020  -43.8750 N.3     7  SER7       -0.1202
      2  CA        23.3130    2.0460  -43.3180 C.3     7  SER7        0.2020
      3  C         22.2930    2.5690  -42.3110 C.2     7  SER7        0.2619
      4  O         21.1160    2.6700  -42.6380 O.2     7  SER7       -0.2717
      5  CB        23.5260    3.0620  -44.4480 C.3     7  SER7        0.2103
      6  OG        24.2610    4.1900  -44.0160 O.3     7  SER7       -0.2182
      7  N         22.7330    2.8970  -41.0980 N.am    8  THR8       -0.1952
      8  CA        21.8420    3.4970  -40.0940 C.3     8  THR8        0.1897
      9  C         21.5330    4.9470  -40.4830 C.2     8  THR8        0.2313
     10  O         21.9980    5.4320  -41.5250 O.2     8  THR8       -0.2863
     11  CB        22.4490    3.4630  -38.6700 C.3     8  THR8        0.1794
     12  OG1       23.5840    4.3350  -38.6050 O.3     8  THR8       -0.2208
     13  CG2       22.8410    2.0410  -38.2630 C.3     8  THR8        0.0378
     14  N         22.7790    7.6130  -39.4220 N.3    10  SER10      -0.1202
     15  CA        24.0250    8.3840  -39.6200 C.3    10  SER10       0.2020
     16  C         24.5370    8.3960  -41.0760 C.2    10  SER10       0.2619
     17  O         25.3050    9.2830  -41.4460 O.2    10  SER10      -0.2717
     18  CB        25.1320    7.9200  -38.6570 C.3    10  SER10       0.2103
     19  OG        25.3920    6.5340  -38.7590 O.3    10  SER10      -0.2182
     20  N         24.1200    7.4190  -41.8870 N.am   11  ASN11      -0.1960
     21  CA        24.2920    7.4390  -43.3550 C.3    11  ASN11       0.1819
     22  C         25.7370    7.3720  -43.9060 C.2    11  ASN11       0.2621
     23  O         25.9620    7.6870  -45.0750 O.2    11  ASN11      -0.2715
     24  CB        23.5160    8.6300  -43.9900 C.3    11  ASN11       0.1195
     25  CG        22.0380    8.3290  -44.1970 C.2    11  ASN11       0.2630
     26  OD1       21.6760    7.3700  -44.8800 O.2    11  ASN11      -0.2716
     27  ND2       21.1760    9.1680  -43.6280 N.am   11  ASN11      -0.0877
     28  N         26.7050    6.9380  -43.0960 N.am   12  ASN12      -0.1958
     29  CA        28.1010    6.8680  -43.5600 C.3    12  ASN12       0.1819
     30  C         28.2820    5.8970  -44.7320 C.2    12  ASN12       0.2621
     31  O         28.9140    6.2380  -45.7370 O.2    12  ASN12      -0.2715
     32  CB        29.0530    6.4760  -42.4230 C.3    12  ASN12       0.1195
     33  CG        29.1390    7.5260  -41.3290 C.2    12  ASN12       0.2630
     34  OD1       28.7190    8.6710  -41.5070 O.2    12  ASN12      -0.2716
     35  ND2       29.6950    7.1370  -40.1850 N.am   12  ASN12      -0.0877
     36  N         27.7100    4.7010  -44.5960 N.am   13  THR13      -0.1951
     37  CA        27.8100    3.6500  -45.6130 C.3    13  THR13       0.1897
     38  C         26.9890    4.0060  -46.8560 C.2    13  THR13       0.2313
     39  O         27.3800    3.6760  -47.9760 O.2    13  THR13      -0.2863
     40  CB        27.3270    2.2860  -45.0660 C.3    13  THR13       0.1794
     41  OG1       27.9880    1.9980  -43.8280 O.3    13  THR13      -0.2208
     42  CG2       27.6040    1.1620  -46.0600 C.3    13  THR13       0.0378
     43  N         28.2050   -1.9570  -42.3640 N.3    46  PRO46      -0.2102
     44  CA        29.0180   -1.4510  -41.2620 C.3    46  PRO46       0.1504
     45  C         29.0030   -2.3910  -40.0560 C.2    46  PRO46       0.2576
     46  O         28.2120   -3.3260  -40.0120 O.2    46  PRO46      -0.2718
     47  CB        28.3390   -0.1260  -40.9230 C.3    46  PRO46       0.0282
     48  CG        26.8990   -0.3920  -41.2040 C.3    46  PRO46       0.0208
     49  CD        26.8770   -1.3170  -42.3870 C.3    46  PRO46       0.0893
     50  N         29.8670   -2.1160  -39.0850 N.am   47  THR47      -0.1939
     51  CA        30.0360   -2.9640  -37.9110 C.3    47  THR47       0.2028
     52  C         29.5340   -2.2490  -36.6570 C.2    47  THR47       0.2642
     53  O         29.8120   -1.0680  -36.4740 O.2    47  THR47      -0.2714
     54  CB        31.5120   -3.3780  -37.7600 C.3    47  THR47       0.1808
     55  OG1       31.9300   -4.0420  -38.9610 O.3    47  THR47      -0.2208
     56  CG2       31.7030   -4.3130  -36.5750 C.3    47  THR47       0.0379
     57  N         28.8180   -2.9800  -35.7940 N.am   48  TYR48      -0.1959
     58  CA        28.1210   -2.3880  -34.6340 C.3    48  TYR48       0.1771
     59  C         28.2740   -3.1380  -33.2970 C.2    48  TYR48       0.2620
     60  O         27.4150   -3.0400  -32.4190 O.2    48  TYR48      -0.2715
     61  CB        26.6400   -2.1780  -34.9950 C.3    48  TYR48       0.0574
     62  CG        26.4140   -0.8470  -35.6610 C.ar   48  TYR48      -0.0198
     63  CD1       26.1790    0.2910  -34.8950 C.ar   48  TYR48      -0.0009
     64  CD2       26.4790   -0.7090  -37.0450 C.ar   48  TYR48      -0.0009
     65  CE1       25.9910    1.5250  -35.4870 C.ar   48  TYR48       0.0417
     66  CE2       26.2880    0.5260  -37.6510 C.ar   48  TYR48       0.0417
     67  CZ        26.0490    1.6420  -36.8620 C.ar   48  TYR48       0.1957
     68  OH        25.8700    2.8790  -37.4340 O.3    48  TYR48      -0.2866
     69  N         29.3750   -3.8640  -33.1290 N.am   49  SER49      -0.1936
     70  CA        29.6240   -4.5870  -31.8740 C.3    49  SER49       0.2055
     71  C         30.1900   -3.6990  -30.7540 C.2    49  SER49       0.2644
     72  O         30.2820   -4.1410  -29.6120 O.2    49  SER49      -0.2714
     73  CB        30.5300   -5.7950  -32.1210 C.3    49  SER49       0.2130
     74  OG        31.6480   -5.4550  -32.9150 O.3    49  SER49      -0.2179
     75  N         30.5700   -2.4600  -31.0720 N.am   50  GLY50      -0.1939
     76  CA        31.0130   -1.4920  -30.0560 C.3    50  GLY50       0.2014
     77  C         32.4110   -1.7170  -29.4970 C.2    50  GLY50       0.2639
     78  O         32.7640   -1.1450  -28.4680 O.2    50  GLY50      -0.2714
     79  N         33.2180   -2.5300  -30.1750 N.am   51  GLY51      -0.1954
     80  CA        34.5700   -2.8180  -29.7190 C.3    51  GLY51       0.1869
     81  C         34.6400   -3.5750  -28.4130 C.2    51  GLY51       0.2309
     82  O         35.5860   -3.4040  -27.6420 O.2    51  GLY51      -0.2863
     83  N         32.6370   -2.2660  -43.1990 N.3    88  SER88      -0.1202
     84  CA        33.1710   -0.9880  -42.7770 C.3    88  SER88       0.2020
     85  C         33.1040   -0.8080  -41.2770 C.2    88  SER88       0.2619
     86  O         32.4740   -1.5900  -40.5610 O.2    88  SER88      -0.2717
     87  CB        32.4500    0.1610  -43.4900 C.3    88  SER88       0.2103
     88  OG        31.0850    0.2540  -43.1310 O.3    88  SER88      -0.2182
     89  N         33.7910    0.2310  -40.8180 N.am   89  GLY89      -0.1942
     90  CA        33.7620    0.6160  -39.4280 C.3    89  GLY89       0.2014
     91  C         34.6760    1.7910  -39.1550 C.2    89  GLY89       0.2638
     92  O         34.7300    2.7370  -39.9380 O.2    89  GLY89      -0.2714
     93  N         35.3860    1.7170  -38.0380 N.am   90  ASN90      -0.1972
     94  CA        36.3000    2.7560  -37.5900 C.3    90  ASN90       0.1688
     95  C         37.4680    2.0620  -36.9010 C.2    90  ASN90       0.2292
     96  O         37.2530    1.2230  -36.0290 O.2    90  ASN90      -0.2864
     97  CB        35.5620    3.6970  -36.6260 C.3    90  ASN90       0.1181
     98  CG        36.3620    4.9420  -36.2750 C.2    90  ASN90       0.2629
     99  OD1       37.5780    4.8940  -36.1100 O.2    90  ASN90      -0.2716
    100  ND2       35.6670    6.0680  -36.1400 N.am   90  ASN90      -0.0877
    101  N         38.1230    1.2450  -33.0270 N.3    93  PHE93      -0.1241
    102  CA        37.7050    0.0200  -32.3330 C.3    93  PHE93       0.1605
    103  C         38.7360   -1.1180  -32.3650 C.2    93  PHE93       0.2264
    104  O         38.4600   -2.2130  -31.8680 O.2    93  PHE93      -0.2867
    105  CB        36.3300   -0.4220  -32.8340 C.3    93  PHE93       0.0534
    106  CG        35.2560    0.5750  -32.5310 C.ar   93  PHE93      -0.0203
    107  CD1       34.6800    0.6270  -31.2640 C.ar   93  PHE93      -0.0042
    108  CD2       34.8640    1.5130  -33.4830 C.ar   93  PHE93      -0.0042
    109  CE1       33.7010    1.5720  -30.9630 C.ar   93  PHE93      -0.0003
    110  CE2       33.8890    2.4610  -33.1850 C.ar   93  PHE93      -0.0003
    111  CZ        33.3080    2.4890  -31.9250 C.ar   93  PHE93      -0.0000
    112  N         38.3520   -4.9600  -33.1660 N.3    96  SER96      -0.1202
    113  CA        36.9670   -5.0320  -33.6430 C.3    96  SER96       0.2020
    114  C         36.7100   -4.2180  -34.9130 C.2    96  SER96       0.2619
    115  O         35.5640   -4.1390  -35.3550 O.2    96  SER96      -0.2717
    116  CB        36.0010   -4.5920  -32.5440 C.3    96  SER96       0.2103
    117  OG        36.0080   -5.5150  -31.4710 O.3    96  SER96      -0.2182
    118  N         37.7440   -3.6140  -35.5050 N.am   97  PHE97      -0.1961
    119  CA        37.5780   -2.8620  -36.7530 C.3    97  PHE97       0.1771
    120  C         36.9560   -3.7280  -37.8410 C.2    97  PHE97       0.2619
    121  O         37.5150   -4.7640  -38.1980 O.2    97  PHE97      -0.2715
    122  CB        38.9070   -2.3080  -37.2750 C.3    97  PHE97       0.0574
    123  CG        38.8160   -1.7510  -38.6700 C.ar   97  PHE97      -0.0200
    124  CD1       37.9260   -0.7220  -38.9640 C.ar   97  PHE97      -0.0042
    125  CD2       39.5840   -2.2800  -39.7020 C.ar   97  PHE97      -0.0042
    126  CE1       37.8250   -0.2130  -40.2520 C.ar   97  PHE97      -0.0003
    127  CE2       39.4880   -1.7740  -40.9870 C.ar   97  PHE97      -0.0003
    128  CZ        38.6040   -0.7380  -41.2670 C.ar   97  PHE97      -0.0000
    129  N         35.7970   -3.2920  -38.3390 N.am   98  ALA98      -0.1977
    130  CA        35.1490   -3.8750  -39.5140 C.3    98  ALA98       0.1597
    131  C         34.8240   -5.3710  -39.4130 C.2    98  ALA98       0.2287
    132  O         34.6670   -6.0320  -40.4420 O.2    98  ALA98      -0.2864
    133  CB        35.9840   -3.5860  -40.7640 C.3    98  ALA98       0.0319
    134  N         34.2090    4.3920  -42.3270 N.3   118  LEU118     -0.1245
    135  CA        33.2910    5.5420  -42.3300 C.3   118  LEU118      0.1561
    136  C         32.6510    5.8070  -43.7100 C.2   118  LEU118      0.2260
    137  O         31.9430    4.9370  -44.2120 O.2   118  LEU118     -0.2867
    138  CB        34.0130    6.7710  -41.7530 C.3   118  LEU118      0.0270
    139  CG        34.6100    6.6010  -40.3550 C.3   118  LEU118      0.0019
    140  CD1       35.4790    7.8000  -40.0100 C.3   118  LEU118      0.0001
    141  CD2       33.5140    6.3980  -39.3130 C.3   118  LEU118      0.0001
@<TRIPOS>BOND
     1    39    38    2
     2    38    37    1
     3    42    40    1
     4    31    30    2
     5    37    40    1
     6    37    36    1
     7    23    22    2
     8    40    41    1
     9    26    25    2
    10    30    36   am
    11    30    29    1
    12     5     6    1
    13     5     2    1
    14   137   136    2
    15    25    24    1
    16    25    27   am
    17    24    21    1
    18    22    21    1
    19    22    28   am
    20     1     2    1
    21   136   135    1
    22    29    28    1
    23    29    32    1
    24    87    88    1
    25    87    84    1
    26    21    20    1
    27     2     3    1
    28    83    84    1
    29    84    85    1
    30     4     3    2
    31    32    33    1
    32    49    43    1
    33    49    48    1
    34    43    44    1
    35   135   134    1
    36   135   138    1
    37     3     7   am
    38    20    16   am
    39   138   139    1
    40    10     9    2
    41    34    33    2
    42    17    16    2
    43    33    35   am
    44    85    89   am
    45    85    86    2
    46   128   127   ar
    47   128   126   ar
    48    44    47    1
    49    44    45    1
    50    48    47    1
    51     7     8    1
    52    16    15    1
    53   127   125   ar
    54    89    90    1
    55   133   130    1
    56     9     8    1
    57   132   131    2
    58   139   140    1
    59   139   141    1
    60   126   124   ar
    61     8    11    1
    62    45    46    2
    63    45    50   am
    64    92    91    2
    65   125   123   ar
    66    15    14    1
    67    15    18    1
    68   130   131    1
    69   130   129    1
    70    90    91    1
    71    91    93   am
    72    50    51    1
    73   124   123   ar
    74    55    54    1
    75    19    18    1
    76    11    12    1
    77    11    13    1
    78   123   122    1
    79   129   120   am
    80   121   120    2
    81    93    94    1
    82    51    54    1
    83    51    52    1
    84   120   119    1
    85    54    56    1
    86    66    64   ar
    87    66    67   ar
    88    94    95    1
    89    94    97    1
    90    68    67    1
    91   122   119    1
    92    64    62   ar
    93    95    96    2
    94    67    65   ar
    95   119   118    1
    96    52    53    2
    97    52    57   am
    98    97    98    1
    99    98   100   am
   100    98    99    2
   101    57    58    1
   102    62    61    1
   103    62    63   ar
   104   118   114   am
   105    65    63   ar
   106   115   114    2
   107    61    58    1
   108   114   113    1
   109    58    59    1
   110   113   112    1
   111   113   116    1
   112   108   110   ar
   113   108   106   ar
   114    59    69   am
   115    59    60    2
   116   110   111   ar
   117    69    70    1
   118   101   102    1
   119    74    73    1
   120   105   106    1
   121   105   102    1
   122   116   117    1
   123   106   107   ar
   124   103   102    1
   125   103   104    2
   126    73    70    1
   127   111   109   ar
   128    70    71    1
   129   107   109   ar
   130    75    71   am
   131    75    76    1
   132    71    72    2
   133    79    80    1
   134    79    77   am
   135    76    77    1
   136    80    81    1
   137    77    78    2
   138    81    82    2
