@<TRIPOS>MOLECULE
tmp/6ec3C00.pdb
 158 144 0 0 0
SMALL
GASTEIGER

@<TRIPOS>ATOM
      1  N        -49.4710  -35.9620   46.0970 N.3   270  ARG270     -0.1245
      2  CA       -49.9700  -35.9470   44.7270 C.3   270  ARG270      0.1563
      3  C        -51.4550  -36.2770   44.7180 C.2   270  ARG270      0.2260
      4  O        -51.8790  -37.2560   45.3380 O.2   270  ARG270     -0.2867
      5  CB       -49.2020  -36.9370   43.8430 C.3   270  ARG270      0.0307
      6  CG       -49.5850  -36.8790   42.3690 C.3   270  ARG270      0.0489
      7  CD       -49.0090  -38.0560   41.5950 C.3   270  ARG270      0.2205
      8  NE       -49.1620  -37.9010   40.1500 N.pl3 270  ARG270     -0.0865
      9  CZ       -48.2790  -37.2940   39.3640 C.cat 270  ARG270      0.5346
     10  NH1      -47.1710  -36.7800   39.8790 N.pl3 270  ARG270      0.1354
     11  NH2      -48.5020  -37.2020   38.0600 N.pl3 270  ARG270      0.1354
     12  N        -49.3150  -32.0010   42.0520 N.3   310  VAL310     -0.1245
     13  CA       -48.1750  -32.3440   42.8960 C.3   310  VAL310      0.1561
     14  C        -48.0180  -31.2890   43.9810 C.2   310  VAL310      0.2260
     15  O        -48.1990  -30.0860   43.7400 O.2   310  VAL310     -0.2867
     16  CB       -46.8900  -32.4930   42.0580 C.3   310  VAL310      0.0252
     17  CG1      -47.0160  -33.6700   41.1040 C.3   310  VAL310      0.0019
     18  CG2      -46.5980  -31.2190   41.2830 C.3   310  VAL310      0.0019
     19  N        -45.7530  -29.9790   47.5490 N.3   312  LYS312     -0.1245
     20  CA       -44.6060  -29.9660   48.4520 C.3   312  LYS312      0.1561
     21  C        -45.0610  -29.2600   49.7250 C.2   312  LYS312      0.2260
     22  O        -45.1690  -28.0270   49.7570 O.2   312  LYS312     -0.2867
     23  CB       -43.4060  -29.2660   47.8220 C.3   312  LYS312      0.0271
     24  CG       -42.8250  -29.9520   46.5970 C.3   312  LYS312      0.0035
     25  CD       -41.8050  -31.0150   46.9770 C.3   312  LYS312      0.0206
     26  CE       -41.0460  -31.4980   45.7510 C.3   312  LYS312      0.1093
     27  NZ       -39.9250  -32.4100   46.1030 N.3   312  LYS312     -0.1314
     28  N        -38.1380  -35.7620   45.1630 N.3   320  VAL320     -0.1245
     29  CA       -38.7220  -36.6500   44.1680 C.3   320  VAL320      0.1561
     30  C        -37.5750  -37.3440   43.4480 C.2   320  VAL320      0.2260
     31  O        -36.6820  -36.6660   42.9370 O.2   320  VAL320     -0.2867
     32  CB       -39.6100  -35.9020   43.1570 C.3   320  VAL320      0.0252
     33  CG1      -40.1910  -36.8710   42.1380 C.3   320  VAL320      0.0019
     34  CG2      -40.7180  -35.1440   43.8760 C.3   320  VAL320      0.0019
     35  N        -36.2080  -39.5880   37.2500 N.3   323  HIS323     -0.1241
     36  CA       -36.9250  -40.5470   36.4230 C.3   323  HIS323      0.1621
     37  C        -37.2460  -39.8970   35.0860 C.2   323  HIS323      0.2264
     38  O        -37.0890  -38.6870   34.9040 O.2   323  HIS323     -0.2867
     39  CB       -38.2150  -41.0100   37.1050 C.3   323  HIS323      0.0745
     40  CG       -39.2310  -39.9210   37.2660 C.ar  323  HIS323      0.0817
     41  ND1      -39.0690  -38.8790   38.1540 N.ar  323  HIS323     -0.2268
     42  CD2      -40.4150  -39.7040   36.6450 C.ar  323  HIS323      0.1154
     43  CE1      -40.1110  -38.0710   38.0780 C.ar  323  HIS323      0.1986
     44  NE2      -40.9430  -38.5490   37.1690 N.ar  323  HIS323     -0.2212
     45  N        -45.3570  -32.2770   29.2420 N.3   336  ASN336     -0.1240
     46  CA       -46.0170  -31.9560   30.4980 C.3   336  ASN336      0.1653
     47  C        -46.0130  -30.4490   30.6980 C.2   336  ASN336      0.2266
     48  O        -44.9600  -29.8040   30.5890 O.2   336  ASN336     -0.2867
     49  CB       -45.3310  -32.6410   31.6830 C.3   336  ASN336      0.1155
     50  CG       -45.7810  -34.0750   31.8730 C.2   336  ASN336      0.2627
     51  OD1      -46.9250  -34.4220   31.5820 O.2   336  ASN336     -0.2716
     52  ND2      -44.8870  -34.9150   32.3800 N.am  336  ASN336     -0.0877
     53  N        -46.9560  -27.5190   33.5750 N.3   338  SER338     -0.1217
     54  CA       -46.9460  -27.4050   35.0300 C.3   338  SER338      0.1889
     55  C        -47.3100  -25.9670   35.3780 C.2   338  SER338      0.2288
     56  O        -46.4760  -25.0620   35.2700 O.2   338  SER338     -0.2866
     57  CB       -45.5890  -27.7940   35.6080 C.3   338  SER338      0.2089
     58  OG       -45.2290  -29.1100   35.2240 O.3   338  SER338     -0.2183
     59  N        -47.6190  -23.4270   37.9500 N.3   340  CYS340     -0.1235
     60  CA       -47.0080  -23.2530   39.2620 C.3   340  CYS340      0.1677
     61  C        -47.8970  -22.3420   40.0990 C.2   340  CYS340      0.2270
     62  O        -48.0120  -21.1440   39.8190 O.2   340  CYS340     -0.2867
     63  CB       -45.5990  -22.6800   39.1280 C.3   340  CYS340      0.0956
     64  SG       -44.3720  -23.8530   38.5050 S.3   340  CYS340     -0.0801
     65  N        -37.7480  -26.9340   46.5310 N.3   349  GLY349     -0.1210
     66  CA       -38.2360  -28.1460   45.9090 C.3   349  GLY349      0.1956
     67  C        -38.6590  -27.9800   44.4690 C.2   349  GLY349      0.2612
     68  O        -39.5540  -28.6990   44.0100 O.2   349  GLY349     -0.2717
     69  N        -38.0430  -27.0520   43.7400 N.am  350  CYS350     -0.1956
     70  CA       -38.4500  -26.7380   42.3800 C.3   350  CYS350      0.1843
     71  C        -37.9840  -27.8290   41.4160 C.2   350  CYS350      0.2625
     72  O        -37.3680  -28.8260   41.8050 O.2   350  CYS350     -0.2714
     73  CB       -37.8950  -25.3790   41.9620 C.3   350  CYS350      0.0997
     74  SG       -36.0940  -25.3400   41.8020 S.3   350  CYS350     -0.0797
     75  N        -38.2870  -27.6340   40.1360 N.am  351  LEU351     -0.1977
     76  CA       -37.8970  -28.5950   39.1140 C.3   351  LEU351      0.1596
     77  C        -36.3870  -28.5950   38.9280 C.2   351  LEU351      0.2287
     78  O        -35.7380  -27.5470   38.9760 O.2   351  LEU351     -0.2864
     79  CB       -38.5750  -28.2670   37.7840 C.3   351  LEU351      0.0297
     80  CG       -38.3240  -29.2250   36.6190 C.3   351  LEU351      0.0022
     81  CD1      -38.5600  -30.6660   37.0500 C.3   351  LEU351      0.0001
     82  CD2      -39.2090  -28.8650   35.4360 C.3   351  LEU351      0.0001
     83  N        -35.1990  -25.0520   37.6430 N.3   378  VAL378     -0.1245
     84  CA       -36.1160  -24.2260   36.8620 C.3   378  VAL378      0.1561
     85  C        -36.8740  -23.2970   37.8050 C.2   378  VAL378      0.2260
     86  O        -37.9200  -23.6850   38.3460 O.2   378  VAL378     -0.2867
     87  CB       -37.0850  -25.0920   36.0410 C.3   378  VAL378      0.0252
     88  CG1      -37.9700  -24.2180   35.1670 C.3   378  VAL378      0.0019
     89  CG2      -36.3150  -26.0940   35.1960 C.3   378  VAL378      0.0019
     90  N        -39.4470  -20.4870   39.0960 N.3   380  SER380     -0.1217
     91  CA       -40.7960  -20.2180   38.6210 C.3   380  SER380      0.1889
     92  C        -41.5220  -19.3440   39.6310 C.2   380  SER380      0.2288
     93  O        -41.3880  -19.5430   40.8410 O.2   380  SER380     -0.2866
     94  CB       -41.5730  -21.5200   38.3920 C.3   380  SER380      0.2089
     95  OG       -41.7260  -22.2380   39.6050 O.3   380  SER380     -0.2183
     96  N        -44.4840  -24.3530   33.2480 N.3   386  ILE386     -0.1245
     97  CA       -43.2750  -25.0790   32.8710 C.3   386  ILE386      0.1561
     98  C        -43.6520  -26.1900   31.9020 C.2   386  ILE386      0.2260
     99  O        -44.5340  -27.0040   32.1930 O.2   386  ILE386     -0.2867
    100  CB       -42.5650  -25.6590   34.1060 C.3   386  ILE386      0.0252
    101  CG1      -42.4180  -24.5950   35.1940 C.3   386  ILE386      0.0019
    102  CG2      -41.2090  -26.2290   33.7210 C.3   386  ILE386      0.0019
    103  CD1      -41.6070  -23.3960   34.7740 C.3   386  ILE386      0.0001
    104  N        -42.1380  -29.4500   29.7150 N.3   388  HIS388     -0.1241
    105  CA       -40.9690  -30.3100   29.5850 C.3   388  HIS388      0.1621
    106  C        -41.3530  -31.6170   28.9090 C.2   388  HIS388      0.2264
    107  O        -42.4980  -32.0650   28.9880 O.2   388  HIS388     -0.2867
    108  CB       -40.3030  -30.5790   30.9420 C.3   388  HIS388      0.0745
    109  CG       -41.1080  -31.4480   31.8580 C.ar  388  HIS388      0.0817
    110  ND1      -41.0100  -32.8230   31.8560 N.ar  388  HIS388     -0.2268
    111  CD2      -42.0120  -31.1370   32.8160 C.ar  388  HIS388      0.1154
    112  CE1      -41.8250  -33.3220   32.7680 C.ar  388  HIS388      0.1986
    113  NE2      -42.4450  -32.3200   33.3650 N.ar  388  HIS388     -0.2212
    114  N        -35.7830  -35.9560   35.0520 N.3   394  HIS394     -0.1226
    115  CA       -36.0620  -34.8260   35.9230 C.3   394  HIS394      0.1752
    116  C        -36.2720  -35.3230   37.3440 C.2   394  HIS394      0.2597
    117  O        -36.5770  -36.4940   37.5800 O.2   394  HIS394     -0.2718
    118  CB       -37.2900  -34.0350   35.4540 C.3   394  HIS394      0.0759
    119  CG       -38.5380  -34.8560   35.3690 C.ar  394  HIS394      0.0818
    120  ND1      -38.8000  -35.7030   34.3140 N.ar  394  HIS394     -0.2268
    121  CD2      -39.5950  -34.9620   36.2090 C.ar  394  HIS394      0.1154
    122  CE1      -39.9650  -36.2940   34.5080 C.ar  394  HIS394      0.1986
    123  NE2      -40.4680  -35.8620   35.6500 N.ar  394  HIS394     -0.2212
    124  N        -36.1110  -34.4080   38.2860 N.am  395  GLY395     -0.1942
    125  CA       -36.2660  -34.7410   39.6820 C.3   395  GLY395      0.2014
    126  C        -36.3570  -33.4870   40.5150 C.2   395  GLY395      0.2639
    127  O        -36.5920  -32.3950   39.9960 O.2   395  GLY395     -0.2714
    128  N        -36.1630  -33.6530   41.8210 N.am  396  SER396     -0.1949
    129  CA       -36.2260  -32.5180   42.7280 C.3   396  SER396      0.1924
    130  C        -35.6010  -32.9010   44.0590 C.2   396  SER396      0.2314
    131  O        -35.4140  -34.0810   44.3660 O.2   396  SER396     -0.2863
    132  CB       -37.6710  -32.0530   42.9400 C.3   396  SER396      0.2116
    133  OG       -37.7170  -30.8350   43.6610 O.3   396  SER396     -0.2180
    134  N        -45.4970  -25.5840   48.1370 N.3   405  ARG405     -0.1245
    135  CA       -45.0990  -25.5680   46.7270 C.3   405  ARG405      0.1563
    136  C        -46.0600  -26.4850   45.9590 C.2   405  ARG405      0.2260
    137  O        -45.8090  -27.6810   45.8160 O.2   405  ARG405     -0.2867
    138  CB       -43.6530  -25.9840   46.5470 C.3   405  ARG405      0.0307
    139  CG       -43.1220  -25.7180   45.1620 C.3   405  ARG405      0.0489
    140  CD       -42.9870  -27.0030   44.3880 C.3   405  ARG405      0.2205
    141  NE       -43.2270  -26.7800   42.9720 N.pl3 405  ARG405     -0.0865
    142  CZ       -43.3870  -27.7500   42.0830 C.cat 405  ARG405      0.5346
    143  NH1      -43.3320  -29.0190   42.4620 N.pl3 405  ARG405      0.1354
    144  NH2      -43.6190  -27.4430   40.8170 N.pl3 405  ARG405      0.1354
    145  N        -48.3890  -27.4350   42.4900 N.3   407  THR407     -0.1218
    146  CA       -48.2890  -27.3260   41.0390 C.3   407  THR407      0.1862
    147  C        -49.2860  -28.2620   40.3710 C.2   407  THR407      0.2287
    148  O        -49.4860  -29.3910   40.8250 O.2   407  THR407     -0.2866
    149  CB       -46.8660  -27.6340   40.5600 C.3   407  THR407      0.1770
    150  OG1      -45.9510  -26.7280   41.1840 O.3   407  THR407     -0.2211
    151  CG2      -46.7520  -27.4890   39.0510 C.3   407  THR407      0.0375
    152  N        -50.1080  -30.4270   37.1480 N.3   409  VAL409     -0.1245
    153  CA       -49.4060  -31.0900   36.0540 C.3   409  VAL409      0.1561
    154  C        -50.4430  -31.6940   35.1190 C.2   409  VAL409      0.2260
    155  O        -51.2820  -32.4980   35.5450 O.2   409  VAL409     -0.2867
    156  CB       -48.4450  -32.1700   36.5730 C.3   409  VAL409      0.0252
    157  CG1      -47.6930  -32.8190   35.4180 C.3   409  VAL409      0.0019
    158  CG2      -47.4900  -31.5790   37.5910 C.3   409  VAL409      0.0019
@<TRIPOS>BOND
     1   106   107    2
     2   106   105    1
     3    45    46    1
     4   105   104    1
     5   105   108    1
     6    46    47    1
     7    46    49    1
     8    48    47    2
     9   108   109    1
    10    51    50    2
    11    49    50    1
    12   110   109   ar
    13   110   112   ar
    14   109   111   ar
    15    50    52   am
    16    98    99    2
    17    98    97    1
    18   112   113   ar
    19   111   113   ar
    20    97    96    1
    21    97   100    1
    22    53    54    1
    23   102   100    1
    24   100   101    1
    25   120   122   ar
    26   120   119   ar
    27   122   123   ar
    28   103   101    1
    29    38    37    2
    30    54    55    1
    31    54    57    1
    32   114   115    1
    33    37    36    1
    34   154   155    2
    35   154   153    1
    36    88    87    1
    37    89    87    1
    38    58    57    1
    39    56    55    2
    40   119   118    1
    41   119   121   ar
    42   157   156    1
    43    82    80    1
    44   118   115    1
    45   123   121   ar
    46   115   116    1
    47    87    84    1
    48   153   156    1
    49   153   152    1
    50    36    39    1
    51    36    35    1
    52   156   158    1
    53    80    81    1
    54    80    79    1
    55    42    44   ar
    56    42    40   ar
    57    84    83    1
    58    84    85    1
    59    39    40    1
    60    44    43   ar
    61    40    41   ar
    62   116   117    2
    63   116   124   am
    64    79    76    1
    65    85    86    2
    66    59    60    1
    67    11     9    1
    68    43    41   ar
    69   124   125    1
    70    94    91    1
    71    94    95    1
    72    64    63    1
    73    91    90    1
    74    91    92    1
    75    77    78    2
    76    77    76    1
    77   151   149    1
    78    76    75    1
    79    63    60    1
    80    60    61    1
    81     9    10    1
    82     9     8    2
    83    92    93    2
    84   125   126    1
    85    62    61    2
    86   127   126    2
    87    75    71   am
    88     8     7    1
    89   147   148    2
    90   147   146    1
    91   126   128   am
    92   149   146    1
    93   149   150    1
    94   144   142    1
    95   146   145    1
    96    17    16    1
    97    18    16    1
    98    71    72    2
    99    71    70    1
   100     7     6    1
   101    74    73    1
   102   128   129    1
   103    73    70    1
   104    12    13    1
   105    16    13    1
   106   142   143    1
   107   142   141    2
   108    33    32    1
   109     6     5    1
   110    70    69    1
   111   129   132    1
   112   129   130    1
   113    13    14    1
   114    31    30    2
   115   132   133    1
   116   141   140    1
   117    32    34    1
   118    32    29    1
   119    30    29    1
   120    69    67   am
   121    15    14    2
   122     5     2    1
   123    68    67    2
   124   130   131    2
   125    29    28    1
   126   140   139    1
   127    67    66    1
   128     3     2    1
   129     3     4    2
   130     2     1    1
   131   139   138    1
   132    26    27    1
   133    26    25    1
   134   137   136    2
   135    66    65    1
   136   136   135    1
   137   138   135    1
   138    24    25    1
   139    24    23    1
   140   135   134    1
   141    19    20    1
   142    23    20    1
   143    20    21    1
   144    21    22    2
