@<TRIPOS>MOLECULE
tmp/6eceB00.pdb
 90 84 0 0 0
SMALL
GASTEIGER

@<TRIPOS>ATOM
      1  N         16.2700  -32.8970   18.8440 N.3    15  PRO15      -0.2102
      2  CA        16.1150  -31.4840   19.2100 C.3    15  PRO15       0.1504
      3  C         16.1250  -31.2750   20.7140 C.2    15  PRO15       0.2575
      4  O         16.3450  -32.2230   21.4750 O.2    15  PRO15      -0.2718
      5  CB        14.7550  -31.1180   18.6050 C.3    15  PRO15       0.0282
      6  CG        13.9810  -32.4000   18.6750 C.3    15  PRO15       0.0208
      7  CD        14.9900  -33.5070   18.4310 C.3    15  PRO15       0.0893
      8  N         15.8810  -30.0400   21.1470 N.am   16  ALA16      -0.1980
      9  CA        15.8130  -29.7360   22.5680 C.3    16  ALA16       0.1597
     10  C         14.7380  -30.5860   23.2290 C.2    16  ALA16       0.2287
     11  O         13.5690  -30.5490   22.8310 O.2    16  ALA16      -0.2864
     12  CB        15.5270  -28.2500   22.7670 C.3    16  ALA16       0.0319
     13  N         17.1340  -31.6130   13.4190 N.3    79  HIS79      -0.1241
     14  CA        16.1010  -30.5830   13.4960 C.3    79  HIS79       0.1621
     15  C         16.3090  -29.7810   14.7760 C.2    79  HIS79       0.2264
     16  O         16.6390  -30.3380   15.8160 O.2    79  HIS79      -0.2867
     17  CB        14.7160  -31.2290   13.4750 C.3    79  HIS79       0.0745
     18  CG        13.5950  -30.2740   13.7280 C.ar   79  HIS79       0.0817
     19  ND1       12.7710  -30.3710   14.8280 N.ar   79  HIS79      -0.2268
     20  CD2       13.1590  -29.2030   13.0230 C.ar   79  HIS79       0.1154
     21  CE1       11.8750  -29.4000   14.7910 C.ar   79  HIS79       0.1986
     22  NE2       12.0890  -28.6770   13.7060 N.ar   79  HIS79      -0.2212
     23  N         17.7680  -27.8120   17.7800 N.3    80  LEU80      -0.1245
     24  CA        19.0620  -27.9660   18.4330 C.3    80  LEU80       0.1561
     25  C         19.7880  -29.2020   17.9080 C.2    80  LEU80       0.2260
     26  O         21.0070  -29.3100   18.0260 O.2    80  LEU80      -0.2867
     27  CB        18.8860  -28.0560   19.9450 C.3    80  LEU80       0.0270
     28  CG        20.1510  -28.2970   20.7670 C.3    80  LEU80       0.0019
     29  CD1       21.1650  -27.1860   20.5500 C.3    80  LEU80       0.0001
     30  CD2       19.7990  -28.4260   22.2460 C.3    80  LEU80       0.0001
     31  N         22.0520  -20.0730   17.8330 N.3   111  LEU111     -0.1245
     32  CA        20.8320  -20.2160   18.6180 C.3   111  LEU111      0.1561
     33  C         20.4860  -18.9090   19.3240 C.2   111  LEU111      0.2260
     34  O         20.3050  -18.8790   20.5420 O.2   111  LEU111     -0.2867
     35  CB        20.9820  -21.3420   19.6420 C.3   111  LEU111      0.0270
     36  CG        20.6780  -22.7490   19.1250 C.3   111  LEU111      0.0019
     37  CD1       20.9760  -23.7560   20.2220 C.3   111  LEU111      0.0001
     38  CD2       19.1910  -22.8610   18.7950 C.3   111  LEU111      0.0001
     39  N          9.7950  -19.5880   25.9640 N.3   119  PHE119     -0.1241
     40  CA        10.9790  -19.8970   25.1680 C.3   119  PHE119      0.1605
     41  C         11.9430  -18.7170   25.1440 C.2   119  PHE119      0.2264
     42  O         13.1450  -18.8770   25.3780 O.2   119  PHE119     -0.2867
     43  CB        10.5700  -20.2850   23.7460 C.3   119  PHE119      0.0534
     44  CG         9.9420  -21.6450   23.6440 C.ar  119  PHE119     -0.0203
     45  CD1       10.7310  -22.7790   23.5410 C.ar  119  PHE119     -0.0042
     46  CD2        8.5660  -21.7900   23.6470 C.ar  119  PHE119     -0.0042
     47  CE1       10.1580  -24.0330   23.4460 C.ar  119  PHE119     -0.0003
     48  CE2        7.9870  -23.0420   23.5520 C.ar  119  PHE119     -0.0003
     49  CZ         8.7850  -24.1640   23.4520 C.ar  119  PHE119     -0.0000
     50  N         15.7630  -18.9540   26.6740 N.3   123  MET123     -0.1245
     51  CA        16.9420  -18.7900   25.8310 C.3   123  MET123      0.1570
     52  C         18.0200  -17.9810   26.5460 C.2   123  MET123      0.2261
     53  O         19.0720  -18.5120   26.9040 O.2   123  MET123     -0.2867
     54  CB        16.5660  -18.1040   24.5170 C.3   123  MET123      0.0387
     55  CG        15.6490  -18.9170   23.6190 C.3   123  MET123      0.0595
     56  SD        16.5260  -20.1250   22.6080 S.3   123  MET123     -0.1393
     57  CE        15.1800  -20.7560   21.6070 C.3   123  MET123      0.0692
     58  N         14.1480  -30.3890   28.0220 N.3   158  GLN158     -0.1245
     59  CA        14.0150  -29.2810   27.0810 C.3   158  GLN158      0.1566
     60  C         14.3670  -27.9580   27.7480 C.2   158  GLN158      0.2260
     61  O         15.0430  -27.1130   27.1500 O.2   158  GLN158     -0.2867
     62  CB        12.5960  -29.2350   26.5140 C.3   158  GLN158      0.0367
     63  CG        12.3780  -28.1220   25.4980 C.3   158  GLN158      0.0905
     64  CD        11.0200  -28.1970   24.8270 C.2   158  GLN158      0.2608
     65  OE1        9.9920  -27.9170   25.4420 O.2   158  GLN158     -0.2717
     66  NE2       11.0110  -28.5790   23.5560 N.am  158  GLN158     -0.0878
     67  N         17.3530  -25.6950   26.5630 N.3   162  LEU162     -0.1245
     68  CA        17.0080  -24.3360   26.1640 C.3   162  LEU162      0.1561
     69  C         17.8620  -23.3020   26.8880 C.2   162  LEU162      0.2260
     70  O         18.1770  -22.2510   26.3190 O.2   162  LEU162     -0.2867
     71  CB        15.5280  -24.0690   26.4370 C.3   162  LEU162      0.0270
     72  CG        14.5300  -24.4570   25.3480 C.3   162  LEU162      0.0019
     73  CD1       13.1060  -24.3520   25.8770 C.3   162  LEU162      0.0001
     74  CD2       14.7090  -23.5820   24.1200 C.3   162  LEU162      0.0001
     75  N         21.2900  -23.1030   25.4180 N.3   165  SER165     -0.1217
     76  CA        21.2640  -23.0370   23.9610 C.3   165  SER165      0.1889
     77  C         21.9790  -21.7950   23.4460 C.2   165  SER165      0.2288
     78  O         22.7330  -21.8640   22.4690 O.2   165  SER165     -0.2866
     79  CB        19.8180  -23.0620   23.4640 C.3   165  SER165      0.2089
     80  OG        19.0880  -21.9580   23.9700 O.3   165  SER165     -0.2183
     81  N          8.1390  -24.1170   12.1190 N.3   215  HIS215     -0.1241
     82  CA         9.1500  -24.9200   12.7970 C.3   215  HIS215      0.1621
     83  C          8.5840  -26.1940   13.4090 C.2   215  HIS215      0.2264
     84  O          9.3330  -27.1570   13.6130 O.2   215  HIS215     -0.2867
     85  CB         9.8290  -24.0910   13.8880 C.3   215  HIS215      0.0745
     86  CG        11.0860  -24.7070   14.4180 C.ar  215  HIS215      0.0817
     87  ND1       12.1760  -24.9740   13.6180 N.ar  215  HIS215     -0.2268
     88  CD2       11.4280  -25.1070   15.6660 C.ar  215  HIS215      0.1154
     89  CE1       13.1350  -25.5120   14.3510 C.ar  215  HIS215      0.1986
     90  NE2       12.7070  -25.6030   15.5970 N.ar  215  HIS215     -0.2212
@<TRIPOS>BOND
     1    81    82    1
     2    82    83    1
     3    82    85    1
     4    20    22   ar
     5    20    18   ar
     6    83    84    2
     7    13    14    1
     8    17    14    1
     9    17    18    1
    10    14    15    1
    11    87    89   ar
    12    87    86   ar
    13    22    21   ar
    14    18    19   ar
    15    85    86    1
    16    89    90   ar
    17    86    88   ar
    18    15    16    2
    19    21    19   ar
    20    90    88   ar
    21    23    24    1
    22    31    32    1
    23    25    26    2
    24    25    24    1
    25     7     6    1
    26     7     1    1
    27    24    27    1
    28     5     6    1
    29     5     2    1
    30    32    33    1
    31    32    35    1
    32    38    36    1
    33     1     2    1
    34    36    35    1
    35    36    37    1
    36     2     3    1
    37    33    34    2
    38    27    28    1
    39    29    28    1
    40     3     8   am
    41     3     4    2
    42    28    30    1
    43     8     9    1
    44    57    56    1
    45    78    77    2
    46     9    12    1
    47     9    10    1
    48    56    55    1
    49    11    10    2
    50    47    49   ar
    51    47    45   ar
    52    77    76    1
    53    49    48   ar
    54    79    76    1
    55    79    80    1
    56    45    44   ar
    57    48    46   ar
    58    66    64   am
    59    55    54    1
    60    44    46   ar
    61    44    43    1
    62    43    40    1
    63    76    75    1
    64    74    72    1
    65    54    51    1
    66    64    65    2
    67    64    63    1
    68    41    40    1
    69    41    42    2
    70    40    39    1
    71    72    73    1
    72    72    71    1
    73    63    62    1
    74    51    52    1
    75    51    50    1
    76    68    71    1
    77    68    67    1
    78    68    69    1
    79    70    69    2
    80    62    59    1
    81    52    53    2
    82    59    60    1
    83    59    58    1
    84    61    60    2
