@<TRIPOS>MOLECULE
tmp/6ecfA00.pdb
 154 145 0 0 0
SMALL
GASTEIGER

@<TRIPOS>ATOM
      1  N        -27.2790   -7.5070  -20.3860 N.3    24  PRO24      -0.2102
      2  CA       -26.8030   -6.1380  -20.6200 C.3    24  PRO24       0.1504
      3  C        -26.6870   -5.8200  -22.1010 C.2    24  PRO24       0.2575
      4  O        -27.1060   -6.6150  -22.9480 O.2    24  PRO24      -0.2718
      5  CB       -25.4320   -6.1330  -19.9400 C.3    24  PRO24       0.0282
      6  CG       -24.9460   -7.5290  -20.1320 C.3    24  PRO24       0.0208
      7  CD       -26.1690   -8.4170  -20.0470 C.3    24  PRO24       0.0893
      8  N        -26.1110   -4.6650  -22.4260 N.am   25  ALA25      -0.1980
      9  CA       -25.9260   -4.2870  -23.8200 C.3    25  ALA25       0.1597
     10  C        -25.1060   -5.3460  -24.5420 C.2    25  ALA25       0.2287
     11  O        -23.9600   -5.6170  -24.1710 O.2    25  ALA25      -0.2864
     12  CB       -25.2400   -2.9260  -23.9090 C.3    25  ALA25       0.0319
     13  N        -28.0370   -6.6490  -14.7530 N.3    88  HIS88      -0.1241
     14  CA       -26.8090   -5.8670  -14.6960 C.3    88  HIS88       0.1621
     15  C        -26.7490   -4.9000  -15.8770 C.2    88  HIS88       0.2264
     16  O        -27.0500   -5.2760  -17.0100 O.2    88  HIS88      -0.2867
     17  CB       -25.5970   -6.7970  -14.7000 C.3    88  HIS88       0.0745
     18  CG       -24.3010   -6.1100  -14.9970 C.ar   88  HIS88       0.0817
     19  ND1      -23.7440   -5.1700  -14.1570 N.ar   88  HIS88      -0.2268
     20  CD2      -23.4430   -6.2400  -16.0360 C.ar   88  HIS88       0.1154
     21  CE1      -22.6030   -4.7450  -14.6700 C.ar   88  HIS88       0.1986
     22  NE2      -22.3990   -5.3780  -15.8110 N.ar   88  HIS88      -0.2212
     23  N        -27.5770   -2.3500  -18.6720 N.3    89  LEU89      -0.1245
     24  CA       -28.8170   -2.1960  -19.4270 C.3    89  LEU89       0.1561
     25  C        -29.8190   -3.2680  -19.0060 C.2    89  LEU89       0.2260
     26  O        -31.0310   -3.0520  -19.0400 O.2    89  LEU89      -0.2867
     27  CB       -28.5480   -2.2800  -20.9290 C.3    89  LEU89       0.0270
     28  CG       -29.7740   -2.1790  -21.8390 C.3    89  LEU89       0.0019
     29  CD1      -30.4990   -0.8550  -21.6330 C.3    89  LEU89       0.0001
     30  CD2      -29.3770   -2.3450  -23.2970 C.3    89  LEU89       0.0001
     31  N        -29.6000    5.7200  -17.7000 N.3   120  LEU120     -0.1245
     32  CA       -28.3470    5.4150  -18.3810 C.3   120  LEU120      0.1561
     33  C        -28.1470    6.3400  -19.5760 C.2   120  LEU120      0.2260
     34  O        -27.3890    7.3080  -19.5030 O.2   120  LEU120     -0.2867
     35  CB       -28.3260    3.9530  -18.8330 C.3   120  LEU120      0.0270
     36  CG       -27.0090    3.2580  -19.1110 C.3   120  LEU120      0.0019
     37  CD1      -26.1410    3.1580  -17.8640 C.3   120  LEU120      0.0001
     38  CD2      -27.2860    1.8600  -19.6710 C.3   120  LEU120      0.0001
     39  N        -10.5840    3.5020  -27.8850 N.3   124  GLU124     -0.1231
     40  CA       -11.5110    2.4060  -27.6240 C.3   124  GLU124      0.1699
     41  C        -12.7170    2.8900  -26.8270 C.2   124  GLU124      0.2592
     42  O        -13.8660    2.5830  -27.1670 O.2   124  GLU124     -0.2718
     43  CB       -10.7920    1.2750  -26.8870 C.3   124  GLU124      0.0402
     44  CG       -11.6060    0.0200  -26.7430 C.3   124  GLU124      0.1161
     45  CD       -11.1560   -0.8100  -25.5510 C.2   124  GLU124      0.3649
     46  OE1       -9.9140   -0.9220  -25.3150 O.co2 124  GLU124     -0.2457
     47  OE2      -12.0450   -1.3470  -24.8400 O.co2 124  GLU124     -0.2457
     48  N        -12.4750    3.6540  -25.7590 N.am  125  THR125     -0.1953
     49  CA       -13.5710    4.1970  -24.9680 C.3   125  THR125      0.1897
     50  C        -14.2670    5.3600  -25.6620 C.2   125  THR125      0.2313
     51  O        -15.4240    5.6510  -25.3430 O.2   125  THR125     -0.2863
     52  CB       -13.0690    4.6490  -23.5920 C.3   125  THR125      0.1794
     53  OG1      -12.1130    5.7060  -23.7430 O.3   125  THR125     -0.2208
     54  CG2      -12.4230    3.4870  -22.8460 C.3   125  THR125      0.0378
     55  N        -17.5890    4.0380  -27.3580 N.3   128  PHE128     -0.1241
     56  CA       -18.7750    3.9330  -26.5150 C.3   128  PHE128      0.1605
     57  C        -19.3970    5.3000  -26.2680 C.2   128  PHE128      0.2264
     58  O        -20.6250    5.4440  -26.2790 O.2   128  PHE128     -0.2867
     59  CB       -18.4160    3.2570  -25.1920 C.3   128  PHE128      0.0534
     60  CG       -18.0930    1.8030  -25.3350 C.ar  128  PHE128     -0.0203
     61  CD1      -16.7880    1.3840  -25.5250 C.ar  128  PHE128     -0.0042
     62  CD2      -19.0990    0.8540  -25.3010 C.ar  128  PHE128     -0.0042
     63  CE1      -16.4930    0.0460  -25.6690 C.ar  128  PHE128     -0.0003
     64  CE2      -18.8100   -0.4850  -25.4450 C.ar  128  PHE128     -0.0003
     65  CZ       -17.5070   -0.8880  -25.6370 C.ar  128  PHE128     -0.0000
     66  N        -23.1860    6.0580  -27.6750 N.3   132  MET132     -0.1245
     67  CA       -24.3560    6.3800  -26.8640 C.3   132  MET132      0.1570
     68  C        -24.8830    7.7770  -27.1750 C.2   132  MET132      0.2261
     69  O        -24.4450    8.7620  -26.5820 O.2   132  MET132     -0.2867
     70  CB       -24.0130    6.2700  -25.3780 C.3   132  MET132      0.0387
     71  CG       -23.5280    4.8910  -24.9680 C.3   132  MET132      0.0595
     72  SD       -23.2180    4.7560  -23.2000 S.3   132  MET132     -0.1393
     73  CE       -24.8890    4.9310  -22.5680 C.3   132  MET132      0.0692
     74  N        -13.4340   -1.9950  -31.4220 N.3   144  LEU144     -0.1245
     75  CA       -13.8900   -2.9130  -30.3870 C.3   144  LEU144      0.1561
     76  C        -13.5920   -4.3540  -30.7750 C.2   144  LEU144      0.2260
     77  O        -13.1880   -5.1630  -29.9300 O.2   144  LEU144     -0.2867
     78  CB       -15.3850   -2.7190  -30.1460 C.3   144  LEU144      0.0270
     79  CG       -15.8220   -1.2780  -29.8790 C.3   144  LEU144      0.0019
     80  CD1      -17.3300   -1.2000  -29.7040 C.3   144  LEU144      0.0001
     81  CD2      -15.1040   -0.7170  -28.6600 C.3   144  LEU144      0.0001
     82  N        -10.0340   -5.0010  -30.1600 N.3   147  ARG147     -0.1231
     83  CA        -9.7390   -5.0580  -28.7330 C.3   147  ARG147      0.1694
     84  C        -10.0810   -6.4310  -28.1670 C.2   147  ARG147      0.2591
     85  O         -9.2560   -7.0610  -27.4970 O.2   147  ARG147     -0.2718
     86  CB       -10.5040   -3.9590  -27.9950 C.3   147  ARG147      0.0321
     87  CG        -9.8050   -2.6580  -27.9010 C.3   147  ARG147      0.0489
     88  CD        -8.4600   -2.8420  -27.2210 C.3   147  ARG147      0.2205
     89  NE        -8.5640   -3.2420  -25.8160 N.pl3 147  ARG147     -0.0865
     90  CZ        -7.8650   -4.2310  -25.2590 C.cat 147  ARG147      0.5346
     91  NH1       -7.0240   -4.9580  -25.9860 N.pl3 147  ARG147      0.1354
     92  NH2       -7.9080   -4.4170  -23.9470 N.pl3 147  ARG147      0.1354
     93  N        -11.2910   -6.9190  -28.4450 N.am  148  ALA148     -0.1980
     94  CA       -11.6960   -8.2260  -27.9430 C.3   148  ALA148      0.1597
     95  C        -10.7620   -9.3210  -28.4420 C.2   148  ALA148      0.2287
     96  O        -10.3140  -10.1720  -27.6660 O.2   148  ALA148     -0.2864
     97  CB       -13.1370   -8.5180  -28.3580 C.3   148  ALA148      0.0319
     98  N        -22.5340  -10.4760  -31.0080 N.3   166  PHE166     -0.1227
     99  CA       -22.6020   -9.7110  -29.7680 C.3   166  PHE166      0.1736
    100  C        -22.2250   -8.2560  -30.0080 C.2   166  PHE166      0.2595
    101  O        -22.9210   -7.3400  -29.5530 O.2   166  PHE166     -0.2718
    102  CB       -21.6890  -10.3410  -28.7130 C.3   166  PHE166      0.0547
    103  CG       -21.4450   -9.4600  -27.5200 C.ar  166  PHE166     -0.0202
    104  CD1      -22.3310   -9.4470  -26.4550 C.ar  166  PHE166     -0.0042
    105  CD2      -20.3280   -8.6450  -27.4610 C.ar  166  PHE166     -0.0042
    106  CE1      -22.1050   -8.6370  -25.3570 C.ar  166  PHE166     -0.0003
    107  CE2      -20.1020   -7.8330  -26.3670 C.ar  166  PHE166     -0.0003
    108  CZ       -20.9900   -7.8280  -25.3170 C.ar  166  PHE166     -0.0000
    109  N        -21.1260   -8.0230  -30.7280 N.am  167  LEU167     -0.1980
    110  CA       -20.6820   -6.6580  -30.9860 C.3   167  LEU167      0.1596
    111  C        -21.7300   -5.8710  -31.7640 C.2   167  LEU167      0.2287
    112  O        -22.0090   -4.7080  -31.4430 O.2   167  LEU167     -0.2864
    113  CB       -19.3600   -6.6780  -31.7510 C.3   167  LEU167      0.0297
    114  CG       -18.4440   -5.4820  -31.4960 C.3   167  LEU167      0.0022
    115  CD1      -17.7300   -5.6650  -30.1680 C.3   167  LEU167      0.0001
    116  CD2      -17.4520   -5.3030  -32.6310 C.3   167  LEU167      0.0001
    117  N        -24.5680   -5.0500  -29.4200 N.3   170  GLN170     -0.1245
    118  CA       -24.1480   -4.0650  -28.4310 C.3   170  GLN170      0.1566
    119  C        -24.1520   -2.6610  -29.0240 C.2   170  GLN170      0.2260
    120  O        -24.6610   -1.7160  -28.4110 O.2   170  GLN170     -0.2867
    121  CB       -22.7610   -4.4220  -27.8980 C.3   170  GLN170      0.0367
    122  CG       -22.3570   -3.6410  -26.6620 C.3   170  GLN170      0.0905
    123  CD       -20.9140   -3.8750  -26.2790 C.2   170  GLN170      0.2608
    124  OE1      -20.0540   -4.0630  -27.1390 O.2   170  GLN170     -0.2717
    125  NE2      -20.6400   -3.8720  -24.9820 N.am  170  GLN170     -0.0878
    126  N        -26.3670    0.2050  -27.6310 N.3   174  LEU174     -0.1245
    127  CA       -25.7080    1.4130  -27.1500 C.3   174  LEU174      0.1561
    128  C        -26.3180    2.6710  -27.7530 C.2   174  LEU174      0.2260
    129  O        -26.3750    3.7140  -27.0920 O.2   174  LEU174     -0.2867
    130  CB       -24.2180    1.3680  -27.4800 C.3   174  LEU174      0.0270
    131  CG       -23.3280    0.4950  -26.6000 C.3   174  LEU174      0.0019
    132  CD1      -21.9250    0.4450  -27.1750 C.3   174  LEU174      0.0001
    133  CD2      -23.3010    1.0160  -25.1770 C.3   174  LEU174      0.0001
    134  N        -29.5530    3.5770  -26.1870 N.3   177  SER177     -0.1217
    135  CA       -29.4910    3.4630  -24.7330 C.3   177  SER177      0.1889
    136  C        -29.9240    4.7530  -24.0490 C.2   177  SER177      0.2288
    137  O        -30.5640    4.7170  -22.9910 O.2   177  SER177     -0.2866
    138  CB       -28.0750    3.0800  -24.3050 C.3   177  SER177      0.2089
    139  OG       -28.0100    2.8710  -22.9070 O.3   177  SER177     -0.2183
    140  N        -17.6440   -1.7330  -12.5210 N.3   227  HIS227     -0.1226
    141  CA       -18.8200   -2.1340  -13.2870 C.3   227  HIS227      0.1752
    142  C        -18.5700   -3.3930  -14.1090 C.2   227  HIS227      0.2595
    143  O        -19.5090   -4.1530  -14.3770 O.2   227  HIS227     -0.2718
    144  CB       -19.2590   -0.9830  -14.1920 C.3   227  HIS227      0.0759
    145  CG       -20.5660   -1.2170  -14.8810 C.ar  227  HIS227      0.0818
    146  ND1      -21.7670   -1.2550  -14.2060 N.ar  227  HIS227     -0.2268
    147  CD2      -20.8610   -1.4180  -16.1870 C.ar  227  HIS227      0.1154
    148  CE1      -22.7460   -1.4710  -15.0670 C.ar  227  HIS227      0.1986
    149  NE2      -22.2230   -1.5750  -16.2750 N.ar  227  HIS227     -0.2212
    150  N        -17.3250   -3.6400  -14.5120 N.am  228  ALA228     -0.1980
    151  CA       -16.9980   -4.8220  -15.3020 C.3   228  ALA228      0.1597
    152  C        -16.4460   -5.9600  -14.4530 C.2   228  ALA228      0.2287
    153  O        -16.8650   -7.1100  -14.6100 O.2   228  ALA228     -0.2864
    154  CB       -15.9900   -4.4610  -16.3980 C.3   228  ALA228      0.0319
@<TRIPOS>BOND
     1   116   114    1
     2   111   112    2
     3   111   110    1
     4   113   114    1
     5   113   110    1
     6   114   115    1
     7    74    75    1
     8    98    99    1
     9   110   109    1
    10    76    75    1
    11    76    77    2
    12   109   100   am
    13    75    78    1
    14    82    83    1
    15    78    79    1
    16   100    99    1
    17   100   101    2
    18    79    80    1
    19    79    81    1
    20    99   102    1
    21   117   118    1
    22   119   118    1
    23   119   120    2
    24    83    84    1
    25    83    86    1
    26   102   103    1
    27    93    84   am
    28    93    94    1
    29    95    94    1
    30    95    96    2
    31   118   121    1
    32    97    94    1
    33    84    85    2
    34    86    87    1
    35    87    88    1
    36   121   122    1
    37    39    40    1
    38   128   127    1
    39   128   129    2
    40    66    67    1
    41   126   127    1
    42    40    43    1
    43    40    41    1
    44   103   105   ar
    45   103   104   ar
    46   130   127    1
    47   130   131    1
    48   105   107   ar
    49    55    56    1
    50    88    89    1
    51   132   131    1
    52    68    67    1
    53    68    69    2
    54    42    41    2
    55   124   123    2
    56    43    44    1
    57    67    70    1
    58    41    48   am
    59    44    45    1
    60   122   123    1
    61   131   133    1
    62    56    57    1
    63    56    59    1
    64   104   106   ar
    65   107   108   ar
    66    58    57    2
    67   123   125   am
    68   134   135    1
    69    91    90    1
    70    89    90    2
    71    48    49    1
    72    63    65   ar
    73    63    61   ar
    74    50    51    2
    75    50    49    1
    76    65    64   ar
    77    45    46   ar
    78    45    47   ar
    79    61    60   ar
    80    64    62   ar
    81    70    71    1
    82   106   108   ar
    83    60    62   ar
    84    60    59    1
    85    90    92    1
    86    49    52    1
    87    71    72    1
    88   135   138    1
    89   135   136    1
    90    10    11    2
    91    10     9    1
    92   138   139    1
    93   136   137    2
    94    12     9    1
    95     9     8    1
    96    53    52    1
    97    52    54    1
    98    30    28    1
    99    72    73    1
   100     4     3    2
   101     8     3   am
   102     3     2    1
   103    28    29    1
   104    28    27    1
   105    27    24    1
   106     2     1    1
   107     2     5    1
   108     1     7    1
   109     6     7    1
   110     6     5    1
   111    38    36    1
   112    33    34    2
   113    33    32    1
   114    24    25    1
   115    24    23    1
   116    36    35    1
   117    36    37    1
   118    26    25    2
   119    35    32    1
   120    32    31    1
   121    16    15    2
   122   154   151    1
   123   149   147   ar
   124   149   148   ar
   125   147   145   ar
   126    20    22   ar
   127    20    18   ar
   128    15    14    1
   129    22    21   ar
   130   151   150    1
   131   151   152    1
   132   148   146   ar
   133    18    17    1
   134    18    19   ar
   135   145   146   ar
   136   145   144    1
   137    13    14    1
   138    17    14    1
   139    21    19   ar
   140   153   152    2
   141   150   142   am
   142   143   142    2
   143   144   141    1
   144   142   141    1
   145   141   140    1
