@<TRIPOS>MOLECULE
tmp/6ecfB00.pdb
 125 118 0 0 0
SMALL
GASTEIGER

@<TRIPOS>ATOM
      1  N         20.4950   26.7120  -21.0540 N.3    23  PRO23      -0.2102
      2  CA        19.0790   26.4200  -21.3220 C.3    23  PRO23       0.1504
      3  C         18.7740   26.3320  -22.8080 C.2    23  PRO23       0.2575
      4  O         19.6840   26.3640  -23.6420 O.2    23  PRO23      -0.2718
      5  CB        18.3500   27.6070  -20.6800 C.3    23  PRO23       0.0282
      6  CG        19.3300   28.7260  -20.7710 C.3    23  PRO23       0.0208
      7  CD        20.6860   28.0850  -20.5540 C.3    23  PRO23       0.0893
      8  N         17.4910   26.2250  -23.1480 N.am   24  ALA24      -0.1980
      9  CA        17.0870   26.2510  -24.5460 C.3    24  ALA24       0.1597
     10  C         17.5830   27.5350  -25.1950 C.2    24  ALA24       0.2287
     11  O         17.3450   28.6350  -24.6870 O.2    24  ALA24      -0.2864
     12  CB        15.5670   26.1430  -24.6620 C.3    24  ALA24       0.0319
     13  N         20.0020   25.0600  -15.5970 N.3    87  HIS87      -0.1241
     14  CA        18.7200   25.7300  -15.4310 C.3    87  HIS87       0.1621
     15  C         17.8510   25.4280  -16.6450 C.2    87  HIS87       0.2264
     16  O         18.3430   25.4100  -17.7760 O.2    87  HIS87      -0.2867
     17  CB        18.9260   27.2390  -15.2600 C.3    87  HIS87       0.0745
     18  CG        17.6640   28.0440  -15.3280 C.ar   87  HIS87       0.0817
     19  ND1       17.2710   28.7150  -16.4670 N.ar   87  HIS87      -0.2268
     20  CD2       16.7190   28.3060  -14.3930 C.ar   87  HIS87       0.1154
     21  CE1       16.1330   29.3450  -16.2340 C.ar   87  HIS87       0.1986
     22  NE2       15.7770   29.1140  -14.9830 N.ar   87  HIS87      -0.2212
     23  N         16.0900   23.6450  -19.5580 N.3    88  LEU88      -0.1245
     24  CA        16.6030   22.5430  -20.3660 C.3    88  LEU88       0.1561
     25  C         18.0400   22.1990  -19.9830 C.2    88  LEU88       0.2260
     26  O         18.4780   21.0620  -20.1470 O.2    88  LEU88      -0.2867
     27  CB        16.5260   22.8950  -21.8510 C.3    88  LEU88       0.0270
     28  CG        17.0240   21.8370  -22.8340 C.3    88  LEU88       0.0019
     29  CD1       16.3300   20.5110  -22.6040 C.3    88  LEU88       0.0001
     30  CD2       16.8120   22.3060  -24.2670 C.3    88  LEU88       0.0001
     31  N          9.7370   17.5320  -18.5060 N.3   119  LEU119     -0.1245
     32  CA         9.1110   18.8090  -18.8240 C.3   119  LEU119      0.1561
     33  C          7.6270   18.6150  -19.1130 C.2   119  LEU119      0.2260
     34  O          7.2550   17.9200  -20.0640 O.2   119  LEU119     -0.2867
     35  CB         9.8170   19.4470  -20.0190 C.3   119  LEU119      0.0270
     36  CG        11.3030   19.7440  -19.7960 C.3   119  LEU119      0.0019
     37  CD1       11.9760   20.1460  -21.0990 C.3   119  LEU119      0.0001
     38  CD2       11.4840   20.8290  -18.7400 C.3   119  LEU119      0.0001
     39  N          5.4030   29.4370  -27.6190 N.3   128  PHE128     -0.1241
     40  CA         6.0890   28.4240  -26.8260 C.3   128  PHE128      0.1605
     41  C          5.1980   27.2090  -26.6000 C.2   128  PHE128      0.2264
     42  O          5.6810   26.0700  -26.5970 O.2   128  PHE128     -0.2867
     43  CB         6.5310   29.0140  -25.4880 C.3   128  PHE128      0.0534
     44  CG         7.5770   30.0840  -25.6110 C.ar  128  PHE128     -0.0203
     45  CD1        8.9050   29.7510  -25.8240 C.ar  128  PHE128     -0.0042
     46  CD2        7.2380   31.4210  -25.5010 C.ar  128  PHE128     -0.0042
     47  CE1        9.8720   30.7340  -25.9330 C.ar  128  PHE128     -0.0003
     48  CE2        8.2030   32.4080  -25.6070 C.ar  128  PHE128     -0.0003
     49  CZ         9.5210   32.0620  -25.8220 C.ar  128  PHE128     -0.0000
     50  N          6.3480   23.5780  -28.1350 N.3   132  MET132     -0.1245
     51  CA         6.5210   22.4010  -27.2890 C.3   132  MET132      0.1570
     52  C          5.4260   21.3730  -27.5540 C.2   132  MET132      0.2261
     53  O          5.7100   20.2250  -27.9120 O.2   132  MET132     -0.2867
     54  CB         6.5270   22.8090  -25.8120 C.3   132  MET132      0.0387
     55  CG         7.7560   23.5990  -25.3900 C.3   132  MET132      0.0595
     56  SD         7.8340   23.8950  -23.6100 S.3   132  MET132     -0.1393
     57  CE         6.4960   25.0650  -23.3840 C.3   132  MET132      0.0692
     58  N          9.2880   40.7510  -30.2090 N.3   147  ARG147     -0.1245
     59  CA         9.1590   40.9160  -28.7660 C.3   147  ARG147      0.1563
     60  C         10.5100   41.2460  -28.1430 C.2   147  ARG147      0.2260
     61  O         10.6330   42.1930  -27.3570 O.2   147  ARG147     -0.2867
     62  CB         8.5650   39.6490  -28.1450 C.3   147  ARG147      0.0307
     63  CG         8.2420   39.7750  -26.6560 C.3   147  ARG147      0.0489
     64  CD         9.0510   38.8080  -25.8000 C.3   147  ARG147      0.2205
     65  NE         8.2020   37.8110  -25.1460 N.pl3 147  ARG147     -0.0865
     66  CZ         7.9310   37.7740  -23.8420 C.cat 147  ARG147      0.5346
     67  NH1        8.4390   38.6770  -23.0090 N.pl3 147  ARG147      0.1354
     68  NH2        7.1470   36.8160  -23.3660 N.pl3 147  ARG147      0.1354
     69  N         20.4240   32.6210  -31.3270 N.3   166  PHE166     -0.1241
     70  CA        19.7940   32.1120  -30.1130 C.3   166  PHE166      0.1605
     71  C         18.3490   31.7120  -30.3820 C.2   166  PHE166      0.2264
     72  O         17.9050   30.6310  -29.9790 O.2   166  PHE166     -0.2867
     73  CB        19.8630   33.1660  -29.0040 C.3   166  PHE166      0.0534
     74  CG        19.0090   32.8470  -27.8100 C.ar  166  PHE166     -0.0203
     75  CD1       17.6970   33.2940  -27.7380 C.ar  166  PHE166     -0.0042
     76  CD2       19.5160   32.1020  -26.7560 C.ar  166  PHE166     -0.0042
     77  CE1       16.9060   32.9970  -26.6410 C.ar  166  PHE166     -0.0003
     78  CE2       18.7270   31.8070  -25.6500 C.ar  166  PHE166     -0.0003
     79  CZ        17.4240   32.2530  -25.5960 C.ar  166  PHE166     -0.0000
     80  N         16.8180   28.0580  -30.0020 N.3   170  GLN170     -0.1245
     81  CA        15.7820   27.8770  -28.9910 C.3   170  GLN170      0.1566
     82  C         14.5660   27.1750  -29.5820 C.2   170  GLN170      0.2260
     83  O         14.0470   26.2150  -29.0010 O.2   170  GLN170     -0.2867
     84  CB        15.3810   29.2220  -28.3880 C.3   170  GLN170      0.0367
     85  CG        14.4020   29.0930  -27.2290 C.3   170  GLN170      0.0905
     86  CD        14.0400   30.4290  -26.6130 C.2   170  GLN170      0.2608
     87  OE1       14.6660   30.8720  -25.6510 O.2   170  GLN170     -0.2717
     88  NE2       13.0220   31.0790  -27.1640 N.am  170  GLN170     -0.0878
     89  N         13.3210   23.5830  -28.3190 N.3   174  LEU174     -0.1245
     90  CA        11.9790   23.4580  -27.7590 C.3   174  LEU174      0.1561
     91  C         11.1950   22.3430  -28.4410 C.2   174  LEU174      0.2260
     92  O         10.4600   21.6010  -27.7810 O.2   174  LEU174     -0.2867
     93  CB        11.2220   24.7800  -27.8850 C.3   174  LEU174      0.0270
     94  CG        11.6360   25.9130  -26.9440 C.3   174  LEU174      0.0019
     95  CD1       10.7050   27.1020  -27.1130 C.3   174  LEU174      0.0001
     96  CD2       11.6580   25.4560  -25.4910 C.3   174  LEU174      0.0001
     97  N         12.1090   19.1480  -27.0540 N.3   177  SER177     -0.1217
     98  CA        12.2210   19.1190  -25.6000 C.3   177  SER177      0.1889
     99  C         11.3000   18.0690  -24.9920 C.2   177  SER177      0.2288
    100  O         11.7050   17.3250  -24.0910 O.2   177  SER177     -0.2866
    101  CB        11.9130   20.5010  -25.0240 C.3   177  SER177      0.2089
    102  OG        10.6150   20.9300  -25.3980 O.3   177  SER177     -0.2183
    103  N         10.5420   33.8830  -10.1330 N.3   226  ASP226     -0.1225
    104  CA         9.9210   32.9060  -11.0140 C.3   226  ASP226      0.1805
    105  C         10.9980   32.2700  -11.8870 C.2   226  ASP226      0.2598
    106  O         12.1910   32.5540  -11.7470 O.2   226  ASP226     -0.2718
    107  CB         8.8210   33.5510  -11.8620 C.3   226  ASP226      0.1424
    108  CG         9.3650   34.5180  -12.8970 C.2   226  ASP226      0.3668
    109  OD1        9.9850   34.0610  -13.8830 O.co2 226  ASP226     -0.2456
    110  OD2        9.1650   35.7390  -12.7270 O.co2 226  ASP226     -0.2456
    111  N         10.5610   31.4030  -12.8050 N.am  227  HIS227     -0.1961
    112  CA        11.5010   30.6270  -13.6070 C.3   227  HIS227      0.1787
    113  C         12.5250   31.5090  -14.3060 C.2   227  HIS227      0.2620
    114  O         13.6820   31.1060  -14.4700 O.2   227  HIS227     -0.2715
    115  CB        10.7450   29.7920  -14.6420 C.3   227  HIS227      0.0785
    116  CG        11.6030   28.7910  -15.3520 C.ar  227  HIS227      0.0821
    117  ND1       12.3000   27.8040  -14.6880 N.ar  227  HIS227     -0.2267
    118  CD2       11.8770   28.6230  -16.6680 C.ar  227  HIS227      0.1154
    119  CE1       12.9670   27.0730  -15.5630 C.ar  227  HIS227      0.1986
    120  NE2       12.7270   27.5490  -16.7720 N.ar  227  HIS227     -0.2212
    121  N         12.1310   32.7100  -14.7210 N.am  228  ALA228     -0.1977
    122  CA        13.0310   33.5920  -15.4510 C.3   228  ALA228      0.1597
    123  C         13.7320   34.5870  -14.5360 C.2   228  ALA228      0.2287
    124  O         14.9590   34.7330  -14.5940 O.2   228  ALA228     -0.2864
    125  CB        12.2560   34.3370  -16.5440 C.3   228  ALA228      0.0319
@<TRIPOS>BOND
     1    69    70    1
     2    71    70    1
     3    71    72    2
     4    58    59    1
     5    70    73    1
     6    80    81    1
     7    82    83    2
     8    82    81    1
     9    73    74    1
    10    81    84    1
    11    59    62    1
    12    59    60    1
    13    91    92    2
    14    91    90    1
    15    84    85    1
    16    89    90    1
    17    62    63    1
    18    60    61    2
    19    50    51    1
    20    53    52    2
    21    93    90    1
    22    93    94    1
    23    74    75   ar
    24    74    76   ar
    25    75    77   ar
    26    39    40    1
    27    52    51    1
    28    51    54    1
    29    85    86    1
    30    88    86   am
    31    95    94    1
    32    97    98    1
    33    94    96    1
    34    40    41    1
    35    40    43    1
    36    76    78   ar
    37    63    64    1
    38    77    79   ar
    39    86    87    2
    40    41    42    2
    41    47    45   ar
    42    47    49   ar
    43    45    44   ar
    44    49    48   ar
    45    54    55    1
    46    64    65    1
    47    78    79   ar
    48    44    46   ar
    49    44    43    1
    50    48    46   ar
    51    98   101    1
    52    98    99    1
    53   102   101    1
    54    55    56    1
    55    10    11    2
    56    10     9    1
    57    65    66    2
    58    99   100    2
    59    12     9    1
    60     9     8    1
    61    30    28    1
    62    66    68    1
    63    66    67    1
    64     4     3    2
    65    56    57    1
    66     8     3   am
    67    28    29    1
    68    28    27    1
    69     3     2    1
    70    27    24    1
    71     2     1    1
    72     2     5    1
    73    37    36    1
    74     1     7    1
    75     6     5    1
    76     6     7    1
    77    24    25    1
    78    24    23    1
    79    26    25    2
    80    34    33    2
    81    35    36    1
    82    35    32    1
    83    36    38    1
    84    33    32    1
    85    32    31    1
    86    16    15    2
    87   120   118   ar
    88   120   119   ar
    89   118   116   ar
    90    15    14    1
    91   125   122    1
    92    19    21   ar
    93    19    18   ar
    94    21    22   ar
    95    13    14    1
    96   119   117   ar
    97   122   121    1
    98   122   123    1
    99    14    17    1
   100   116   117   ar
   101   116   115    1
   102    18    17    1
   103    18    20   ar
   104    22    20   ar
   105   121   113   am
   106   115   112    1
   107   124   123    2
   108   114   113    2
   109   113   112    1
   110   109   108   ar
   111   112   111    1
   112   108   110   ar
   113   108   107    1
   114   111   105   am
   115   105   106    2
   116   105   104    1
   117   107   104    1
   118   104   103    1
