@<TRIPOS>MOLECULE
tmp/6ecfD00.pdb
 103 96 0 0 0
SMALL
GASTEIGER

@<TRIPOS>ATOM
      1  N         22.6470  -25.1190   21.0840 N.3    22  PRO22      -0.2102
      2  CA        21.3900  -24.4630   21.4680 C.3    22  PRO22       0.1504
      3  C         21.2630  -24.3800   22.9910 C.2    22  PRO22       0.2575
      4  O         22.1720  -24.7540   23.7190 O.2    22  PRO22      -0.2718
      5  CB        20.3270  -25.3790   20.8700 C.3    22  PRO22       0.0282
      6  CG        20.9500  -26.7390   20.9540 C.3    22  PRO22       0.0208
      7  CD        22.4270  -26.5350   20.7150 C.3    22  PRO22       0.0893
      8  N         20.1110  -23.8860   23.4560 N.am   23  ALA23      -0.1980
      9  CA        19.8250  -23.9010   24.8870 C.3    23  ALA23       0.1597
     10  C         20.0320  -25.3010   25.4420 C.2    23  ALA23       0.2287
     11  O         19.4150  -26.2620   24.9750 O.2    23  ALA23      -0.2864
     12  CB        18.3920  -23.4320   25.1400 C.3    23  ALA23       0.0319
     13  N         21.9200  -23.7660   15.7960 N.3    86  HIS86      -0.1241
     14  CA        20.4870  -24.0230   15.8290 C.3    86  HIS86       0.1621
     15  C         19.8780  -23.3760   17.0610 C.2    86  HIS86       0.2264
     16  O         20.4720  -23.3990   18.1370 O.2    86  HIS86      -0.2867
     17  CB        20.2190  -25.5280   15.8270 C.3    86  HIS86       0.0745
     18  CG        18.8020  -25.8970   16.1420 C.ar   86  HIS86       0.0817
     19  ND1       18.4530  -26.6110   17.2680 N.ar   86  HIS86      -0.2268
     20  CD2       17.6500  -25.6700   15.4690 C.ar   86  HIS86       0.1154
     21  CE1       17.1450  -26.7980   17.2810 C.ar   86  HIS86       0.1986
     22  NE2       16.6340  -26.2380   16.2000 N.ar   86  HIS86      -0.2212
     23  N         19.1930  -21.2070   19.9490 N.3    87  LEU87      -0.1245
     24  CA        20.0620  -20.2530   20.6310 C.3    87  LEU87       0.1561
     25  C         21.4680  -20.2930   20.0430 C.2    87  LEU87       0.2260
     26  O         22.1910  -19.2970   20.0710 O.2    87  LEU87      -0.2867
     27  CB        20.1150  -20.5420   22.1310 C.3    87  LEU87       0.0270
     28  CG        20.8680  -19.4960   22.9560 C.3    87  LEU87       0.0019
     29  CD1       20.1280  -18.1600   22.9510 C.3    87  LEU87       0.0001
     30  CD2       21.0860  -19.9850   24.3760 C.3    87  LEU87       0.0001
     31  N         14.8840  -13.9300   19.5880 N.3   118  LEU118     -0.1245
     32  CA        14.2850  -15.0660   20.2700 C.3   118  LEU118      0.1561
     33  C         12.9990  -14.6450   20.9750 C.2   118  LEU118      0.2260
     34  O         12.7890  -13.4750   21.3080 O.2   118  LEU118     -0.2867
     35  CB        15.2660  -15.6740   21.2700 C.3   118  LEU118      0.0270
     36  CG        16.2960  -16.6400   20.6800 C.3   118  LEU118      0.0019
     37  CD1       17.2880  -17.0650   21.7430 C.3   118  LEU118      0.0001
     38  CD2       15.6200  -17.8600   20.0640 C.3   118  LEU118      0.0001
     39  N          9.6030  -18.7950   18.9430 N.3   121  ILE121     -0.1245
     40  CA         9.7750  -20.2290   18.7210 C.3   121  ILE121      0.1561
     41  C          8.5820  -20.9470   19.3400 C.2   121  ILE121      0.2260
     42  O          8.3000  -20.7410   20.5250 O.2   121  ILE121     -0.2867
     43  CB        11.1020  -20.7360   19.3220 C.3   121  ILE121      0.0252
     44  CG1       12.2810  -20.1910   18.5060 C.3   121  ILE121      0.0019
     45  CG2       11.1150  -22.2580   19.3690 C.3   121  ILE121      0.0019
     46  CD1       13.6350  -20.4060   19.1490 C.3   121  ILE121      0.0001
     47  N          8.0180  -23.4060   28.9470 N.3   130  PHE130     -0.1241
     48  CA         8.8660  -22.6570   28.0250 C.3   130  PHE130      0.1605
     49  C          8.4280  -21.1990   27.9450 C.2   130  PHE130      0.2264
     50  O          9.2170  -20.2830   28.2010 O.2   130  PHE130     -0.2867
     51  CB         8.8390  -23.3050   26.6390 C.3   130  PHE130      0.0534
     52  CG         9.6230  -24.5820   26.5500 C.ar  130  PHE130     -0.0203
     53  CD1       11.0040  -24.5580   26.4730 C.ar  130  PHE130     -0.0042
     54  CD2        8.9790  -25.8060   26.5310 C.ar  130  PHE130     -0.0042
     55  CE1       11.7260  -25.7320   26.3860 C.ar  130  PHE130     -0.0003
     56  CE2        9.6970  -26.9820   26.4440 C.ar  130  PHE130     -0.0003
     57  CZ        11.0710  -26.9450   26.3710 C.ar  130  PHE130     -0.0000
     58  N         10.9680  -18.3030   29.4750 N.3   134  MET134     -0.1245
     59  CA        11.5550  -17.1980   28.7300 C.3   134  MET134      0.1570
     60  C         11.0670  -15.8700   29.2950 C.2   134  MET134      0.2261
     61  O          9.8610  -15.6080   29.3380 O.2   134  MET134     -0.2867
     62  CB        11.1970  -17.3180   27.2480 C.3   134  MET134      0.0387
     63  CG        11.6830  -18.6120   26.6040 C.3   134  MET134      0.0595
     64  SD        11.7190  -18.5660   24.7980 S.3   134  MET134     -0.1393
     65  CE        10.0100  -18.9340   24.4020 C.3   134  MET134      0.0692
     66  N         19.6990  -25.7580   30.2800 N.3   185  GLN185     -0.1245
     67  CA        18.6500  -25.2830   29.3840 C.3   185  GLN185      0.1566
     68  C         17.7300  -24.3000   30.1000 C.2   185  GLN185      0.2260
     69  O         17.4110  -23.2290   29.5690 O.2   185  GLN185     -0.2867
     70  CB        17.8500  -26.4630   28.8270 C.3   185  GLN185      0.0367
     71  CG        16.7410  -26.0460   27.8610 C.3   185  GLN185      0.0905
     72  CD        16.1190  -27.2190   27.1260 C.2   185  GLN185      0.2608
     73  OE1       15.3940  -28.0230   27.7120 O.2   185  GLN185     -0.2717
     74  NE2       16.3980  -27.3190   25.8330 N.am  185  GLN185     -0.0878
     75  N         17.2650  -20.6420   28.9240 N.3   189  LEU189     -0.1245
     76  CA        15.9080  -20.2130   28.6070 C.3   189  LEU189      0.1561
     77  C         15.5640  -18.9140   29.3230 C.2   189  LEU189      0.2260
     78  O         14.9770  -18.0000   28.7310 O.2   189  LEU189     -0.2867
     79  CB        14.9060  -21.2980   29.0000 C.3   189  LEU189      0.0270
     80  CG        14.7860  -22.5400   28.1180 C.3   189  LEU189      0.0019
     81  CD1       13.8420  -23.5400   28.7700 C.3   189  LEU189      0.0001
     82  CD2       14.3020  -22.1780   26.7250 C.3   189  LEU189      0.0001
     83  N         17.0900  -15.9400   27.6940 N.3   192  SER192     -0.1217
     84  CA        17.0520  -15.9040   26.2360 C.3   192  SER192      0.1889
     85  C         16.2390  -14.7250   25.7150 C.2   192  SER192      0.2288
     86  O         16.5610  -14.1740   24.6560 O.2   192  SER192     -0.2866
     87  CB        16.4840  -17.2180   25.7000 C.3   192  SER192      0.2089
     88  OG        15.1950  -17.4670   26.2340 O.3   192  SER192     -0.2183
     89  N         10.7800  -26.9680   14.6290 N.3   242  HIS242     -0.1226
     90  CA        11.9960  -26.4730   15.2660 C.3   242  HIS242      0.1752
     91  C         12.7180  -27.5650   16.0450 C.2   242  HIS242      0.2595
     92  O         13.9520  -27.5640   16.1130 O.2   242  HIS242     -0.2718
     93  CB        11.6640  -25.3040   16.1920 C.3   242  HIS242      0.0759
     94  CG        12.8670  -24.6710   16.8140 C.ar  242  HIS242      0.0818
     95  ND1       13.7220  -23.8500   16.1120 N.ar  242  HIS242     -0.2268
     96  CD2       13.3640  -24.7450   18.0710 C.ar  242  HIS242      0.1154
     97  CE1       14.6920  -23.4420   16.9110 C.ar  242  HIS242      0.1986
     98  NE2       14.4980  -23.9710   18.1050 N.ar  242  HIS242     -0.2212
     99  N         11.9770  -28.5060   16.6280 N.am  243  ALA243     -0.1980
    100  CA        12.5760  -29.5450   17.4580 C.3   243  ALA243      0.1597
    101  C         12.9160  -30.8050   16.6650 C.2   243  ALA243      0.2287
    102  O         14.0290  -31.3250   16.7760 O.2   243  ALA243     -0.2864
    103  CB        11.6340  -29.8880   18.6160 C.3   243  ALA243      0.0319
@<TRIPOS>BOND
     1    89    90    1
     2    90    91    1
     3    90    93    1
     4    20    18   ar
     5    20    22   ar
     6    13    14    1
     7    17    14    1
     8    17    18    1
     9    14    15    1
    10    91    92    2
    11    91    99   am
    12    95    94   ar
    13    95    97   ar
    14    18    19   ar
    15    93    94    1
    16    22    21   ar
    17    99   100    1
    18   101   102    2
    19   101   100    1
    20    94    96   ar
    21    97    98   ar
    22    15    16    2
    23    19    21   ar
    24   100   103    1
    25    96    98   ar
    26    44    46    1
    27    44    43    1
    28    40    39    1
    29    40    43    1
    30    40    41    1
    31    43    45    1
    32    41    42    2
    33    31    32    1
    34    23    24    1
    35    25    26    2
    36    25    24    1
    37    38    36    1
    38    32    33    1
    39    32    35    1
    40    24    27    1
    41    36    35    1
    42    36    37    1
    43     7     6    1
    44     7     1    1
    45     5     6    1
    46     5     2    1
    47    33    34    2
    48     1     2    1
    49     2     3    1
    50    27    28    1
    51    29    28    1
    52    28    30    1
    53     3     8   am
    54     3     4    2
    55     8     9    1
    56    65    64    1
    57    86    85    2
    58    64    63    1
    59     9    12    1
    60     9    10    1
    61    11    10    2
    62    87    88    1
    63    87    84    1
    64    85    84    1
    65    74    72   am
    66    84    83    1
    67    57    55   ar
    68    57    56   ar
    69    55    53   ar
    70    56    54   ar
    71    53    52   ar
    72    54    52   ar
    73    52    51    1
    74    63    62    1
    75    51    48    1
    76    82    80    1
    77    72    73    2
    78    72    71    1
    79    62    59    1
    80    71    70    1
    81    49    48    1
    82    49    50    2
    83    48    47    1
    84    80    81    1
    85    80    79    1
    86    76    75    1
    87    76    79    1
    88    76    77    1
    89    59    60    1
    90    59    58    1
    91    78    77    2
    92    70    67    1
    93    60    61    2
    94    67    68    1
    95    67    66    1
    96    69    68    2
