@<TRIPOS>MOLECULE
tmp/6ecvB00.pdb
 193 189 0 0 0
SMALL
GASTEIGER

@<TRIPOS>ATOM
      1  N        -41.8880   75.1880    2.1370 N.3     5  THR5       -0.1218
      2  CA       -42.0850   74.2880    3.2650 C.3     5  THR5        0.1862
      3  C        -41.6040   74.9610    4.5470 C.2     5  THR5        0.2287
      4  O        -40.8520   75.9370    4.5200 O.2     5  THR5       -0.2866
      5  CB       -41.3520   72.9550    3.0570 C.3     5  THR5        0.1770
      6  OG1      -39.9340   73.1650    3.1040 O.3     5  THR5       -0.2211
      7  CG2      -41.7260   72.3360    1.7080 C.3     5  THR5        0.0375
      8  N        -36.7370   68.4730    8.3680 N.3    43  ARG43      -0.1245
      9  CA       -36.7910   67.1180    7.8230 C.3    43  ARG43       0.1563
     10  C        -35.8460   66.1900    8.5700 C.2    43  ARG43       0.2260
     11  O        -36.1830   65.0280    8.8310 O.2    43  ARG43      -0.2867
     12  CB       -36.4080   67.0880    6.3320 C.3    43  ARG43       0.0307
     13  CG       -37.1590   67.9900    5.3760 C.3    43  ARG43       0.0489
     14  CD       -38.6220   67.9610    5.6460 C.3    43  ARG43       0.2205
     15  NE       -39.4400   67.7370    4.4580 N.pl3  43  ARG43      -0.0865
     16  CZ       -40.6700   68.2240    4.3360 C.cat  43  ARG43       0.5346
     17  NH1      -41.1720   68.9790    5.3080 N.pl3  43  ARG43       0.1354
     18  NH2      -41.3930   67.9740    3.2580 N.pl3  43  ARG43       0.1354
     19  N        -44.2380   57.2700    0.8850 N.3    60  ASP60      -0.1225
     20  CA       -44.6650   58.6170    1.2750 C.3    60  ASP60       0.1805
     21  C        -46.1630   58.6850    1.0090 C.2    60  ASP60       0.2598
     22  O        -46.5850   58.8090   -0.1420 O.2    60  ASP60      -0.2718
     23  CB       -43.9000   59.6730    0.4830 C.3    60  ASP60       0.1424
     24  CG       -44.2480   61.0920    0.8770 C.2    60  ASP60       0.3668
     25  OD1      -45.3240   61.3260    1.4820 O.co2  60  ASP60      -0.2456
     26  OD2      -43.4370   61.9920    0.5590 O.co2  60  ASP60      -0.2456
     27  N        -46.9780   58.6170    2.0700 N.am   61  PHE61      -0.1962
     28  CA       -48.4050   58.4630    1.8140 C.3    61  PHE61       0.1771
     29  C        -49.1100   59.7790    1.4890 C.2    61  PHE61       0.2620
     30  O        -50.3290   59.7830    1.2660 O.2    61  PHE61      -0.2715
     31  CB       -49.0810   57.7070    2.9750 C.3    61  PHE61       0.0574
     32  CG       -49.1330   58.4510    4.2880 C.ar   61  PHE61      -0.0200
     33  CD1      -48.1440   58.2610    5.2500 C.ar   61  PHE61      -0.0042
     34  CD2      -50.2110   59.2730    4.5910 C.ar   61  PHE61      -0.0042
     35  CE1      -48.2030   58.9110    6.4900 C.ar   61  PHE61      -0.0003
     36  CE2      -50.2790   59.9230    5.8210 C.ar   61  PHE61      -0.0003
     37  CZ       -49.2680   59.7410    6.7690 C.ar   61  PHE61      -0.0000
     38  N        -48.3820   60.8820    1.3700 N.am   62  GLY62      -0.1940
     39  CA       -48.9620   62.1120    0.8560 C.3    62  GLY62       0.2014
     40  C        -47.8670   62.9980    0.3040 C.2    62  GLY62       0.2639
     41  O        -47.4470   63.9440    0.9750 O.2    62  GLY62      -0.2714
     42  N        -47.4000   62.7150   -0.9200 N.am   63  CYS63      -0.1953
     43  CA       -46.0410   63.0830   -1.3030 C.3    63  CYS63       0.1843
     44  C        -45.9200   64.4460   -1.9680 C.2    63  CYS63       0.2626
     45  O        -44.7980   64.8510   -2.2940 O.2    63  CYS63      -0.2714
     46  CB       -45.4460   62.0180   -2.2270 C.3    63  CYS63       0.0997
     47  SG       -46.2770   61.9250   -3.8130 S.3    63  CYS63      -0.0797
     48  N        -47.0250   65.1640   -2.1740 N.am   64  GLY64      -0.1940
     49  CA       -46.9420   66.4750   -2.8090 C.3    64  GLY64       0.2014
     50  C        -46.3490   66.3690   -4.2010 C.2    64  GLY64       0.2638
     51  O        -46.7990   65.5730   -5.0330 O.2    64  GLY64      -0.2714
     52  N        -45.3160   67.1740   -4.4650 N.am   65  TYR65      -0.1973
     53  CA       -44.6010   67.1370   -5.7320 C.3    65  TYR65       0.1639
     54  C        -43.3990   66.1960   -5.7050 C.2    65  TYR65       0.2290
     55  O        -42.5000   66.3340   -6.5470 O.2    65  TYR65      -0.2864
     56  CB       -44.1750   68.5490   -6.1350 C.3    65  TYR65       0.0560
     57  CG       -45.3510   69.4110   -6.5190 C.ar   65  TYR65      -0.0198
     58  CD1      -45.9970   69.2290   -7.7310 C.ar   65  TYR65      -0.0009
     59  CD2      -45.8410   70.3810   -5.6530 C.ar   65  TYR65      -0.0009
     60  CE1      -47.0840   70.0090   -8.0870 C.ar   65  TYR65       0.0417
     61  CE2      -46.9280   71.1660   -5.9960 C.ar   65  TYR65       0.0417
     62  CZ       -47.5460   70.9740   -7.2140 C.ar   65  TYR65       0.1957
     63  OH       -48.6290   71.7500   -7.5590 O.3    65  TYR65      -0.2866
     64  N        -40.8780   65.8840   -3.8170 N.3    67  SER67      -0.1202
     65  CA       -39.5610   66.4290   -3.5020 C.3    67  SER67       0.2020
     66  C        -38.8220   65.5670   -2.4810 C.2    67  SER67       0.2618
     67  O        -37.6210   65.3140   -2.6300 O.2    67  SER67      -0.2717
     68  CB       -39.7020   67.8650   -2.9980 C.3    67  SER67       0.2103
     69  OG       -40.3420   68.6700   -3.9680 O.3    67  SER67      -0.2182
     70  N        -39.5170   65.0970   -1.4420 N.am   68  ASP68      -0.1973
     71  CA       -38.8310   64.3490   -0.3850 C.3    68  ASP68       0.1709
     72  C        -38.3010   63.0090   -0.8980 C.2    68  ASP68       0.2293
     73  O        -37.1390   62.6570   -0.6550 O.2    68  ASP68      -0.2864
     74  CB       -39.7560   64.1420    0.8210 C.3    68  ASP68       0.1436
     75  CG       -40.0420   65.4550    1.5830 C.2    68  ASP68       0.3671
     76  OD1      -39.1690   66.3540    1.6140 O.co2  68  ASP68      -0.2456
     77  OD2      -41.1470   65.5900    2.1540 O.co2  68  ASP68      -0.2456
     78  N        -47.8710   58.7160   -2.7950 N.3    84  HIS84      -0.1226
     79  CA       -49.2990   58.8070   -3.0670 C.3    84  HIS84       0.1752
     80  C        -49.7200   60.2680   -3.0710 C.2    84  HIS84       0.2597
     81  O        -49.2340   61.0650   -2.2640 O.2    84  HIS84      -0.2718
     82  CB       -50.1360   58.0800   -2.0090 C.3    84  HIS84       0.0759
     83  CG       -50.1640   56.5880   -2.1540 C.ar   84  HIS84       0.0818
     84  ND1      -50.9850   55.7890   -1.3870 N.ar   84  HIS84      -0.2268
     85  CD2      -49.4840   55.7500   -2.9740 C.ar   84  HIS84       0.1154
     86  CE1      -50.8160   54.5250   -1.7330 C.ar   84  HIS84       0.1986
     87  NE2      -49.9040   54.4720   -2.6850 N.ar   84  HIS84      -0.2212
     88  N        -50.6540   60.6050   -3.9540 N.am   85  THR85      -0.1939
     89  CA       -51.2310   61.9390   -3.9850 C.3    85  THR85       0.2028
     90  C        -52.6680   61.8110   -4.4590 C.2    85  THR85       0.2642
     91  O        -52.9980   60.9070   -5.2340 O.2    85  THR85      -0.2714
     92  CB       -50.4260   62.8820   -4.8940 C.3    85  THR85       0.1808
     93  OG1      -51.0750   64.1600   -4.9810 O.3    85  THR85      -0.2208
     94  CG2      -50.2830   62.2900   -6.2940 C.3    85  THR85       0.0379
     95  N        -53.5250   62.7190   -3.9910 N.am   86  LEU86      -0.1963
     96  CA       -54.9270   62.7030   -4.4120 C.3    86  LEU86       0.1728
     97  C        -55.1460   63.2870   -5.8020 C.2    86  LEU86       0.2616
     98  O        -56.0490   62.8400   -6.5190 O.2    86  LEU86      -0.2715
     99  CB       -55.7940   63.4680   -3.4100 C.3    86  LEU86       0.0311
    100  CG       -56.0730   62.7340   -2.1020 C.3    86  LEU86       0.0022
    101  CD1      -57.0730   63.5100   -1.2660 C.3    86  LEU86       0.0001
    102  CD2      -56.5690   61.3270   -2.3820 C.3    86  LEU86       0.0001
    103  N        -54.3770   64.2970   -6.1950 N.am   87  SER87      -0.1950
    104  CA       -54.7200   64.9870   -7.4240 C.3    87  SER87       0.1924
    105  C        -54.1830   64.2160   -8.6230 C.2    87  SER87       0.2314
    106  O        -53.3410   63.3250   -8.5000 O.2    87  SER87      -0.2863
    107  CB       -54.1860   66.4230   -7.4120 C.3    87  SER87       0.2116
    108  OG       -52.9130   66.5240   -8.0260 O.3    87  SER87      -0.2180
    109  N        -50.6170   66.6410   -9.8700 N.3    90  GLN90      -0.1245
    110  CA       -49.4160   66.5370   -9.0450 C.3    90  GLN90       0.1566
    111  C        -48.6260   65.2830   -9.3920 C.2    90  GLN90       0.2260
    112  O        -47.3920   65.3210   -9.4680 O.2    90  GLN90      -0.2867
    113  CB       -49.7730   66.5300   -7.5540 C.3    90  GLN90       0.0367
    114  CG       -49.7430   67.8930   -6.8730 C.3    90  GLN90       0.0905
    115  CD       -49.8080   67.7900   -5.3550 C.2    90  GLN90       0.2608
    116  OE1      -50.0620   66.7190   -4.8000 O.2    90  GLN90      -0.2717
    117  NE2      -49.5720   68.9070   -4.6760 N.am   90  GLN90      -0.0878
    118  N        -53.4340   57.6460   -5.4800 N.3   112  ARG112     -0.1231
    119  CA       -54.1090   56.6930   -4.6110 C.3   112  ARG112      0.1694
    120  C        -54.4850   57.3920   -3.3180 C.2   112  ARG112      0.2592
    121  O        -53.7480   58.2590   -2.8410 O.2   112  ARG112     -0.2718
    122  CB       -53.2280   55.4720   -4.3070 C.3   112  ARG112      0.0321
    123  CG       -53.0370   54.5700   -5.5200 C.3   112  ARG112      0.0489
    124  CD       -52.2910   53.2870   -5.1830 C.3   112  ARG112      0.2205
    125  NE       -52.2170   52.4610   -6.3830 N.pl3 112  ARG112     -0.0865
    126  CZ       -51.7020   51.2360   -6.4380 C.cat 112  ARG112      0.5346
    127  NH1      -51.1950   50.6700   -5.3520 N.pl3 112  ARG112      0.1354
    128  NH2      -51.6890   50.5790   -7.5930 N.pl3 112  ARG112      0.1354
    129  N        -55.6360   57.0200   -2.7660 N.am  113  ASP113     -0.1960
    130  CA       -56.1210   57.5710   -1.5030 C.3   113  ASP113      0.1840
    131  C        -55.5600   56.7260   -0.3690 C.2   113  ASP113      0.2623
    132  O        -55.9910   55.5870   -0.1630 O.2   113  ASP113     -0.2715
    133  CB       -57.6480   57.5870   -1.4740 C.3   113  ASP113      0.1450
    134  CG       -58.2080   58.3070   -0.2570 C.2   113  ASP113      0.3671
    135  OD1      -57.5540   58.3310    0.8190 O.co2 113  ASP113     -0.2456
    136  OD2      -59.3220   58.8530   -0.3810 O.co2 113  ASP113     -0.2456
    137  N        -54.6200   57.2920    0.3850 N.am  114  SER114     -0.1936
    138  CA       -53.9110   56.5370    1.4060 C.3   114  SER114      0.2055
    139  C        -54.7840   56.1570    2.5990 C.2   114  SER114      0.2643
    140  O        -54.3870   55.2810    3.3770 O.2   114  SER114     -0.2714
    141  CB       -52.7010   57.3300    1.8740 C.3   114  SER114      0.2130
    142  OG       -51.7400   57.3560    0.8410 O.3   114  SER114     -0.2179
    143  N        -55.9580   56.7720    2.7540 N.am  115  SER115     -0.1949
    144  CA       -56.8650   56.3620    3.8190 C.3   115  SER115      0.1924
    145  C        -57.5530   55.0390    3.5190 C.2   115  SER115      0.2314
    146  O        -58.0010   54.3660    4.4570 O.2   115  SER115     -0.2863
    147  CB       -57.9240   57.4410    4.0610 C.3   115  SER115      0.2116
    148  OG       -58.7130   57.6530    2.9040 O.3   115  SER115     -0.2180
    149  N        -45.3280   63.8870    5.9580 N.3   130  PHE130     -0.1227
    150  CA       -45.0660   65.2770    6.3330 C.3   130  PHE130      0.1736
    151  C        -46.3450   66.0740    6.1280 C.2   130  PHE130      0.2595
    152  O        -46.6690   66.4580    5.0020 O.2   130  PHE130     -0.2718
    153  CB       -43.9260   65.8710    5.5110 C.3   130  PHE130      0.0547
    154  CG       -42.5660   65.3440    5.8750 C.ar  130  PHE130     -0.0202
    155  CD1      -41.8030   65.9730    6.8480 C.ar  130  PHE130     -0.0042
    156  CD2      -42.0420   64.2350    5.2260 C.ar  130  PHE130     -0.0042
    157  CE1      -40.5490   65.4920    7.1780 C.ar  130  PHE130     -0.0003
    158  CE2      -40.7890   63.7440    5.5480 C.ar  130  PHE130     -0.0003
    159  CZ       -40.0400   64.3710    6.5250 C.ar  130  PHE130     -0.0000
    160  N        -47.0610   66.3350    7.2250 N.am  131  GLU131     -0.1965
    161  CA       -48.3050   67.1040    7.2190 C.3   131  GLU131      0.1733
    162  C        -49.3160   66.5140    6.2430 C.2   131  GLU131      0.2616
    163  O        -49.8640   67.2020    5.3800 O.2   131  GLU131     -0.2715
    164  CB       -48.0410   68.5790    6.9090 C.3   131  GLU131      0.0429
    165  CG       -47.1030   69.2350    7.8830 C.3   131  GLU131      0.1163
    166  CD       -45.8820   69.8020    7.2070 C.2   131  GLU131      0.3649
    167  OE1      -46.0010   70.8780    6.5830 O.co2 131  GLU131     -0.2457
    168  OE2      -44.8050   69.1680    7.2990 O.co2 131  GLU131     -0.2457
    169  N        -49.5660   65.2220    6.3890 N.am  132  VAL132     -0.1977
    170  CA       -50.5590   64.5220    5.5930 C.3   132  VAL132      0.1596
    171  C        -51.7610   64.1260    6.4330 C.2   132  VAL132      0.2287
    172  O        -52.9000   64.4150    6.0670 O.2   132  VAL132     -0.2864
    173  CB       -49.9450   63.2890    4.8920 C.3   132  VAL132      0.0276
    174  CG1      -50.9630   62.7040    3.9230 C.3   132  VAL132      0.0022
    175  CG2      -48.6530   63.6750    4.1680 C.3   132  VAL132      0.0022
    176  N        -54.7310   66.3980    7.0870 N.3   135  HIS135     -0.1226
    177  CA       -55.7180   66.6370    6.0450 C.3   135  HIS135      0.1752
    178  C        -56.6350   65.4490    5.8160 C.2   135  HIS135      0.2595
    179  O        -57.4160   65.4600    4.8600 O.2   135  HIS135     -0.2718
    180  CB       -55.0200   67.0220    4.7460 C.3   135  HIS135      0.0759
    181  CG       -54.2040   68.2650    4.8650 C.ar  135  HIS135      0.0818
    182  ND1      -52.8270   68.2500    4.8980 N.ar  135  HIS135     -0.2268
    183  CD2      -54.5710   69.5580    5.0050 C.ar  135  HIS135      0.1154
    184  CE1      -52.3800   69.4860    5.0330 C.ar  135  HIS135      0.1986
    185  NE2      -53.4180   70.2990    5.0920 N.ar  135  HIS135     -0.2212
    186  N        -56.5910   64.4460    6.6880 N.am  136  ILE136     -0.1980
    187  CA       -57.3060   63.1940    6.4780 C.3   136  ILE136      0.1595
    188  C        -58.2540   62.9850    7.6500 C.2   136  ILE136      0.2287
    189  O        -57.8110   62.8100    8.7930 O.2   136  ILE136     -0.2864
    190  CB       -56.3380   62.0100    6.3190 C.3   136  ILE136      0.0276
    191  CG1      -55.5670   62.1390    4.9920 C.3   136  ILE136      0.0022
    192  CG2      -57.0990   60.6930    6.3840 C.3   136  ILE136      0.0022
    193  CD1      -54.5680   60.9980    4.7170 C.3   136  ILE136      0.0001
@<TRIPOS>BOND
     1   109   110    1
     2   112   111    2
     3   111   110    1
     4   110   113    1
     5   105   106    2
     6   105   104    1
     7    60    58   ar
     8    60    62   ar
     9   108   107    1
    10    58    57   ar
    11   128   126    1
    12    63    62    1
    13   113   114    1
    14   104   107    1
    15   104   103    1
    16    62    61   ar
    17   114   115    1
    18    55    54    2
    19    98    97    2
    20    57    56    1
    21    57    59   ar
    22   126   125    2
    23   126   127    1
    24   125   124    1
    25    94    92    1
    26   103    97   am
    27    56    53    1
    28    61    59   ar
    29    97    96    1
    30    53    54    1
    31    53    52    1
    32   123   124    1
    33   123   122    1
    34   118   119    1
    35   115   116    2
    36   115   117   am
    37    91    90    2
    38    51    50    2
    39    93    92    1
    40    92    89    1
    41   119   122    1
    42   119   120    1
    43    52    50   am
    44    90    95   am
    45    90    89    1
    46    96    95    1
    47    96    99    1
    48    50    49    1
    49    89    88    1
    50    69    68    1
    51    88    80   am
    52    64    65    1
    53    47    46    1
    54    65    68    1
    55    65    66    1
    56    99   100    1
    57   120   121    2
    58   120   129   am
    59    80    79    1
    60    80    81    2
    61    79    78    1
    62    79    82    1
    63    85    87   ar
    64    85    83   ar
    65    49    48    1
    66   129   130    1
    67    87    86   ar
    68    67    66    2
    69    66    70   am
    70   102   100    1
    71    45    44    2
    72    46    43    1
    73    48    44   am
    74    83    82    1
    75    83    84   ar
    76   100   101    1
    77    44    43    1
    78    86    84   ar
    79   130   133    1
    80   130   131    1
    81   133   134    1
    82    70    71    1
    83    43    42    1
    84    42    40   am
    85    72    73    2
    86    72    71    1
    87    71    74    1
    88   136   134   ar
    89   131   132    2
    90   131   137   am
    91   134   135   ar
    92    22    21    2
    93    40    39    1
    94    40    41    2
    95   137   138    1
    96    23    24    1
    97    23    20    1
    98    26    24   ar
    99    74    75    1
   100   142   141    1
   101    39    38    1
   102    24    25   ar
   103    19    20    1
   104    21    20    1
   105    21    27   am
   106    30    29    2
   107    38    29   am
   108   138   141    1
   109   138   139    1
   110    29    28    1
   111    75    76   ar
   112    75    77   ar
   113     7     5    1
   114    28    27    1
   115    28    31    1
   116     1     2    1
   117   139   143   am
   118   139   140    2
   119   143   144    1
   120   148   147    1
   121    31    32    1
   122     5     6    1
   123     5     2    1
   124    18    16    1
   125     2     3    1
   126   145   144    1
   127   145   146    2
   128   144   147    1
   129   174   173    1
   130   175   173    1
   131    32    34   ar
   132    32    33   ar
   133    16    15    2
   134    16    17    1
   135    15    14    1
   136     4     3    2
   137    34    36   ar
   138   193   191    1
   139   180   181    1
   140   180   177    1
   141   179   178    2
   142   181   182   ar
   143   181   183   ar
   144   173   170    1
   145   182   184   ar
   146   191   190    1
   147   152   151    2
   148   183   185   ar
   149   184   185   ar
   150   156   158   ar
   151   156   154   ar
   152    33    35   ar
   153    13    14    1
   154    13    12    1
   155   163   162    2
   156   153   154    1
   157   153   150    1
   158   158   159   ar
   159   170   169    1
   160   170   171    1
   161   178   177    1
   162   178   186   am
   163    36    37   ar
   164   154   155   ar
   165   149   150    1
   166   177   176    1
   167   172   171    2
   168   151   150    1
   169   151   160   am
   170   162   169   am
   171   162   161    1
   172   190   192    1
   173   190   187    1
   174    12     9    1
   175   187   186    1
   176   187   188    1
   177    35    37   ar
   178   159   157   ar
   179   167   166   ar
   180   155   157   ar
   181   164   161    1
   182   164   165    1
   183   166   168   ar
   184   166   165    1
   185   161   160    1
   186   188   189    2
   187     9     8    1
   188     9    10    1
   189    10    11    2
