@<TRIPOS>MOLECULE
tmp/6ecxA00.pdb
 229 226 0 0 0
SMALL
GASTEIGER

@<TRIPOS>ATOM
      1  N        -12.3100  -16.7800  -32.7720 N.3    10  LEU10      -0.1245
      2  CA       -12.5630  -18.1580  -32.3590 C.3    10  LEU10       0.1561
      3  C        -13.7840  -18.7330  -33.0640 C.2    10  LEU10       0.2260
      4  O        -13.8100  -19.9190  -33.4130 O.2    10  LEU10      -0.2867
      5  CB       -12.7410  -18.2280  -30.8410 C.3    10  LEU10       0.0270
      6  CG       -11.4960  -17.9820  -29.9930 C.3    10  LEU10       0.0019
      7  CD1      -11.8700  -17.8590  -28.5270 C.3    10  LEU10       0.0001
      8  CD2      -10.4930  -19.1030  -30.1900 C.3    10  LEU10       0.0001
      9  N         -5.6630  -30.7510  -28.2630 N.3    12  HIS12      -0.1226
     10  CA        -6.6240  -31.2800  -27.3010 C.3    12  HIS12       0.1752
     11  C         -7.2670  -30.1700  -26.4700 C.2    12  HIS12       0.2596
     12  O         -8.4260  -30.2820  -26.0730 O.2    12  HIS12      -0.2718
     13  CB        -5.9510  -32.3030  -26.3810 C.3    12  HIS12       0.0759
     14  CG        -5.8610  -33.6780  -26.9690 C.ar   12  HIS12       0.0818
     15  ND1       -4.8410  -34.5540  -26.6630 N.ar   12  HIS12      -0.2268
     16  CD2       -6.6710  -34.3330  -27.8350 C.ar   12  HIS12       0.1154
     17  CE1       -5.0240  -35.6860  -27.3190 C.ar   12  HIS12       0.1986
     18  NE2       -6.1270  -35.5790  -28.0370 N.ar   12  HIS12      -0.2212
     19  N         -6.5140  -29.1000  -26.2180 N.am   13  PHE13      -0.1962
     20  CA        -6.9680  -27.9710  -25.4130 C.3    13  PHE13       0.1771
     21  C         -7.1900  -26.7490  -26.2990 C.2    13  PHE13       0.2619
     22  O         -6.3100  -26.3800  -27.0840 O.2    13  PHE13      -0.2715
     23  CB        -5.9490  -27.6410  -24.3180 C.3    13  PHE13       0.0574
     24  CG        -6.0780  -28.4920  -23.0870 C.ar   13  PHE13      -0.0200
     25  CD1       -7.3240  -28.7570  -22.5350 C.ar   13  PHE13      -0.0042
     26  CD2       -4.9510  -29.0250  -22.4790 C.ar   13  PHE13      -0.0042
     27  CE1       -7.4420  -29.5340  -21.3970 C.ar   13  PHE13      -0.0003
     28  CE2       -5.0630  -29.8040  -21.3420 C.ar   13  PHE13      -0.0003
     29  CZ        -6.3090  -30.0580  -20.8020 C.ar   13  PHE13      -0.0000
     30  N         -8.3570  -26.1120  -26.1550 N.am   14  LEU14      -0.1963
     31  CA        -8.7030  -24.9160  -26.9170 C.3    14  LEU14       0.1728
     32  C         -8.4130  -23.6200  -26.1570 C.2    14  LEU14       0.2616
     33  O         -8.9120  -22.5560  -26.5390 O.2    14  LEU14      -0.2715
     34  CB       -10.1700  -24.9720  -27.3520 C.3    14  LEU14       0.0311
     35  CG       -10.4920  -26.1210  -28.3200 C.3    14  LEU14       0.0022
     36  CD1      -11.9660  -26.1500  -28.6960 C.3    14  LEU14       0.0001
     37  CD2       -9.6180  -26.0430  -29.5700 C.3    14  LEU14       0.0001
     38  N         -7.6370  -23.6900  -25.0840 N.am   15  THR15      -0.1951
     39  CA        -6.9570  -22.5380  -24.5160 C.3    15  THR15       0.1897
     40  C         -5.4640  -22.7500  -24.7100 C.2    15  THR15       0.2313
     41  O         -5.0110  -23.8680  -24.9760 O.2    15  THR15      -0.2863
     42  CB        -7.2430  -22.3710  -23.0220 C.3    15  THR15       0.1794
     43  OG1       -6.3960  -23.2680  -22.2950 O.3    15  THR15      -0.2208
     44  CG2       -8.7070  -22.6640  -22.7020 C.3    15  THR15       0.0378
     45  N         -4.4690  -24.8200  -16.3170 N.3    53  ARG53      -0.1245
     46  CA        -5.4920  -25.5690  -15.5950 C.3    53  ARG53       0.1563
     47  C         -5.1530  -25.7170  -14.1090 C.2    53  ARG53       0.2260
     48  O         -6.0440  -25.6360  -13.2540 O.2    53  ARG53      -0.2867
     49  CB        -5.6560  -26.9520  -16.2180 C.3    53  ARG53       0.0307
     50  CG        -6.8720  -27.1130  -17.1050 C.3    53  ARG53       0.0489
     51  CD        -6.6370  -26.4980  -18.4500 C.3    53  ARG53       0.2205
     52  NE        -7.8300  -26.5370  -19.2940 N.pl3  53  ARG53      -0.0865
     53  CZ        -7.8770  -26.0170  -20.5140 C.cat  53  ARG53       0.5346
     54  NH1       -6.7970  -25.4290  -21.0110 N.pl3  53  ARG53       0.1354
     55  NH2       -8.9910  -26.0790  -21.2280 N.pl3  53  ARG53       0.1354
     56  N        -19.8460  -27.8720  -17.5090 N.3    70  ASP70      -0.1225
     57  CA       -18.9410  -27.1120  -18.3820 C.3    70  ASP70       0.1805
     58  C        -19.7910  -26.3990  -19.4190 C.2    70  ASP70       0.2598
     59  O        -20.3160  -27.0430  -20.3400 O.2    70  ASP70      -0.2718
     60  CB       -17.9290  -28.0360  -19.0640 C.3    70  ASP70       0.1424
     61  CG       -16.9070  -27.2800  -19.9230 C.2    70  ASP70       0.3668
     62  OD1      -17.1640  -26.1330  -20.3550 O.co2  70  ASP70      -0.2456
     63  OD2      -15.8210  -27.8550  -20.1700 O.co2  70  ASP70      -0.2456
     64  N        -19.9490  -25.0740  -19.2930 N.am   71  PHE71      -0.1962
     65  CA       -20.9420  -24.4390  -20.1500 C.3    71  PHE71       0.1771
     66  C        -20.3980  -24.0160  -21.5130 C.2    71  PHE71       0.2620
     67  O        -21.1270  -23.3900  -22.2840 O.2    71  PHE71      -0.2715
     68  CB       -21.6370  -23.2680  -19.4340 C.3    71  PHE71       0.0574
     69  CG       -20.7450  -22.1290  -19.0310 C.ar   71  PHE71      -0.0200
     70  CD1      -20.4540  -21.1140  -19.9210 C.ar   71  PHE71      -0.0042
     71  CD2      -20.2820  -22.0230  -17.7280 C.ar   71  PHE71      -0.0042
     72  CE1      -19.6810  -20.0270  -19.5380 C.ar   71  PHE71      -0.0003
     73  CE2      -19.5160  -20.9300  -17.3270 C.ar   71  PHE71      -0.0003
     74  CZ       -19.2110  -19.9370  -18.2300 C.ar   71  PHE71      -0.0000
     75  N        -19.1700  -24.3970  -21.8500 N.am   72  GLY72      -0.1940
     76  CA       -18.6750  -24.2530  -23.2130 C.3    72  GLY72       0.2014
     77  C        -17.5750  -25.2650  -23.4420 C.2    72  GLY72       0.2639
     78  O        -16.3990  -24.9080  -23.4520 O.2    72  GLY72      -0.2714
     79  N        -17.9470  -26.5350  -23.6300 N.am   73  CYS73      -0.1953
     80  CA       -17.0400  -27.6410  -23.3370 C.3    73  CYS73       0.1843
     81  C        -16.0810  -28.0000  -24.4740 C.2    73  CYS73       0.2626
     82  O        -15.2860  -28.9340  -24.3040 O.2    73  CYS73      -0.2714
     83  CB       -17.8520  -28.8750  -22.9180 C.3    73  CYS73       0.0997
     84  SG       -18.9950  -29.5250  -24.1760 S.3    73  CYS73      -0.0797
     85  N        -16.0950  -27.2790  -25.5920 N.am   74  GLY74      -0.1940
     86  CA       -15.0910  -27.5130  -26.6260 C.3    74  GLY74       0.2014
     87  C        -15.0610  -28.9570  -27.1080 C.2    74  GLY74       0.2638
     88  O        -16.0820  -29.5230  -27.5210 O.2    74  GLY74      -0.2714
     89  N        -13.8700  -29.5640  -27.0720 N.am   75  HIS75      -0.1973
     90  CA       -13.6710  -30.9630  -27.4450 C.3    75  HIS75       0.1656
     91  C        -13.7240  -31.9010  -26.2460 C.2    75  HIS75       0.2291
     92  O        -13.3400  -33.0700  -26.3700 O.2    75  HIS75      -0.2864
     93  CB       -12.3350  -31.1380  -28.1750 C.3    75  HIS75       0.0771
     94  CG       -12.2730  -30.4390  -29.4980 C.ar   75  HIS75       0.0820
     95  ND1      -13.3630  -30.3330  -30.3340 N.ar   75  HIS75      -0.2267
     96  CD2      -11.2540  -29.8060  -30.1260 C.ar   75  HIS75       0.1154
     97  CE1      -13.0180  -29.6660  -31.4210 C.ar   75  HIS75       0.1986
     98  NE2      -11.7430  -29.3340  -31.3190 N.ar   75  HIS75      -0.2212
     99  N        -12.0580  -32.0970  -23.3860 N.3    77  SER77      -0.1202
    100  CA       -10.8480  -32.5090  -22.6670 C.3    77  SER77       0.2020
    101  C        -10.9590  -32.2580  -21.1590 C.2    77  SER77       0.2618
    102  O        -10.5880  -33.1140  -20.3430 O.2    77  SER77      -0.2717
    103  CB        -9.6340  -31.7810  -23.2460 C.3    77  SER77       0.2103
    104  OG        -9.4780  -32.1010  -24.6190 O.3    77  SER77      -0.2182
    105  N        -11.4580  -31.0840  -20.7700 N.am   78  ASP78      -0.1973
    106  CA       -11.5670  -30.7630  -19.3450 C.3    78  ASP78       0.1709
    107  C        -12.5110  -31.7230  -18.6270 C.2    78  ASP78       0.2293
    108  O        -12.1920  -32.2280  -17.5420 O.2    78  ASP78      -0.2864
    109  CB       -12.0270  -29.3210  -19.1830 C.3    78  ASP78       0.1436
    110  CG       -10.9380  -28.3270  -19.5330 C.2    78  ASP78       0.3671
    111  OD1       -9.8300  -28.4310  -18.9600 O.co2  78  ASP78      -0.2456
    112  OD2      -11.1810  -27.4440  -20.3790 O.co2  78  ASP78      -0.2456
    113  N        -22.1610  -28.4230  -22.2530 N.3    94  TYR94      -0.1227
    114  CA       -22.9170  -27.7760  -23.3250 C.3    94  TYR94       0.1736
    115  C        -21.9440  -27.1730  -24.3270 C.2    94  TYR94       0.2596
    116  O        -20.9470  -26.5530  -23.9400 O.2    94  TYR94      -0.2718
    117  CB       -23.8140  -26.6340  -22.8160 C.3    94  TYR94       0.0548
    118  CG       -25.1780  -26.9770  -22.2540 C.ar   94  TYR94      -0.0200
    119  CD1      -25.5500  -28.2830  -22.0040 C.ar   94  TYR94      -0.0009
    120  CD2      -26.0920  -25.9600  -21.9470 C.ar   94  TYR94      -0.0009
    121  CE1      -26.7890  -28.5760  -21.4890 C.ar   94  TYR94       0.0417
    122  CE2      -27.3410  -26.2510  -21.4270 C.ar   94  TYR94       0.0417
    123  CZ       -27.6810  -27.5730  -21.2070 C.ar   94  TYR94       0.1957
    124  OH       -28.9200  -27.9030  -20.6980 O.3    94  TYR94      -0.2866
    125  N        -22.2360  -27.3460  -25.6110 N.am   95  THR95      -0.1939
    126  CA       -21.5760  -26.5850  -26.6610 C.3    95  THR95       0.2028
    127  C        -22.6050  -26.2840  -27.7400 C.2    95  THR95       0.2642
    128  O        -23.5230  -27.0710  -27.9710 O.2    95  THR95      -0.2714
    129  CB       -20.3800  -27.3450  -27.2620 C.3    95  THR95       0.1808
    130  OG1      -19.8100  -26.5890  -28.3420 O.3    95  THR95      -0.2208
    131  CG2      -20.8200  -28.7040  -27.7820 C.3    95  THR95       0.0379
    132  N        -22.4610  -25.1300  -28.4000 N.am   96  ILE96      -0.1963
    133  CA       -23.3880  -24.8010  -29.4780 C.3    96  ILE96       0.1727
    134  C        -22.9500  -25.3940  -30.8050 C.2    96  ILE96       0.2616
    135  O        -23.7430  -25.4030  -31.7600 O.2    96  ILE96      -0.2715
    136  CB       -23.5740  -23.2800  -29.6470 C.3    96  ILE96       0.0290
    137  CG1      -22.2330  -22.5980  -29.9120 C.3    96  ILE96       0.0022
    138  CG2      -24.2850  -22.6900  -28.4410 C.3    96  ILE96       0.0023
    139  CD1      -22.3470  -21.0990  -30.0740 C.3    96  ILE96       0.0001
    140  N        -21.7210  -25.8970  -30.8970 N.am   97  SER97      -0.1950
    141  CA       -21.2410  -26.5090  -32.1320 C.3    97  SER97       0.1924
    142  C        -21.7030  -27.9590  -32.2160 C.2    97  SER97       0.2314
    143  O        -21.3460  -28.7820  -31.3600 O.2    97  SER97      -0.2863
    144  CB       -19.7190  -26.4310  -32.1950 C.3    97  SER97       0.2116
    145  OG       -19.2200  -27.2420  -33.2460 O.3    97  SER97      -0.2180
    146  N        -18.5670  -30.1280  -32.5240 N.3   100  GLN100     -0.1245
    147  CA       -17.9320  -30.3440  -31.2270 C.3   100  GLN100      0.1566
    148  C        -18.7050  -31.3470  -30.3790 C.2   100  GLN100      0.2260
    149  O        -18.0980  -32.1600  -29.6750 O.2   100  GLN100     -0.2867
    150  CB       -17.7870  -29.0180  -30.4940 C.3   100  GLN100      0.0367
    151  CG       -16.7440  -28.0870  -31.1130 C.3   100  GLN100      0.0905
    152  CD       -16.5210  -26.8180  -30.2930 C.2   100  GLN100      0.2608
    153  OE1      -17.2240  -26.5630  -29.3120 O.2   100  GLN100     -0.2717
    154  NE2      -15.5430  -26.0160  -30.7010 N.am  100  GLN100     -0.0878
    155  N        -26.3770  -27.3310  -26.9020 N.3   122  ARG122     -0.1231
    156  CA       -27.3460  -26.4140  -26.3240 C.3   122  ARG122      0.1694
    157  C        -26.6540  -25.0880  -26.0370 C.2   122  ARG122      0.2592
    158  O        -25.4240  -25.0040  -25.9730 O.2   122  ARG122     -0.2718
    159  CB       -27.9940  -26.9900  -25.0460 C.3   122  ARG122      0.0321
    160  CG       -28.7300  -28.3160  -25.2670 C.3   122  ARG122      0.0489
    161  CD       -30.0960  -28.3480  -24.6240 C.3   122  ARG122      0.2205
    162  NE       -30.0360  -28.8850  -23.2760 N.pl3 122  ARG122     -0.0865
    163  CZ       -30.6290  -30.0070  -22.8840 C.cat 122  ARG122      0.5346
    164  NH1      -31.3540  -30.7140  -23.7330 N.pl3 122  ARG122      0.1354
    165  NH2      -30.5130  -30.4090  -21.6260 N.pl3 122  ARG122      0.1354
    166  N        -27.4650  -24.0450  -25.8940 N.am  123  ASP123     -0.1960
    167  CA       -26.9850  -22.6780  -25.7300 C.3   123  ASP123      0.1840
    168  C        -27.1030  -22.2960  -24.2620 C.2   123  ASP123      0.2622
    169  O        -28.2120  -22.2130  -23.7260 O.2   123  ASP123     -0.2715
    170  CB       -27.7900  -21.7180  -26.6130 C.3   123  ASP123      0.1450
    171  CG       -27.2760  -20.2770  -26.5560 C.2   123  ASP123      0.3671
    172  OD1      -26.7230  -19.8440  -25.5160 O.co2 123  ASP123     -0.2456
    173  OD2      -27.4380  -19.5690  -27.5740 O.co2 123  ASP123     -0.2456
    174  N        -25.9520  -22.0370  -23.6310 N.am  124  SER124     -0.1950
    175  CA       -25.8720  -21.8180  -22.1890 C.3   124  SER124      0.1924
    176  C        -26.5710  -20.5390  -21.7330 C.2   124  SER124      0.2314
    177  O        -26.8160  -20.3830  -20.5330 O.2   124  SER124     -0.2863
    178  CB       -24.4040  -21.7950  -21.7590 C.3   124  SER124      0.2116
    179  OG       -23.7750  -23.0430  -22.0110 O.3   124  SER124     -0.2180
    180  N        -14.1250  -21.8140  -19.3940 N.3   139  PHE139     -0.1227
    181  CA       -12.7820  -21.4170  -19.8010 C.3   139  PHE139      0.1736
    182  C        -12.8940  -20.8060  -21.1940 C.2   139  PHE139      0.2595
    183  O        -13.1380  -21.5210  -22.1740 O.2   139  PHE139     -0.2718
    184  CB       -11.8130  -22.6010  -19.7750 C.3   139  PHE139      0.0547
    185  CG       -11.7660  -23.3290  -18.4330 C.ar  139  PHE139     -0.0202
    186  CD1      -12.0800  -22.6620  -17.2410 C.ar  139  PHE139     -0.0042
    187  CD2      -11.4230  -24.6820  -18.3700 C.ar  139  PHE139     -0.0042
    188  CE1      -12.0490  -23.3310  -16.0160 C.ar  139  PHE139     -0.0003
    189  CE2      -11.3830  -25.3610  -17.1510 C.ar  139  PHE139     -0.0003
    190  CZ       -11.7030  -24.6770  -15.9650 C.ar  139  PHE139     -0.0000
    191  N        -12.7470  -19.4880  -21.2640 N.am  140  GLU140     -0.1965
    192  CA       -12.8560  -18.7250  -22.5080 C.3   140  GLU140      0.1733
    193  C        -14.2010  -18.9720  -23.1960 C.2   140  GLU140      0.2616
    194  O        -14.2720  -19.2740  -24.3900 O.2   140  GLU140     -0.2715
    195  CB       -11.6920  -19.0490  -23.4430 C.3   140  GLU140      0.0429
    196  CG       -10.3230  -18.6710  -22.9180 C.3   140  GLU140      0.1163
    197  CD        -9.2170  -18.9400  -23.9330 C.2   140  GLU140      0.3649
    198  OE1       -8.0380  -19.0120  -23.5290 O.co2 140  GLU140     -0.2457
    199  OE2       -9.5310  -19.0770  -25.1370 O.co2 140  GLU140     -0.2457
    200  N        -15.2810  -18.8480  -22.4230 N.am  141  VAL141     -0.1977
    201  CA       -16.6260  -19.1010  -22.9350 C.3   141  VAL141      0.1596
    202  C        -17.5220  -17.8880  -22.7130 C.2   141  VAL141      0.2287
    203  O        -18.1400  -17.3740  -23.6520 O.2   141  VAL141     -0.2864
    204  CB       -17.2540  -20.3470  -22.2780 C.3   141  VAL141      0.0276
    205  CG1      -18.6160  -20.6170  -22.8980 C.3   141  VAL141      0.0022
    206  CG2      -16.3340  -21.5520  -22.4040 C.3   141  VAL141      0.0022
    207  N        -17.7730  -14.9990  -25.0350 N.3   144  LEU144     -0.1231
    208  CA       -18.3520  -15.2430  -26.3500 C.3   144  LEU144      0.1693
    209  C        -19.8700  -15.1530  -26.3680 C.2   144  LEU144      0.2592
    210  O        -20.4670  -15.2510  -27.4480 O.2   144  LEU144     -0.2718
    211  CB       -17.9550  -16.6390  -26.8400 C.3   144  LEU144      0.0284
    212  CG       -16.6100  -16.8740  -27.5160 C.3   144  LEU144      0.0019
    213  CD1      -16.2260  -18.3420  -27.4440 C.3   144  LEU144      0.0001
    214  CD2      -16.6850  -16.4290  -28.9560 C.3   144  LEU144      0.0001
    215  N        -20.5040  -15.0090  -25.2090 N.am  145  ILE145     -0.1966
    216  CA       -21.9450  -15.1590  -25.0580 C.3   145  ILE145      0.1712
    217  C        -22.5380  -13.7670  -24.8610 C.2   145  ILE145      0.2458
    218  O        -22.2720  -13.1170  -23.8370 O.2   145  ILE145     -0.2730
    219  CB       -22.2930  -16.1000  -23.8940 C.3   145  ILE145      0.0289
    220  CG1      -21.8120  -17.5160  -24.2280 C.3   145  ILE145      0.0022
    221  CG2      -23.7900  -16.0830  -23.6280 C.3   145  ILE145      0.0023
    222  CD1      -22.0650  -18.5690  -23.1520 C.3   145  ILE145      0.0001
    223  N        -23.3340  -13.2580  -25.8160 N.am  146  PRO146     -0.2727
    224  CA       -23.8280  -11.8800  -25.7120 C.3   146  PRO146      0.1402
    225  C        -24.7230  -11.6650  -24.5020 C.2   146  PRO146      0.2269
    226  O        -24.5760  -10.6710  -23.7760 O.2   146  PRO146     -0.2865
    227  CB       -24.6030  -11.6760  -27.0250 C.3   146  PRO146      0.0296
    228  CG       -24.1260  -12.7600  -27.9420 C.3   146  PRO146      0.0237
    229  CD       -23.7760  -13.9200  -27.0520 C.3   146  PRO146      0.0939
@<TRIPOS>BOND
     1     4     3    2
     2   145   144    1
     3     3     2    1
     4     1     2    1
     5   146   147    1
     6     2     5    1
     7   142   141    1
     8   142   143    2
     9   144   141    1
    10   141   140    1
    11   135   134    2
    12    97    98   ar
    13    97    95   ar
    14    98    96   ar
    15   147   150    1
    16   147   148    1
    17   151   150    1
    18   151   152    1
    19   140   134   am
    20     5     6    1
    21   134   133    1
    22   154   152   am
    23   148   149    2
    24    95    94   ar
    25   152   153    2
    26     8     6    1
    27    96    94   ar
    28   139   137    1
    29     6     7    1
    30   137   136    1
    31   136   133    1
    32   136   138    1
    33    37    35    1
    34    94    93    1
    35   133   132    1
    36   214   212    1
    37    36    35    1
    38   132   127   am
    39   130   129    1
    40    35    34    1
    41     9    10    1
    42    93    90    1
    43    18    16   ar
    44    18    17   ar
    45   128   127    2
    46   228   229    1
    47   228   227    1
    48    16    14   ar
    49   131   129    1
    50   127   126    1
    51   173   171   ar
    52    88    87    2
    53   212   213    1
    54   212   211    1
    55   210   209    2
    56    90    89    1
    57    90    91    1
    58    34    31    1
    59    17    15   ar
    60    10    11    1
    61    10    13    1
    62   129   126    1
    63    87    89   am
    64    87    86    1
    65    22    21    2
    66   229   223    1
    67   227   224    1
    68    14    15   ar
    69    14    13    1
    70    31    32    1
    71    31    30    1
    72   155   156    1
    73   211   208    1
    74   126   125    1
    75    86    85    1
    76   170   171    1
    77   170   167    1
    78   171   172   ar
    79    33    32    2
    80    11    19   am
    81    11    12    2
    82    92    91    2
    83   209   208    1
    84   209   215   am
    85   208   207    1
    86   156   157    1
    87   156   159    1
    88    21    30   am
    89    21    20    1
    90    19    20    1
    91    32    38   am
    92   157   158    2
    93   157   166   am
    94   166   167    1
    95   223   224    1
    96   223   217   am
    97   167   168    1
    98   224   225    1
    99   125   115   am
   100    85    81   am
   101    20    23    1
   102   160   159    1
   103   160   161    1
   104   215   216    1
   105   199   197   ar
   106    38    39    1
   107   216   217    1
   108   216   219    1
   109    41    40    2
   110   217   218    2
   111    40    39    1
   112   161   162    1
   113   104   103    1
   114    39    42    1
   115   225   226    2
   116    81    82    2
   117    81    80    1
   118   194   193    2
   119   115   116    2
   120   115   114    1
   121    23    24    1
   122   168   169    2
   123   168   174   am
   124   220   219    1
   125   220   222    1
   126    84    83    1
   127   197   198   ar
   128   197   196    1
   129   219   221    1
   130   164   163    1
   131   203   202    2
   132   174   175    1
   133    79    77   am
   134    79    80    1
   135    78    77    2
   136   195   196    1
   137   195   192    1
   138    77    76    1
   139    99   100    1
   140    80    83    1
   141   114   117    1
   142   114   113    1
   143   162   163    2
   144   103   100    1
   145    76    75    1
   146   193   192    1
   147   193   200   am
   148    24    25   ar
   149    24    26   ar
   150    42    44    1
   151    42    43    1
   152   201   202    1
   153   201   200    1
   154   201   204    1
   155   205   204    1
   156   163   165    1
   157   117   118    1
   158   100   101    1
   159    25    27   ar
   160   192   191    1
   161    26    28   ar
   162   206   204    1
   163    67    66    2
   164   118   119   ar
   165   118   120   ar
   166   175   178    1
   167   175   176    1
   168   183   182    2
   169   179   178    1
   170   119   121   ar
   171   120   122   ar
   172    75    66   am
   173   176   177    2
   174    66    65    1
   175   121   123   ar
   176   122   123   ar
   177    27    29   ar
   178    28    29   ar
   179   191   182   am
   180    55    53    1
   181   123   124    1
   182   182   181    1
   183   101   105   am
   184   101   102    2
   185    54    53    1
   186   105   106    1
   187    53    52    2
   188   112   110   ar
   189    62    61   ar
   190    59    58    2
   191    63    61   ar
   192    65    68    1
   193    65    64    1
   194    61    60    1
   195    70    72   ar
   196    70    69   ar
   197   181   184    1
   198   181   180    1
   199   184   185    1
   200    72    74   ar
   201   110   109    1
   202   110   111   ar
   203    68    69    1
   204    58    64   am
   205    58    57    1
   206   106   109    1
   207   106   107    1
   208    52    51    1
   209    60    57    1
   210    69    71   ar
   211   107   108    2
   212    51    50    1
   213   185   187   ar
   214   185   186   ar
   215    57    56    1
   216   187   189   ar
   217    74    73   ar
   218    71    73   ar
   219   186   188   ar
   220   189   190   ar
   221    50    49    1
   222    45    46    1
   223    49    46    1
   224   188   190   ar
   225    46    47    1
   226    47    48    2
