@<TRIPOS>MOLECULE
tmp/6ed6B00.pdb
 209 200 0 0 0
SMALL
GASTEIGER

@<TRIPOS>ATOM
      1  N         22.9970   43.2320   15.5130 N.3    71  ILE71      -0.1231
      2  CA        21.7320   43.9330   15.3260 C.3    71  ILE71       0.1692
      3  C         20.7160   43.5850   16.3980 C.2    71  ILE71       0.2593
      4  O         19.5540   43.9850   16.2990 O.2    71  ILE71      -0.2718
      5  CB        21.1820   43.7250   13.8800 C.3    71  ILE71       0.0266
      6  CG1       20.8630   42.2420   13.5730 C.3    71  ILE71       0.0019
      7  CG2       22.1320   44.3180   12.8370 C.3    71  ILE71       0.0020
      8  CD1       19.6280   42.0100   12.6960 C.3    71  ILE71       0.0001
      9  N         21.1570   42.8550   17.4180 N.am   72  GLY72      -0.1942
     10  CA        20.2970   42.4370   18.5230 C.3    72  GLY72       0.2014
     11  C         21.0520   41.9290   19.7330 C.2    72  GLY72       0.2639
     12  O         22.2270   41.5680   19.6360 O.2    72  GLY72      -0.2714
     13  N         20.3920   41.9460   20.8930 N.am   73  ARG73      -0.1963
     14  CA        20.9600   41.4340   22.1390 C.3    73  ARG73       0.1729
     15  C         19.8740   40.8360   22.9800 C.2    73  ARG73       0.2617
     16  O         18.6880   41.0560   22.7110 O.2    73  ARG73      -0.2715
     17  CB        21.8220   42.4570   22.9010 C.3    73  ARG73       0.0348
     18  CG        23.0850   41.8350   23.5290 C.3    73  ARG73       0.0492
     19  CD        24.0930   42.8810   24.0030 C.3    73  ARG73       0.2205
     20  NE        23.5940   43.7030   25.1180 N.pl3  73  ARG73      -0.0865
     21  CZ        24.0600   44.9080   25.4490 C.cat  73  ARG73       0.5346
     22  NH1       25.0470   45.4620   24.7520 N.pl3  73  ARG73       0.1354
     23  NH2       23.5360   45.5720   26.4710 N.pl3  73  ARG73       0.1354
     24  N         20.2810   39.9910   23.9120 N.am   74  GLY74      -0.1940
     25  CA        19.3580   39.2600   24.7630 C.3    74  GLY74       0.2014
     26  C         20.0540   38.6230   25.9340 C.2    74  GLY74       0.2639
     27  O         21.2940   38.6070   26.0210 O.2    74  GLY74      -0.2714
     28  N         19.2340   38.1130   26.8490 N.am   75  ALA75      -0.1963
     29  CA        19.6650   37.4570   28.0750 C.3    75  ALA75       0.1728
     30  C         20.8110   36.4590   27.8240 C.2    75  ALA75       0.2616
     31  O         21.8870   36.5840   28.4270 O.2    75  ALA75      -0.2715
     32  CB        18.4770   36.7350   28.7010 C.3    75  ALA75       0.0334
     33  N         20.5980   35.5220   26.8670 N.am   76  PHE76      -0.1960
     34  CA        21.5340   34.4440   26.6080 C.3    76  PHE76       0.1774
     35  C         22.4180   34.5880   25.3450 C.2    76  PHE76       0.2659
     36  O         23.1480   33.6510   25.0320 O.2    76  PHE76      -0.2711
     37  CB        20.7590   33.1170   26.5990 C.3    76  PHE76       0.0574
     38  CG        20.0280   32.8190   27.8990 C.ar   76  PHE76      -0.0200
     39  CD1       20.7220   32.7150   29.1030 C.ar   76  PHE76      -0.0042
     40  CD2       18.6510   32.6310   27.9150 C.ar   76  PHE76      -0.0042
     41  CE1       20.0490   32.4300   30.2970 C.ar   76  PHE76      -0.0003
     42  CE2       17.9810   32.3280   29.1090 C.ar   76  PHE76      -0.0003
     43  CZ        18.6870   32.2260   30.2920 C.ar   76  PHE76      -0.0000
     44  N         22.4220   35.7480   24.6850 N.am   77  GLY77      -0.1716
     45  CA        23.2760   35.9400   23.5160 C.2    77  GLY77       0.1480
     46  C         23.1080   37.2240   22.7240 C.2    77  GLY77       0.2820
     47  O         23.0890   38.3260   23.2870 O.2    77  GLY77      -0.2669
     48  N         23.0380   37.0750   21.3850 N.am   78  GLU78      -0.1929
     49  CA        22.9050   38.1640   20.4170 C.3    78  GLU78       0.1736
     50  C         22.3490   37.6830   19.0640 C.2    78  GLU78       0.2616
     51  O         22.3010   36.4780   18.8030 O.2    78  GLU78      -0.2715
     52  CB        24.2550   38.8720   20.2130 C.3    78  GLU78       0.0429
     53  CG        25.4120   37.9200   19.9760 C.3    78  GLU78       0.1163
     54  CD        26.7670   38.5750   20.1170 C.2    78  GLU78       0.3649
     55  OE1       27.3920   38.8630   19.0730 O.co2  78  GLU78      -0.2457
     56  OE2       27.2050   38.8000   21.2700 O.co2  78  GLU78      -0.2457
     57  N         21.9000   38.6500   18.2320 N.am   79  VAL79      -0.1977
     58  CA        21.4250   38.4810   16.8660 C.3    79  VAL79       0.1596
     59  C         22.4460   39.2220   15.9960 C.2    79  VAL79       0.2287
     60  O         22.7330   40.4030   16.2250 O.2    79  VAL79      -0.2864
     61  CB        19.9490   38.9040   16.6410 C.3    79  VAL79       0.0276
     62  CG1       19.5750   38.8920   15.1620 C.3    79  VAL79       0.0022
     63  CG2       19.0240   37.9790   17.3940 C.3    79  VAL79       0.0022
     64  N         20.2500   36.6480    9.0870 N.3    92  ALA92      -0.1245
     65  CA        20.2260   37.0740   10.4670 C.3    92  ALA92       0.1562
     66  C         20.5150   35.7820   11.2780 C.2    92  ALA92       0.2260
     67  O         19.8990   34.7400   11.0280 O.2    92  ALA92      -0.2867
     68  CB        18.8420   37.6260   10.8050 C.3    92  ALA92       0.0290
     69  N         20.8430   34.0640   15.1180 N.3    94  LYS94      -0.1231
     70  CA        20.6150   34.1450   16.5460 C.3    94  LYS94       0.1693
     71  C         21.5760   33.1720   17.2120 C.2    94  LYS94       0.2592
     72  O         21.6100   31.9950   16.8540 O.2    94  LYS94      -0.2718
     73  CB        19.1510   33.8050   16.8890 C.3    94  LYS94       0.0285
     74  CG        18.8420   33.8740   18.3710 C.3    94  LYS94       0.0035
     75  CD        17.3620   33.7920   18.6450 C.3    94  LYS94       0.0206
     76  CE        17.1400   33.5930   20.1250 C.3    94  LYS94       0.1093
     77  NZ        15.6950   33.5010   20.4620 N.3    94  LYS94      -0.1314
     78  N         22.3600   33.6670   18.1670 N.am   95  LEU95      -0.1966
     79  CA        23.2980   32.8690   18.9620 C.3    95  LEU95       0.1728
     80  C         22.7580   32.7210   20.3960 C.2    95  LEU95       0.2616
     81  O         22.1260   33.6500   20.9210 O.2    95  LEU95      -0.2715
     82  CB        24.6590   33.5470   19.0120 C.3    95  LEU95       0.0311
     83  CG        25.4760   33.5310   17.7400 C.3    95  LEU95       0.0022
     84  CD1       24.9590   34.5590   16.7470 C.3    95  LEU95       0.0001
     85  CD2       26.9080   33.8350   18.0610 C.3    95  LEU95       0.0001
     86  N         22.9580   31.5350   21.0030 N.am   96  LEU96      -0.1977
     87  CA        22.5290   31.2570   22.3810 C.3    96  LEU96       0.1596
     88  C         23.6840   30.5770   23.1390 C.2    96  LEU96       0.2287
     89  O         24.1430   29.5120   22.7210 O.2    96  LEU96      -0.2864
     90  CB        21.2260   30.4300   22.4390 C.3    96  LEU96       0.0297
     91  CG        19.9260   31.0900   21.9250 C.3    96  LEU96       0.0022
     92  CD1       18.7380   30.1070   21.9600 C.3    96  LEU96       0.0001
     93  CD2       19.5770   32.3120   22.7240 C.3    96  LEU96       0.0001
     94  N         13.4110   26.3480   26.3710 N.3   109  PHE109     -0.1241
     95  CA        12.6640   27.4940   25.8640 C.3   109  PHE109      0.1605
     96  C         12.7070   27.5970   24.3380 C.2   109  PHE109      0.2264
     97  O         11.6810   27.8850   23.7030 O.2   109  PHE109     -0.2867
     98  CB        13.1070   28.7910   26.5460 C.3   109  PHE109      0.0534
     99  CG        14.5400   29.2160   26.3660 C.ar  109  PHE109     -0.0203
    100  CD1       14.9090   30.0470   25.3120 C.ar  109  PHE109     -0.0042
    101  CD2       15.5010   28.8870   27.3090 C.ar  109  PHE109     -0.0042
    102  CE1       16.2280   30.5070   25.1820 C.ar  109  PHE109     -0.0003
    103  CE2       16.8190   29.3490   27.1810 C.ar  109  PHE109     -0.0003
    104  CZ        17.1730   30.1460   26.1110 C.ar  109  PHE109     -0.0000
    105  N         10.4830   27.6210   19.3310 N.3   113  GLU113     -0.1245
    106  CA        11.0340   28.6060   18.4050 C.3   113  GLU113      0.1567
    107  C         11.5490   27.8650   17.1830 C.2   113  GLU113      0.2260
    108  O         11.0040   28.0130   16.0900 O.2   113  GLU113     -0.2867
    109  CB        12.1690   29.3990   19.0630 C.3   113  GLU113      0.0388
    110  CG        12.4070   30.7240   18.3720 C.3   113  GLU113      0.1160
    111  CD        13.4730   31.6340   18.9480 C.2   113  GLU113      0.3649
    112  OE1       14.3530   31.1480   19.6980 O.co2 113  GLU113     -0.2457
    113  OE2       13.4370   32.8420   18.6180 O.co2 113  GLU113     -0.2457
    114  N          9.6460   28.4750   13.4370 N.3   117  MET117     -0.1245
    115  CA        10.4920   29.0750   12.4120 C.3   117  MET117      0.1570
    116  C         10.8600   28.1100   11.2660 C.2   117  MET117      0.2261
    117  O         10.7110   28.4570   10.0900 O.2   117  MET117     -0.2867
    118  CB        11.7300   29.6960   13.0470 C.3   117  MET117      0.0387
    119  CG        11.4210   30.8840   13.9480 C.3   117  MET117      0.0595
    120  SD        12.7790   32.0890   13.9910 S.3   117  MET117     -0.1393
    121  CE        13.9920   31.1750   14.9940 C.3   117  MET117      0.0692
    122  N          9.0400   34.5020   10.6770 N.3   126  VAL126     -0.1245
    123  CA        10.4040   34.5970   10.1460 C.3   126  VAL126      0.1561
    124  C         10.8620   33.1510    9.9100 C.2   126  VAL126      0.2260
    125  O         10.6670   32.3020   10.7720 O.2   126  VAL126     -0.2867
    126  CB        11.2870   35.3610   11.1660 C.3   126  VAL126      0.0252
    127  CG1       12.7700   35.0880   10.9680 C.3   126  VAL126      0.0019
    128  CG2       11.0000   36.8560   11.1320 C.3   126  VAL126      0.0019
    129  N         18.3590   32.6430   10.0870 N.3   142  MET142     -0.1230
    130  CA        17.0520   33.0290    9.5780 C.3   142  MET142      0.1702
    131  C         17.1220   33.9930    8.3860 C.2   142  MET142      0.2592
    132  O         18.1660   34.5370    8.0130 O.2   142  MET142     -0.2718
    133  CB        16.2360   33.7360   10.6610 C.3   142  MET142      0.0401
    134  CG        15.9470   32.9340   11.9090 C.3   142  MET142      0.0596
    135  SD        15.7510   34.0770   13.3240 S.3   142  MET142     -0.1393
    136  CE        17.5060   34.5640   13.6140 C.3   142  MET142      0.0692
    137  N         15.9420   34.2150    7.8320 N.am  143  GLU143     -0.1966
    138  CA        15.5610   35.1670    6.8190 C.3   143  GLU143      0.1733
    139  C         15.8150   36.5620    7.4630 C.2   143  GLU143      0.2616
    140  O         15.3170   36.8080    8.5570 O.2   143  GLU143     -0.2715
    141  CB        14.0630   34.9140    6.6260 C.3   143  GLU143      0.0429
    142  CG        13.3040   35.7160    5.5930 C.3   143  GLU143      0.1163
    143  CD        11.8030   35.4610    5.6630 C.2   143  GLU143      0.3649
    144  OE1       11.0790   36.0920    4.8590 O.co2 143  GLU143     -0.2457
    145  OE2       11.3490   34.6410    6.5030 O.co2 143  GLU143     -0.2457
    146  N         16.6400   37.4290    6.8380 N.am  144  TYR144     -0.1960
    147  CA        16.9200   38.7680    7.3750 C.3   144  TYR144      0.1771
    148  C         15.7600   39.7760    7.0890 C.2   144  TYR144      0.2619
    149  O         15.1910   39.7670    5.9960 O.2   144  TYR144     -0.2715
    150  CB        18.2960   39.2790    6.8940 C.3   144  TYR144      0.0574
    151  CG        18.6260   40.7150    7.2700 C.ar  144  TYR144     -0.0198
    152  CD1       18.6970   41.1100    8.6050 C.ar  144  TYR144     -0.0009
    153  CD2       18.9450   41.6590    6.2920 C.ar  144  TYR144     -0.0009
    154  CE1       19.0200   42.4240    8.9560 C.ar  144  TYR144      0.0417
    155  CE2       19.2610   42.9770    6.6310 C.ar  144  TYR144      0.0417
    156  CZ        19.2860   43.3580    7.9650 C.ar  144  TYR144      0.1957
    157  OH        19.6190   44.6460    8.3170 O.3   144  TYR144     -0.2866
    158  N         15.3920   40.5980    8.0950 N.am  145  MET145     -0.1977
    159  CA        14.2910   41.5730    8.0430 C.3   145  MET145      0.1605
    160  C         14.8690   42.9780    7.9700 C.2   145  MET145      0.2287
    161  O         15.0830   43.5930    9.0190 O.2   145  MET145     -0.2864
    162  CB        13.3530   41.4310    9.2740 C.3   145  MET145      0.0413
    163  CG        12.6990   40.0590    9.4080 C.3   145  MET145      0.0598
    164  SD        11.7860   39.5470    7.9360 S.3   145  MET145     -0.1393
    165  CE        10.3410   40.2730    8.2560 C.3   145  MET145      0.0692
    166  N          9.5730   44.4170   19.7500 N.3   191  ASP191     -0.1239
    167  CA        10.9170   43.9150   19.5290 C.3   191  ASP191      0.1674
    168  C         10.7820   42.6210   18.7280 C.2   191  ASP191      0.2266
    169  O         11.6960   42.2690   17.9620 O.2   191  ASP191     -0.2867
    170  CB        11.5790   43.6000   20.8790 C.3   191  ASP191      0.1410
    171  CG        11.6750   44.7890   21.7870 C.2   191  ASP191      0.3668
    172  OD1       10.6640   45.0970   22.4760 O.co2 191  ASP191     -0.2456
    173  OD2       12.7480   45.4350   21.8000 O.co2 191  ASP191     -0.2456
    174  N          8.7340   42.5300   13.2650 N.3   194  LEU194     -0.1245
    175  CA         9.7700   42.8560   12.2760 C.3   194  LEU194      0.1561
    176  C          9.2240   43.0790   10.8890 C.2   194  LEU194      0.2260
    177  O          8.3050   42.3780   10.4630 O.2   194  LEU194     -0.2867
    178  CB        10.8160   41.7230   12.2180 C.3   194  LEU194      0.0270
    179  CG        11.7280   41.5260   13.4220 C.3   194  LEU194      0.0019
    180  CD1       12.2280   40.1610   13.4290 C.3   194  LEU194      0.0001
    181  CD2       12.9430   42.4720   13.3690 C.3   194  LEU194      0.0001
    182  N          9.0940   37.2100   15.2320 N.3   204  ALA204     -0.1231
    183  CA        10.3320   36.5510   15.6430 C.3   204  ALA204      0.1694
    184  C         10.3150   36.4050   17.1900 C.2   204  ALA204      0.2592
    185  O          9.3370   36.8240   17.8160 O.2   204  ALA204     -0.2718
    186  CB        11.5240   37.3410   15.1730 C.3   204  ALA204      0.0304
    187  N         11.3620   35.7820   17.7960 N.am  205  ASP205     -0.1974
    188  CA        11.4840   35.4920   19.2400 C.3   205  ASP205      0.1709
    189  C         10.2840   34.7220   19.7630 C.2   205  ASP205      0.2293
    190  O          9.1810   35.2490   19.8340 O.2   205  ASP205     -0.2864
    191  CB        11.7880   36.7270   20.0960 C.3   205  ASP205      0.1436
    192  CG        11.9410   36.4180   21.5790 C.2   205  ASP205      0.3671
    193  OD1       10.9030   36.2400   22.2630 O.co2 205  ASP205     -0.2456
    194  OD2       13.0920   36.3500   22.0530 O.co2 205  ASP205     -0.2456
    195  N         10.7280   32.5740   22.6090 N.3   207  GLY207     -0.1225
    196  CA        11.3310   32.1250   23.8580 C.3   207  GLY207      0.1811
    197  C         10.3000   32.0130   24.9580 C.2   207  GLY207      0.2280
    198  O         10.5070   31.2790   25.9310 O.2   207  GLY207     -0.2866
    199  N         18.2120   49.3120   12.3950 N.3   339  PHE339     -0.1241
    200  CA        18.6040   48.6320   13.6480 C.3   339  PHE339      0.1605
    201  C         19.5960   49.5120   14.4420 C.2   339  PHE339      0.2264
    202  O         20.6140   49.9550   13.8810 O.2   339  PHE339     -0.2867
    203  CB        19.2370   47.2330   13.3700 C.3   339  PHE339      0.0534
    204  CG        18.3140   46.2180   12.7330 C.ar  339  PHE339     -0.0203
    205  CD1       17.4530   45.4500   13.5110 C.ar  339  PHE339     -0.0042
    206  CD2       18.2880   46.0460   11.3550 C.ar  339  PHE339     -0.0042
    207  CE1       16.5730   44.5440   12.9210 C.ar  339  PHE339     -0.0003
    208  CE2       17.4040   45.1390   10.7680 C.ar  339  PHE339     -0.0003
    209  CZ        16.5630   44.3890   11.5570 C.ar  339  PHE339     -0.0000
@<TRIPOS>BOND
     1   144   143   ar
     2   142   143    1
     3   142   141    1
     4   143   145   ar
     5   149   148    2
     6   153   155   ar
     7   153   151   ar
     8   141   138    1
     9   155   156   ar
    10   138   139    1
    11   138   137    1
    12   146   147    1
    13   146   139   am
    14   150   151    1
    15   150   147    1
    16   148   147    1
    17   148   158   am
    18   151   152   ar
    19   139   140    2
    20   137   131   am
    21   164   165    1
    22   164   163    1
    23   156   157    1
    24   156   154   ar
    25   160   159    1
    26   160   161    2
    27   132   131    2
    28   159   158    1
    29   159   162    1
    30   131   130    1
    31   152   154   ar
    32    64    65    1
    33   162   163    1
    34   130   129    1
    35   130   133    1
    36   124   123    1
    37   124   125    2
    38   117   116    2
    39   123   122    1
    40   123   126    1
    41   177   176    2
    42    65    68    1
    43    65    66    1
    44   133   134    1
    45   208   206   ar
    46   208   209   ar
    47   176   175    1
    48   127   126    1
    49    67    66    2
    50   128   126    1
    51   116   115    1
    52   206   204   ar
    53   209   207   ar
    54   134   135    1
    55   178   175    1
    56   178   179    1
    57   175   174    1
    58   199   200    1
    59   115   118    1
    60   115   114    1
    61     8     6    1
    62   204   203    1
    63   204   205   ar
    64     7     5    1
    65   207   205   ar
    66   118   119    1
    67   135   136    1
    68   181   179    1
    69   203   200    1
    70   179   180    1
    71     6     5    1
    72   200   201    1
    73     5     2    1
    74   202   201    2
    75   119   120    1
    76   120   121    1
    77    69    70    1
    78    62    61    1
    79   186   183    1
    80   182   183    1
    81     2     1    1
    82     2     3    1
    83   183   184    1
    84    59    60    2
    85    59    58    1
    86   108   107    2
    87     4     3    2
    88     3     9   am
    89    70    73    1
    90    70    71    1
    91    61    58    1
    92    61    63    1
    93    84    83    1
    94    72    71    2
    95    58    57    1
    96    73    74    1
    97   107   106    1
    98   184   187   am
    99   184   185    2
   100    71    78   am
   101     9    10    1
   102    83    85    1
   103    83    82    1
   104   187   188    1
   105   169   168    2
   106    78    79    1
   107    57    50   am
   108    74    75    1
   109   110   111    1
   110   110   109    1
   111   106   109    1
   112   106   105    1
   113    10    11    1
   114   113   111   ar
   115    75    76    1
   116   168   167    1
   117    51    50    2
   118   111   112   ar
   119    79    82    1
   120    79    80    1
   121    50    49    1
   122    55    54   ar
   123   188   189    1
   124   188   191    1
   125   167   166    1
   126   167   170    1
   127    12    11    2
   128    11    13   am
   129   189   190    2
   130    53    54    1
   131    53    52    1
   132   191   192    1
   133    54    56   ar
   134    76    77    1
   135    52    49    1
   136    80    81    2
   137    80    86   am
   138    49    48    1
   139   170   171    1
   140    13    14    1
   141    86    87    1
   142    48    46   am
   143   192   194   ar
   144   192   193   ar
   145   171   173   ar
   146   171   172   ar
   147    91    92    1
   148    91    90    1
   149    91    93    1
   150    14    17    1
   151    14    15    1
   152    87    90    1
   153    87    88    1
   154   195   196    1
   155    16    15    2
   156    89    88    2
   157    46    47    2
   158    46    45    1
   159    17    18    1
   160    15    24   am
   161    45    44    2
   162    18    19    1
   163    97    96    2
   164   196   197    1
   165    24    25    1
   166    19    20    1
   167    96    95    1
   168    44    35    1
   169    22    21    1
   170    25    26    1
   171   197   198    2
   172    36    35    2
   173    20    21    2
   174   102   100   ar
   175   102   104   ar
   176   100    99   ar
   177    35    34    1
   178    21    23    1
   179    95    94    1
   180    95    98    1
   181    26    27    2
   182    26    28   am
   183   104   103   ar
   184    99    98    1
   185    99   101   ar
   186    37    34    1
   187    37    38    1
   188    34    33    1
   189    28    29    1
   190    33    30   am
   191   103   101   ar
   192    30    29    1
   193    30    31    2
   194    38    40   ar
   195    38    39   ar
   196    40    42   ar
   197    29    32    1
   198    39    41   ar
   199    42    43   ar
   200    43    41   ar
