@<TRIPOS>MOLECULE
tmp/6edaA00.pdb
 191 186 0 0 0
SMALL
GASTEIGER

@<TRIPOS>ATOM
      1  N          4.7400   -6.5610   10.7710 N.3     4  TYR4       -0.1241
      2  CA         4.4150   -7.7130   11.6040 C.3     4  TYR4        0.1605
      3  C          5.2870   -8.9120   11.2910 C.2     4  TYR4        0.2264
      4  O          4.9850  -10.0180   11.7520 O.2     4  TYR4       -0.2867
      5  CB         2.9430   -8.0930   11.4540 C.3     4  TYR4        0.0534
      6  CG         2.0120   -7.0330   11.9930 C.ar    4  TYR4       -0.0201
      7  CD1        1.6580   -7.0140   13.3380 C.ar    4  TYR4       -0.0009
      8  CD2        1.4870   -6.0580   11.1530 C.ar    4  TYR4       -0.0009
      9  CE1        0.8150   -6.0240   13.8440 C.ar    4  TYR4        0.0417
     10  CE2        0.6360   -5.0740   11.6400 C.ar    4  TYR4        0.0417
     11  CZ         0.2970   -5.0680   12.9730 C.ar    4  TYR4        0.1957
     12  OH        -0.5590   -4.0940   13.4370 O.3     4  TYR4       -0.2866
     13  N         -3.4770    0.4170    3.5700 N.3    59  ASN59      -0.1240
     14  CA        -2.3990    1.2730    4.0390 C.3    59  ASN59       0.1653
     15  C         -1.1180    0.4940    4.3120 C.2    59  ASN59       0.2266
     16  O         -0.2030    1.0340    4.9410 O.2    59  ASN59      -0.2867
     17  CB        -2.8270    2.0540    5.2880 C.3    59  ASN59       0.1155
     18  CG        -3.1760    1.1580    6.4600 C.2    59  ASN59       0.2627
     19  OD1       -2.6420    0.0720    6.6090 O.2    59  ASN59      -0.2716
     20  ND2       -4.0670    1.6340    7.3160 N.am   59  ASN59      -0.0877
     21  N         -0.7350   -2.0700    6.3250 N.3    61  HIS61      -0.1226
     22  CA        -0.8190   -2.8070    7.5960 C.3    61  HIS61       0.1752
     23  C         -2.1800   -3.4490    7.7820 C.2    61  HIS61       0.2595
     24  O         -2.2840   -4.5310    8.3640 O.2    61  HIS61      -0.2718
     25  CB        -0.5870   -1.8780    8.8020 C.3    61  HIS61       0.0759
     26  CG         0.4880   -0.8590    8.5860 C.ar   61  HIS61       0.0818
     27  ND1        1.8280   -1.1780    8.5040 N.ar   61  HIS61      -0.2268
     28  CD2        0.4090    0.4830    8.4170 C.ar   61  HIS61       0.1154
     29  CE1        2.5280   -0.0750    8.2990 C.ar   61  HIS61       0.1986
     30  NE2        1.6910    0.9450    8.2400 N.ar   61  HIS61      -0.2212
     31  N         -3.2300   -2.7640    7.3470 N.am   62  ALA62      -0.1980
     32  CA        -4.5940   -3.2570    7.3780 C.3    62  ALA62       0.1597
     33  C         -5.3380   -2.5210    6.2700 C.2    62  ALA62       0.2287
     34  O         -4.7170   -1.9020    5.4000 O.2    62  ALA62      -0.2864
     35  CB        -5.2000   -3.0650    8.7830 C.3    62  ALA62       0.0319
     36  N         -8.5010    0.3370    5.8010 N.3    64  ASN64      -0.1240
     37  CA        -9.2980    1.2800    6.5800 C.3    64  ASN64       0.1653
     38  C        -10.4970    1.7040    5.7550 C.2    64  ASN64       0.2266
     39  O        -10.3560    2.0040    4.5700 O.2    64  ASN64      -0.2867
     40  CB        -8.5230    2.5490    6.9390 C.3    64  ASN64       0.1155
     41  CG        -7.2970    2.2850    7.7700 C.2    64  ASN64       0.2627
     42  OD1       -6.2160    2.7680    7.4560 O.2    64  ASN64      -0.2716
     43  ND2       -7.4540    1.5450    8.8300 N.am   64  ASN64      -0.0877
     44  N        -12.7550    6.3050   11.3190 N.3    89  GLN89      -0.1245
     45  CA       -12.4660    5.1320   10.5010 C.3    89  GLN89       0.1566
     46  C        -12.7500    3.8660   11.2950 C.2    89  GLN89       0.2260
     47  O        -12.8400    3.8960   12.5200 O.2    89  GLN89      -0.2867
     48  CB       -11.0120    5.0620   10.0330 C.3    89  GLN89       0.0367
     49  CG       -10.0000    5.2840   11.1550 C.3    89  GLN89       0.0905
     50  CD        -9.0360    4.1170   11.2910 C.2    89  GLN89       0.2608
     51  OE1       -9.3480    3.0010   10.8800 O.2    89  GLN89      -0.2717
     52  NE2       -7.8300    4.3890   11.7660 N.am   89  GLN89      -0.0878
     53  N        -11.3000   -0.4790   11.0470 N.3    91  HIS91      -0.1241
     54  CA       -10.3860   -1.4060   10.3990 C.3    91  HIS91       0.1621
     55  C        -10.4630   -2.7300   11.1430 C.2    91  HIS91       0.2264
     56  O        -11.1430   -2.8480   12.1570 O.2    91  HIS91      -0.2867
     57  CB        -8.9410   -0.8980   10.4100 C.3    91  HIS91       0.0745
     58  CG        -8.4380   -0.5970   11.7860 C.ar   91  HIS91       0.0817
     59  ND1       -8.5800    0.6390   12.3750 N.ar   91  HIS91      -0.2268
     60  CD2       -7.8870   -1.4010   12.7280 C.ar   91  HIS91       0.1154
     61  CE1       -8.0940    0.5970   13.6080 C.ar   91  HIS91       0.1986
     62  NE2       -7.6490   -0.6260   13.8360 N.ar   91  HIS91      -0.2212
     63  N         -8.1730   -6.4570   12.4130 N.3    93  HIS93      -0.1241
     64  CA        -6.9740   -7.2500   12.6410 C.3    93  HIS93       0.1621
     65  C         -7.4000   -8.6980   12.4890 C.2    93  HIS93       0.2264
     66  O         -8.4540   -9.0740   12.9990 O.2    93  HIS93      -0.2867
     67  CB        -6.4510   -7.0290   14.0570 C.3    93  HIS93       0.0745
     68  CG        -6.0870   -5.5990   14.3420 C.ar   93  HIS93       0.0817
     69  ND1       -4.8380   -5.0810   14.0550 N.ar   93  HIS93      -0.2268
     70  CD2       -6.8280   -4.5510   14.7840 C.ar   93  HIS93       0.1154
     71  CE1       -4.7980   -3.7980   14.3740 C.ar   93  HIS93       0.1986
     72  NE2       -5.9990   -3.4440   14.7950 N.ar   93  HIS93      -0.2212
     73  N        -12.2290   -2.6550   14.8930 N.3   116  HIS116     -0.1241
     74  CA       -11.8370   -1.4720   15.6550 C.3   116  HIS116      0.1621
     75  C        -12.5000   -0.2670   15.0100 C.2   116  HIS116      0.2264
     76  O        -12.1560    0.0880   13.8770 O.2   116  HIS116     -0.2867
     77  CB       -10.3110   -1.3880   15.6030 C.3   116  HIS116      0.0745
     78  CG        -9.6290   -2.3470   16.5500 C.ar  116  HIS116      0.0817
     79  ND1       -8.3130   -2.2090   16.9490 N.ar  116  HIS116     -0.2268
     80  CD2      -10.1590   -3.2800   17.3860 C.ar  116  HIS116      0.1154
     81  CE1       -8.0090   -3.1440   17.8360 C.ar  116  HIS116      0.1986
     82  NE2       -9.1230   -3.7880   18.1470 N.ar  116  HIS116     -0.2212
     83  N        -12.8500    3.5980   15.3650 N.3   118  VAL118     -0.1245
     84  CA       -12.0360    4.6430   15.9990 C.3   118  VAL118      0.1561
     85  C        -12.8270    5.9480   16.0210 C.2   118  VAL118      0.2260
     86  O        -13.3160    6.4010   14.9750 O.2   118  VAL118     -0.2867
     87  CB       -10.7000    4.8370   15.2550 C.3   118  VAL118      0.0252
     88  CG1       -9.8320    5.8670   15.9670 C.3   118  VAL118      0.0019
     89  CG2       -9.9590    3.5160   15.0920 C.3   118  VAL118      0.0019
     90  N         -8.3640   15.2510   14.8930 N.3   127  PHE127     -0.1227
     91  CA        -7.7990   13.9680   15.3020 C.3   127  PHE127      0.1736
     92  C         -6.3470   14.1070   15.7370 C.2   127  PHE127      0.2596
     93  O         -5.9290   13.4880   16.7280 O.2   127  PHE127     -0.2718
     94  CB        -7.9250   12.9630   14.1600 C.3   127  PHE127      0.0547
     95  CG        -7.3470   11.6150   14.4630 C.ar  127  PHE127     -0.0202
     96  CD1       -8.0920   10.6570   15.1290 C.ar  127  PHE127     -0.0042
     97  CD2       -6.0580   11.2960   14.0650 C.ar  127  PHE127     -0.0042
     98  CE1       -7.5550    9.3970   15.4040 C.ar  127  PHE127     -0.0003
     99  CE2       -5.5170   10.0430   14.3380 C.ar  127  PHE127     -0.0003
    100  CZ        -6.2750    9.0940   15.0090 C.ar  127  PHE127     -0.0000
    101  N         -5.5570   14.9110   15.0130 N.am  128  GLY128     -0.1957
    102  CA        -4.1530   15.0730   15.3730 C.3   128  GLY128      0.1869
    103  C         -3.9520   15.6200   16.7770 C.2   128  GLY128      0.2309
    104  O         -3.0210   15.2230   17.4770 O.2   128  GLY128     -0.2863
    105  N         -5.0700   12.7550   19.6720 N.3   131  VAL131     -0.1231
    106  CA        -4.1630   11.6570   20.0110 C.3   131  VAL131      0.1692
    107  C         -3.0810   12.0780   20.9950 C.2   131  VAL131      0.2591
    108  O         -2.3880   11.2210   21.5450 O.2   131  VAL131     -0.2718
    109  CB        -3.4880   11.0240   18.7690 C.3   131  VAL131      0.0266
    110  CG1       -4.5330   10.3930   17.8440 C.3   131  VAL131      0.0020
    111  CG2       -2.6360   12.0240   18.0360 C.3   131  VAL131      0.0020
    112  N         -2.9370   13.3680   21.2530 N.am  132  GLN132     -0.1979
    113  CA        -1.9840   13.8420   22.2370 C.3   132  GLN132      0.1601
    114  C         -2.5910   13.9550   23.6310 C.2   132  GLN132      0.2287
    115  O         -1.9350   14.4720   24.5410 O.2   132  GLN132     -0.2864
    116  CB        -1.4200   15.1840   21.7720 C.3   132  GLN132      0.0394
    117  CG        -0.6860   15.0570   20.4470 C.3   132  GLN132      0.0908
    118  CD        -0.1200   16.3740   19.9410 C.2   132  GLN132      0.2608
    119  OE1       -0.5640   17.4530   20.3380 O.2   132  GLN132     -0.2717
    120  NE2        0.8580   16.2880   19.0450 N.am  132  GLN132     -0.0878
    121  N        -12.0910    3.7680   21.1940 N.3   139  VAL139     -0.1245
    122  CA       -12.1290    2.7400   20.1630 C.3   139  VAL139      0.1561
    123  C        -13.0920    1.6600   20.6290 C.2   139  VAL139      0.2260
    124  O        -12.9630    1.1410   21.7470 O.2   139  VAL139     -0.2867
    125  CB       -10.7370    2.1470   19.8680 C.3   139  VAL139      0.0252
    126  CG1      -10.8260    1.0890   18.7410 C.3   139  VAL139      0.0019
    127  CG2       -9.7440    3.2400   19.5060 C.3   139  VAL139      0.0019
    128  N         -4.0540    2.2010   24.7480 N.3   193  SER193     -0.1202
    129  CA        -3.2180    2.8650   23.7520 C.3   193  SER193      0.2020
    130  C         -3.6450    2.4460   22.3450 C.2   193  SER193      0.2619
    131  O         -4.4480    1.5330   22.1700 O.2   193  SER193     -0.2717
    132  CB        -1.7400    2.5170   23.9540 C.3   193  SER193      0.2103
    133  OG        -1.4730    1.1490   23.6300 O.3   193  SER193     -0.2182
    134  N         -3.0840    3.1110   21.3300 N.am  194  LEU194     -0.1965
    135  CA        -3.1160    2.5300   19.9870 C.3   194  LEU194      0.1728
    136  C         -2.3340    1.2180   19.9920 C.2   194  LEU194      0.2617
    137  O         -1.3650    1.0650   20.7390 O.2   194  LEU194     -0.2715
    138  CB        -2.4790    3.4900   18.9800 C.3   194  LEU194      0.0311
    139  CG        -3.1020    4.8860   18.8580 C.3   194  LEU194      0.0022
    140  CD1       -2.2550    5.7770   17.9420 C.3   194  LEU194      0.0001
    141  CD2       -4.5430    4.7870   18.3660 C.3   194  LEU194      0.0001
    142  N         -2.7280    0.2670   19.1390 N.am  195  THR195     -0.1937
    143  CA        -2.0120   -1.0030   19.0970 C.3   195  THR195      0.2028
    144  C         -1.0470   -1.0910   17.9350 C.2   195  THR195      0.2643
    145  O         -0.4540   -2.1580   17.7220 O.2   195  THR195     -0.2714
    146  CB        -2.9670   -2.1990   19.0270 C.3   195  THR195      0.1808
    147  OG1       -3.6600   -2.1810   17.7730 O.3   195  THR195     -0.2208
    148  CG2       -3.9600   -2.1710   20.2000 C.3   195  THR195      0.0379
    149  N         -0.9140   -0.0260   17.1520 N.am  196  THR196     -0.1937
    150  CA         0.1450    0.0960   16.1690 C.3   196  THR196      0.2013
    151  C          0.9440    1.3420   16.5010 C.2   196  THR196      0.2484
    152  O          0.4340    2.2530   17.1690 O.2   196  THR196     -0.2729
    153  CB        -0.3980    0.2220   14.7380 C.3   196  THR196      0.1807
    154  OG1       -1.1450    1.4460   14.6200 O.3   196  THR196     -0.2208
    155  CG2       -1.2890   -0.9720   14.4080 C.3   196  THR196      0.0379
    156  N          2.2040    1.4280   16.0370 N.am  197  PRO197     -0.2715
    157  CA         2.9210    2.7010   16.1630 C.3   197  PRO197      0.1521
    158  C          2.0770    3.8470   15.6240 C.2   197  PRO197      0.2440
    159  O          1.3830    3.6630   14.6160 O.2   197  PRO197     -0.2731
    160  CB         4.1840    2.4630   15.3330 C.3   197  PRO197      0.0310
    161  CG         4.4300    1.0010   15.4850 C.3   197  PRO197      0.0237
    162  CD         3.0440    0.3840   15.4200 C.3   197  PRO197      0.0939
    163  N          2.1280    5.0200   16.2720 N.am  198  PRO198     -0.2727
    164  CA         3.0700    5.4040   17.3350 C.3   198  PRO198      0.1402
    165  C          2.6930    4.9810   18.7750 C.2   198  PRO198      0.2269
    166  O          3.3610    5.4310   19.7070 O.2   198  PRO198     -0.2865
    167  CB         3.1010    6.9330   17.2210 C.3   198  PRO198      0.0296
    168  CG         1.7050    7.2910   16.7510 C.3   198  PRO198      0.0237
    169  CD         1.2990    6.1540   15.8210 C.3   198  PRO198      0.0939
    170  N          0.4470    5.6140   20.9500 N.3   200  LEU200     -0.1245
    171  CA         0.1320    6.6750   21.8980 C.3   200  LEU200      0.1561
    172  C         -0.8960    6.2050   22.9210 C.2   200  LEU200      0.2260
    173  O         -1.8470    5.4850   22.5990 O.2   200  LEU200     -0.2867
    174  CB        -0.3940    7.9010   21.1480 C.3   200  LEU200      0.0270
    175  CG         0.6490    8.5100   20.1890 C.3   200  LEU200      0.0019
    176  CD1        0.0470    9.6160   19.3260 C.3   200  LEU200      0.0001
    177  CD2        1.8290    9.0340   20.9700 C.3   200  LEU200      0.0001
    178  N        -10.5650    2.2410   25.8010 N.3   205  TRP205     -0.1241
    179  CA       -11.0280    1.0570   25.0910 C.3   205  TRP205      0.1605
    180  C        -12.4040    0.6160   25.5810 C.2   205  TRP205      0.2264
    181  O        -12.6600    0.5390   26.7890 O.2   205  TRP205     -0.2867
    182  CB       -10.0250   -0.0850   25.2300 C.3   205  TRP205      0.0550
    183  CG        -8.9050    0.0240   24.2420 C.ar  205  TRP205      0.0003
    184  CD1       -7.6750    0.5780   24.4400 C.ar  205  TRP205      0.0946
    185  CD2       -8.9390   -0.4140   22.8810 C.ar  205  TRP205      0.0152
    186  NE1       -6.9420    0.5230   23.2770 N.ar  205  TRP205     -0.2442
    187  CE2       -7.6860   -0.1030   22.3110 C.ar  205  TRP205      0.0810
    188  CE3       -9.9120   -1.0280   22.0860 C.ar  205  TRP205      0.0012
    189  CZ2       -7.3780   -0.3900   20.9720 C.ar  205  TRP205      0.0191
    190  CZ3       -9.6030   -1.3290   20.7690 C.ar  205  TRP205      0.0001
    191  CH2       -8.3480   -1.0040   20.2240 C.ar  205  TRP205      0.0015
@<TRIPOS>BOND
     1    13    14    1
     2    14    15    1
     3    14    17    1
     4    15    16    2
     5    39    38    2
     6    17    18    1
     7    34    33    2
     8    38    37    1
     9    36    37    1
    10    33    32    1
    11    21    22    1
    12    18    19    2
    13    18    20   am
    14    37    40    1
    15    40    41    1
    16    31    32    1
    17    31    23   am
    18    32    35    1
    19    42    41    2
    20    22    23    1
    21    22    25    1
    22    41    43   am
    23    23    24    2
    24    30    29   ar
    25    30    28   ar
    26    29    27   ar
    27    28    26   ar
    28    27    26   ar
    29    26    25    1
    30    48    45    1
    31    48    49    1
    32    54    57    1
    33    54    53    1
    34    54    55    1
    35    57    58    1
    36    45    46    1
    37    45    44    1
    38     1     2    1
    39    51    50    2
    40    55    56    2
    41     8    10   ar
    42     8     6   ar
    43    49    50    1
    44    50    52   am
    45     3     2    1
    46     3     4    2
    47    46    47    2
    48     5     2    1
    49     5     6    1
    50    10    11   ar
    51    58    59   ar
    52    58    60   ar
    53     6     7   ar
    54    59    61   ar
    55    63    64    1
    56    65    64    1
    57    65    66    2
    58    64    67    1
    59    60    62   ar
    60    11    12    1
    61    11     9   ar
    62     7     9   ar
    63    61    62   ar
    64    76    75    2
    65    69    68   ar
    66    69    71   ar
    67    67    68    1
    68    97    99   ar
    69    97    95   ar
    70    94    95    1
    71    94    91    1
    72    99   100   ar
    73    68    70   ar
    74    71    72   ar
    75   155   153    1
    76    95    96   ar
    77   159   158    2
    78   154   153    1
    79   153   150    1
    80    70    72   ar
    81    73    74    1
    82    90    91    1
    83    86    85    2
    84   100    98   ar
    85    75    74    1
    86   101   102    1
    87   101    92   am
    88    89    87    1
    89    96    98   ar
    90    87    88    1
    91    87    84    1
    92    91    92    1
    93   160   161    1
    94   160   157    1
    95    83    84    1
    96   102   103    1
    97   162   161    1
    98   162   156    1
    99    77    74    1
   100    77    78    1
   101   158   157    1
   102   158   163   am
   103    92    93    2
   104   169   163    1
   105   169   168    1
   106    84    85    1
   107   156   157    1
   108   156   151   am
   109   150   151    1
   110   150   149    1
   111   163   164    1
   112   151   152    2
   113    78    79   ar
   114    78    80   ar
   115   168   167    1
   116   103   104    2
   117    79    81   ar
   118   149   144   am
   119   167   164    1
   120   164   165    1
   121    80    82   ar
   122   145   144    2
   123   147   146    1
   124    81    82   ar
   125   110   109    1
   126   144   143    1
   127   140   139    1
   128   111   109    1
   129   141   139    1
   130   126   125    1
   131   109   106    1
   132   165   166    2
   133   139   138    1
   134   138   135    1
   135   146   143    1
   136   146   148    1
   137   120   118   am
   138   143   142    1
   139   142   136   am
   140   176   175    1
   141   127   125    1
   142   105   106    1
   143   125   122    1
   144   118   119    2
   145   118   117    1
   146   135   136    1
   147   135   134    1
   148   136   137    2
   149   106   107    1
   150   122   123    1
   151   122   121    1
   152   175   177    1
   153   175   174    1
   154   191   190   ar
   155   191   189   ar
   156   117   116    1
   157   123   124    2
   158   190   188   ar
   159   170   171    1
   160   189   187   ar
   161   107   112   am
   162   107   108    2
   163   174   171    1
   164   112   113    1
   165   134   130   am
   166   116   113    1
   167   171   172    1
   168   188   185   ar
   169   131   130    2
   170   113   114    1
   171   187   185   ar
   172   187   186   ar
   173   130   129    1
   174   173   172    2
   175   185   183   ar
   176   186   184   ar
   177   133   132    1
   178   114   115    2
   179   129   132    1
   180   129   128    1
   181   183   184   ar
   182   183   182    1
   183   179   182    1
   184   179   180    1
   185   179   178    1
   186   180   181    2
