@<TRIPOS>MOLECULE
tmp/6eddB01.pdb
 225 223 0 0 0
SMALL
GASTEIGER

@<TRIPOS>ATOM
      1  N         21.7630    9.6840   13.0960 N.3    18  ARG18      -0.1245
      2  CA        22.7400    8.9090   13.8600 C.3    18  ARG18       0.1563
      3  C         22.4070    8.8550   15.3500 C.2    18  ARG18       0.2260
      4  O         22.7580    7.8590   15.9920 O.2    18  ARG18      -0.2867
      5  CB        24.1470    9.4770   13.6670 C.3    18  ARG18       0.0307
      6  CG        24.5950    9.4110   12.2160 C.3    18  ARG18       0.0489
      7  CD        25.9140   10.1210   12.0370 C.3    18  ARG18       0.2205
      8  NE        25.7510   11.5540   12.1780 N.pl3  18  ARG18      -0.0865
      9  CZ        26.7570   12.4210   12.2140 C.cat  18  ARG18       0.5346
     10  NH1       28.0160   11.9990   12.1250 N.pl3  18  ARG18       0.1354
     11  NH2       26.4970   13.7220   12.3040 N.pl3  18  ARG18       0.1354
     12  N         40.0670   19.0180   28.8100 N.3    39  GLN39      -0.1231
     13  CA        39.7780   19.4690   27.4530 C.3    39  GLN39       0.1698
     14  C         38.2700   19.7100   27.2810 C.2    39  GLN39       0.2592
     15  O         37.8660   20.6430   26.6040 O.2    39  GLN39      -0.2718
     16  CB        40.3290   18.5060   26.4020 C.3    39  GLN39       0.0381
     17  CG        41.7770   18.8370   26.0250 C.3    39  GLN39       0.0905
     18  CD        42.7490   18.7540   27.1750 C.2    39  GLN39       0.2608
     19  OE1       43.0670   17.6660   27.6500 O.2    39  GLN39      -0.2717
     20  NE2       43.2470   19.9030   27.6090 N.am   39  GLN39      -0.0878
     21  N         37.4410   18.8820   27.9150 N.am   40  VAL40      -0.1980
     22  CA        35.9840   19.1360   27.9110 C.3    40  VAL40       0.1595
     23  C         35.6560   20.4360   28.6810 C.2    40  VAL40       0.2287
     24  O         34.8090   21.2380   28.2800 O.2    40  VAL40      -0.2864
     25  CB        35.1860   17.9480   28.4890 C.3    40  VAL40       0.0276
     26  CG1       33.6940   18.2510   28.6060 C.3    40  VAL40       0.0022
     27  CG2       35.4030   16.6670   27.7040 C.3    40  VAL40       0.0022
     28  N         36.7070   25.7500   29.0520 N.3    43  PHE43      -0.1227
     29  CA        36.1230   27.1090   29.1040 C.3    43  PHE43       0.1736
     30  C         35.0880   27.2360   30.2310 C.2    43  PHE43       0.2595
     31  O         34.2090   28.1050   30.1640 O.2    43  PHE43      -0.2718
     32  CB        35.5800   27.4660   27.7200 C.3    43  PHE43       0.0547
     33  CG        36.6410   27.3910   26.6540 C.ar   43  PHE43      -0.0202
     34  CD1       37.6740   28.3150   26.6210 C.ar   43  PHE43      -0.0042
     35  CD2       36.6770   26.3250   25.7640 C.ar   43  PHE43      -0.0042
     36  CE1       38.6790   28.2180   25.6730 C.ar   43  PHE43      -0.0003
     37  CE2       37.6810   26.2380   24.8130 C.ar   43  PHE43      -0.0003
     38  CZ        38.6880   27.1720   24.7800 C.ar   43  PHE43      -0.0000
     39  N         35.1740   26.3370   31.2210 N.am   44  PHE44      -0.1976
     40  CA        34.4150   26.4240   32.4700 C.3    44  PHE44       0.1639
     41  C         35.3890   26.7510   33.5980 C.2    44  PHE44       0.2290
     42  O         36.5970   26.6030   33.4380 O.2    44  PHE44      -0.2864
     43  CB        33.6640   25.1210   32.7520 C.3    44  PHE44       0.0560
     44  CG        32.7990   24.6250   31.6200 C.ar   44  PHE44      -0.0200
     45  CD1       31.9940   25.4940   30.8990 C.ar   44  PHE44      -0.0042
     46  CD2       32.8230   23.2950   31.2470 C.ar   44  PHE44      -0.0042
     47  CE1       31.2100   25.0270   29.8540 C.ar   44  PHE44      -0.0003
     48  CE2       32.0510   22.8300   30.1930 C.ar   44  PHE44      -0.0003
     49  CZ        31.2470   23.6990   29.4980 C.ar   44  PHE44      -0.0000
     50  N         22.2220   23.9160   25.0990 N.3   104  GLY104     -0.1210
     51  CA        23.6470   23.6610   25.3690 C.3   104  GLY104      0.1956
     52  C         24.0320   22.2410   25.0050 C.2   104  GLY104      0.2612
     53  O         23.1950   21.3930   24.7250 O.2   104  GLY104     -0.2717
     54  N         25.3350   21.9730   25.0520 N.am  105  TRP105     -0.1962
     55  CA        25.8950   20.7470   24.5100 C.3   105  TRP105      0.1771
     56  C         27.2470   20.4810   25.1510 C.2   105  TRP105      0.2619
     57  O         27.9860   21.4130   25.4280 O.2   105  TRP105     -0.2715
     58  CB        26.0840   20.8310   22.9900 C.3   105  TRP105      0.0590
     59  CG        26.4910   22.1830   22.4880 C.ar  105  TRP105      0.0006
     60  CD1       27.7260   22.7480   22.5950 C.ar  105  TRP105      0.0946
     61  CD2       25.6570   23.1770   21.8550 C.ar  105  TRP105      0.0152
     62  NE1       27.7210   24.0190   22.0710 N.ar  105  TRP105     -0.2442
     63  CE2       26.4710   24.2920   21.5860 C.ar  105  TRP105      0.0810
     64  CE3       24.3090   23.2400   21.4770 C.ar  105  TRP105      0.0012
     65  CZ2       25.9830   25.4600   20.9980 C.ar  105  TRP105      0.0191
     66  CZ3       23.8320   24.3790   20.8590 C.ar  105  TRP105      0.0001
     67  CH2       24.6610   25.4700   20.6100 C.ar  105  TRP105      0.0015
     68  N         27.5180   19.2000   25.3690 N.am  106  ARG106     -0.1963
     69  CA        28.8140   18.7460   25.8260 C.3   106  ARG106      0.1729
     70  C         29.0570   17.3450   25.2550 C.2   106  ARG106      0.2616
     71  O         28.2710   16.4340   25.5210 O.2   106  ARG106     -0.2715
     72  CB        28.8450   18.7050   27.3520 C.3   106  ARG106      0.0348
     73  CG        28.9700   20.0620   28.0190 C.3   106  ARG106      0.0492
     74  CD        29.4910   19.9340   29.4490 C.3   106  ARG106      0.2205
     75  NE        28.9370   20.9940   30.2600 N.pl3 106  ARG106     -0.0865
     76  CZ        28.9660   21.0350   31.5850 C.cat 106  ARG106      0.5346
     77  NH1       29.6220   20.1150   32.2780 N.pl3 106  ARG106      0.1354
     78  NH2       28.3620   22.0320   32.2010 N.pl3 106  ARG106      0.1354
     79  N         30.1280   17.1680   24.4810 N.am  107  LEU107     -0.1977
     80  CA        30.4320   15.8840   23.8760 C.3   107  LEU107      0.1596
     81  C         31.7870   15.3990   24.3780 C.2   107  LEU107      0.2287
     82  O         32.6790   16.1910   24.6090 O.2   107  LEU107     -0.2864
     83  CB        30.4480   16.0110   22.3440 C.3   107  LEU107      0.0297
     84  CG        29.1210   15.6780   21.6630 C.3   107  LEU107      0.0022
     85  CD1       28.0100   16.6270   22.1000 C.3   107  LEU107      0.0001
     86  CD2       29.2620   15.6740   20.1440 C.3   107  LEU107      0.0001
     87  N         34.3600   12.2480   20.0220 N.3   111  TYR111     -0.1227
     88  CA        33.2100   12.4070   19.1300 C.3   111  TYR111      0.1736
     89  C         33.1670   13.7970   18.4760 C.2   111  TYR111      0.2595
     90  O         32.2720   14.0390   17.6740 O.2   111  TYR111     -0.2718
     91  CB        31.9240   12.0760   19.8860 C.3   111  TYR111      0.0548
     92  CG        31.9130   10.6390   20.3140 C.ar  111  TYR111     -0.0200
     93  CD1       31.5950    9.6370   19.4250 C.ar  111  TYR111     -0.0009
     94  CD2       32.3220   10.2770   21.5860 C.ar  111  TYR111     -0.0009
     95  CE1       31.6510    8.3050   19.7850 C.ar  111  TYR111      0.0417
     96  CE2       32.3790    8.9520   21.9730 C.ar  111  TYR111      0.0417
     97  CZ        32.0110    7.9680   21.0820 C.ar  111  TYR111      0.1957
     98  OH        32.0900    6.6700   21.4890 O.3   111  TYR111     -0.2866
     99  N         34.1460   14.6660   18.7580 N.am  112  TRP112     -0.1962
    100  CA        34.1900   16.0050   18.1160 C.3   112  TRP112      0.1771
    101  C         34.5850   15.8400   16.6450 C.2   112  TRP112      0.2620
    102  O         35.2780   14.9190   16.2690 O.2   112  TRP112     -0.2715
    103  CB        35.1820   16.9580   18.8070 C.3   112  TRP112      0.0590
    104  CG        34.9350   17.2670   20.2570 C.ar  112  TRP112      0.0006
    105  CD1       33.9110   16.8370   21.0570 C.ar  112  TRP112      0.0946
    106  CD2       35.7550   18.1130   21.0810 C.ar  112  TRP112      0.0152
    107  NE1       34.0720   17.3270   22.3320 N.ar  112  TRP112     -0.2442
    108  CE2       35.1920   18.1170   22.3730 C.ar  112  TRP112      0.0810
    109  CE3       36.9350   18.8340   20.8540 C.ar  112  TRP112      0.0012
    110  CZ2       35.7510   18.8600   23.4170 C.ar  112  TRP112      0.0191
    111  CZ3       37.4910   19.5550   21.8900 C.ar  112  TRP112      0.0001
    112  CH2       36.9090   19.5600   23.1570 C.ar  112  TRP112      0.0015
    113  N         34.1790   16.8060   15.8300 N.am  113  GLY113     -0.1940
    114  CA        34.5680   16.8790   14.4160 C.3   113  GLY113      0.2014
    115  C         33.7940   15.9670   13.4970 C.2   113  GLY113      0.2639
    116  O         34.2570   15.7250   12.3850 O.2   113  GLY113     -0.2714
    117  N         32.5910   15.5270   13.8990 N.am  114  ARG114     -0.1963
    118  CA        31.7810   14.5630   13.1660 C.3   114  ARG114      0.1729
    119  C         30.3890   15.1310   12.8750 C.2   114  ARG114      0.2617
    120  O         29.5300   14.4500   12.3680 O.2   114  ARG114     -0.2715
    121  CB        31.6240   13.2780   13.9950 C.3   114  ARG114      0.0348
    122  CG        32.9090   12.4680   14.1020 C.3   114  ARG114      0.0492
    123  CD        32.7110   11.1470   14.8400 C.3   114  ARG114      0.2205
    124  NE        31.6550   10.3170   14.3000 N.pl3 114  ARG114     -0.0865
    125  CZ        31.2740    9.1580   14.8350 C.cat 114  ARG114      0.5346
    126  NH1       31.9340    8.6510   15.8700 N.pl3 114  ARG114      0.1354
    127  NH2       30.2110    8.5340   14.3640 N.pl3 114  ARG114      0.1354
    128  N         30.1610   16.4050   13.2030 N.am  115  GLY115     -0.1940
    129  CA        28.8380   16.9790   13.0640 C.3   115  GLY115      0.2014
    130  C         27.8010   16.4150   14.0070 C.2   115  GLY115      0.2639
    131  O         26.5840   16.5580   13.7520 O.2   115  GLY115     -0.2714
    132  N         28.2270   15.7740   15.0870 N.am  116  LEU116     -0.1963
    133  CA        27.2900   15.0980   16.0220 C.3   116  LEU116      0.1728
    134  C         26.6210   16.1240   16.9410 C.2   116  LEU116      0.2616
    135  O         25.4210   16.0000   17.2230 O.2   116  LEU116     -0.2715
    136  CB        28.0420   14.0130   16.8020 C.3   116  LEU116      0.0311
    137  CG        28.3410   12.7470   16.0060 C.3   116  LEU116      0.0022
    138  CD1       29.2550   11.8010   16.7540 C.3   116  LEU116      0.0001
    139  CD2       27.0710   12.0090   15.6540 C.3   116  LEU116      0.0001
    140  N         27.3460   17.1060   17.4550 N.am  117  ALA117     -0.1963
    141  CA        26.7360   18.2010   18.2420 C.3   117  ALA117      0.1728
    142  C         25.7660   18.9970   17.3540 C.2   117  ALA117      0.2616
    143  O         24.6130   19.3020   17.7240 O.2   117  ALA117     -0.2715
    144  CB        27.8060   19.0810   18.8340 C.3   117  ALA117      0.0334
    145  N         26.1710   19.2210   16.1070 N.am  118  ARG118     -0.1977
    146  CA        25.3070   19.8870   15.1210 C.3   118  ARG118      0.1597
    147  C         23.9860   19.1180   14.9960 C.2   118  ARG118      0.2287
    148  O         22.9060   19.7040   15.0680 O.2   118  ARG118     -0.2864
    149  CB        26.0050   19.9500   13.7640 C.3   118  ARG118      0.0334
    150  CG        25.1480   20.5240   12.6430 C.3   118  ARG118      0.0492
    151  CD        24.7570   21.9670   12.8330 C.3   118  ARG118      0.2205
    152  NE        24.1600   22.5510   11.6290 N.pl3 118  ARG118     -0.0865
    153  CZ        24.8210   22.9800   10.5690 C.cat 118  ARG118      0.5346
    154  NH1       26.1450   22.9610   10.5400 N.pl3 118  ARG118      0.1354
    155  NH2       24.1430   23.4070    9.5140 N.pl3 118  ARG118      0.1354
    156  N         24.6510   30.7690   25.0640 N.3   140  PHE140     -0.1227
    157  CA        25.7040   31.7040   25.4630 C.3   140  PHE140      0.1736
    158  C         26.9580   30.9520   25.8780 C.2   140  PHE140      0.2596
    159  O         26.8990   29.8090   26.3510 O.2   140  PHE140     -0.2718
    160  CB        25.2240   32.6390   26.5720 C.3   140  PHE140      0.0547
    161  CG        24.4290   31.9840   27.6700 C.ar  140  PHE140     -0.0202
    162  CD1       23.0590   31.7830   27.5490 C.ar  140  PHE140     -0.0042
    163  CD2       25.0480   31.6080   28.8440 C.ar  140  PHE140     -0.0042
    164  CE1       22.3330   31.1950   28.5690 C.ar  140  PHE140     -0.0003
    165  CE2       24.3220   31.0100   29.8570 C.ar  140  PHE140     -0.0003
    166  CZ        22.9690   30.8130   29.7200 C.ar  140  PHE140     -0.0000
    167  N         28.0900   31.6210   25.6570 N.am  141  THR141     -0.1953
    168  CA        29.4260   31.0850   25.9280 C.3   141  THR141      0.1897
    169  C         30.4040   32.2530   26.0690 C.2   141  THR141      0.2313
    170  O         30.0140   33.4160   26.0490 O.2   141  THR141     -0.2863
    171  CB        29.8450   30.1080   24.8180 C.3   141  THR141      0.1794
    172  OG1       31.0070   29.3950   25.2620 O.3   141  THR141     -0.2208
    173  CG2       30.0570   30.8150   23.4980 C.3   141  THR141      0.0378
    174  N         35.7420   30.2540   23.5020 N.3   145  ASN145     -0.1240
    175  CA        35.1460   28.9540   23.1960 C.3   145  ASN145      0.1653
    176  C         34.5680   28.9400   21.7760 C.2   145  ASN145      0.2266
    177  O         33.3640   28.8110   21.5650 O.2   145  ASN145     -0.2867
    178  CB        34.1030   28.5810   24.2470 C.3   145  ASN145      0.1155
    179  CG        33.7540   27.1110   24.2050 C.2   145  ASN145      0.2627
    180  OD1       34.1770   26.4010   23.2910 O.2   145  ASN145     -0.2716
    181  ND2       32.9920   26.6510   25.2030 N.am  145  ASN145     -0.0877
    182  N         34.7190   26.7390   19.3920 N.3   147  ARG147     -0.1231
    183  CA        34.0440   25.5140   18.9690 C.3   147  ARG147      0.1694
    184  C         32.5560   25.6600   19.3070 C.2   147  ARG147      0.2592
    185  O         31.7390   25.2060   18.5640 O.2   147  ARG147     -0.2718
    186  CB        34.6270   24.2320   19.5940 C.3   147  ARG147      0.0321
    187  CG        35.8300   23.6730   18.8420 C.3   147  ARG147      0.0489
    188  CD        36.0350   22.1810   19.0750 C.3   147  ARG147      0.2205
    189  NE        37.1340   21.5640   18.3360 N.pl3 147  ARG147     -0.0865
    190  CZ        38.3990   21.5440   18.7370 C.cat 147  ARG147      0.5346
    191  NH1       38.7630   22.2230   19.8110 N.pl3 147  ARG147      0.1354
    192  NH2       39.3010   20.8390   18.0730 N.pl3 147  ARG147      0.1354
    193  N         32.2680   26.2790   20.4570 N.am  148  SER148     -0.1952
    194  CA        30.8960   26.3760   20.9090 C.3   148  SER148      0.1924
    195  C         30.1500   27.4710   20.1240 C.2   148  SER148      0.2314
    196  O         29.0780   27.1750   19.5760 O.2   148  SER148     -0.2863
    197  CB        30.7930   26.5790   22.4090 C.3   148  SER148      0.2116
    198  OG        29.4160   26.5470   22.7910 O.3   148  SER148     -0.2180
    199  N         29.5070   26.6150   16.4570 N.3   151  LEU151     -0.1231
    200  CA        28.3190   25.7840   16.2560 C.3   151  LEU151      0.1693
    201  C         27.0410   26.6240   16.3270 C.2   151  LEU151      0.2591
    202  O         26.1650   26.4470   15.4990 O.2   151  LEU151     -0.2718
    203  CB        28.2980   24.6540   17.2860 C.3   151  LEU151      0.0284
    204  CG        27.0390   23.8110   17.3230 C.3   151  LEU151      0.0019
    205  CD1       26.7270   23.2240   15.9590 C.3   151  LEU151      0.0001
    206  CD2       27.1880   22.6980   18.3430 C.3   151  LEU151      0.0001
    207  N         26.9390   27.5230   17.3210 N.am  152  MET152     -0.1979
    208  CA        25.7570   28.4030   17.4110 C.3   152  MET152      0.1605
    209  C         25.4980   29.0850   16.0660 C.2   152  MET152      0.2287
    210  O         24.3760   29.0970   15.5700 O.2   152  MET152     -0.2864
    211  CB        25.9410   29.4580   18.4970 C.3   152  MET152      0.0413
    212  CG        26.0400   28.8720   19.8680 C.3   152  MET152      0.0598
    213  SD        26.4650   30.1220   21.0840 S.3   152  MET152     -0.1393
    214  CE        26.9670   29.0540   22.4360 C.3   152  MET152      0.0692
    215  N         26.6130   28.3060   12.9880 N.3   154  ARG154     -0.1245
    216  CA        26.3700   27.3470   11.9010 C.3   154  ARG154      0.1563
    217  C         24.9130   26.8550   11.9410 C.2   154  ARG154      0.2260
    218  O         24.3400   26.6200   10.9080 O.2   154  ARG154     -0.2867
    219  CB        27.3920   26.2140   11.9430 C.3   154  ARG154      0.0307
    220  CG        28.8110   26.6960   11.6810 C.3   154  ARG154      0.0489
    221  CD        29.8020   25.5850   11.5140 C.3   154  ARG154      0.2205
    222  NE        29.8350   24.7030   12.6680 N.pl3 154  ARG154     -0.0865
    223  CZ        30.7330   24.7360   13.6420 C.cat 154  ARG154      0.5346
    224  NH1       31.5980   25.7380   13.7130 N.pl3 154  ARG154      0.1354
    225  NH2       30.7720   23.7430   14.5240 N.pl3 154  ARG154      0.1354
@<TRIPOS>BOND
     1   155   153    1
     2   154   153    1
     3   153   152    2
     4   218   217    2
     5   221   220    1
     6   221   222    1
     7   152   151    1
     8   220   219    1
     9   216   217    1
    10   216   219    1
    11   216   215    1
    12     7     8    1
    13     7     6    1
    14    10     9    1
    15     8     9    2
    16     9    11    1
    17     6     5    1
    18   120   119    2
    19   116   115    2
    20   150   151    1
    21   150   149    1
    22   222   223    2
    23   119   118    1
    24   119   128   am
    25   129   128    1
    26   129   130    1
    27     1     2    1
    28   118   117    1
    29   118   121    1
    30   115   117   am
    31   115   114    1
    32   223   224    1
    33   223   225    1
    34     5     2    1
    35   131   130    2
    36   149   146    1
    37     2     3    1
    38   121   122    1
    39   130   132   am
    40   122   123    1
    41   124   125    2
    42   124   123    1
    43   127   125    1
    44   114   113    1
    45   125   126    1
    46   147   148    2
    47   147   146    1
    48   132   133    1
    49   146   145    1
    50     3     4    2
    51   202   201    2
    52   210   209    2
    53   139   137    1
    54   113   101   am
    55   205   204    1
    56   137   138    1
    57   137   136    1
    58   133   136    1
    59   133   134    1
    60   209   208    1
    61   145   142   am
    62   200   201    1
    63   200   199    1
    64   200   203    1
    65   102   101    2
    66   201   207   am
    67   101   100    1
    68   134   135    2
    69   134   140   am
    70   203   204    1
    71   207   208    1
    72   204   206    1
    73   142   143    2
    74   142   141    1
    75   208   211    1
    76   140   141    1
    77    90    89    2
    78   192   190    1
    79   100    99    1
    80   100   103    1
    81   141   144    1
    82   189   190    2
    83   189   188    1
    84    89    99   am
    85    89    88    1
    86   211   212    1
    87   185   184    2
    88   190   191    1
    89   103   104    1
    90   187   188    1
    91   187   186    1
    92   183   184    1
    93   183   182    1
    94   183   186    1
    95    88    91    1
    96    88    87    1
    97   184   193   am
    98    93    95   ar
    99    93    92   ar
   100   196   195    2
   101    95    97   ar
   102   212   213    1
   103    91    92    1
   104   195   194    1
   105    86    84    1
   106   104   105   ar
   107   104   106   ar
   108    92    94   ar
   109   193   194    1
   110    67    66   ar
   111    67    65   ar
   112   109   106   ar
   113   109   111   ar
   114    66    64   ar
   115   194   197    1
   116    65    63   ar
   117   105   107   ar
   118   106   108   ar
   119    97    98    1
   120    97    96   ar
   121   213   214    1
   122    64    61   ar
   123   177   176    2
   124    63    61   ar
   125    63    62   ar
   126    94    96   ar
   127    84    85    1
   128    84    83    1
   129   176   175    1
   130    61    59   ar
   131   111   112   ar
   132    62    60   ar
   133   107   108   ar
   134    83    80    1
   135   108   110   ar
   136   197   198    1
   137    59    60   ar
   138    59    58    1
   139    58    55    1
   140   112   110   ar
   141   175   174    1
   142   175   178    1
   143   180   179    2
   144   173   171    1
   145    80    81    1
   146    80    79    1
   147   179   178    1
   148   179   181   am
   149    81    82    2
   150    79    70   am
   151    55    54    1
   152    55    56    1
   153    53    52    2
   154    38    37   ar
   155    38    36   ar
   156    37    35   ar
   157   171   172    1
   158   171   168    1
   159    52    54   am
   160    52    51    1
   161   156   157    1
   162    50    51    1
   163    56    68   am
   164    56    57    2
   165    70    71    2
   166    70    69    1
   167    68    69    1
   168   157   158    1
   169   157   160    1
   170   167   158   am
   171   167   168    1
   172    36    34   ar
   173    35    33   ar
   174    69    72    1
   175   158   159    2
   176   168   169    1
   177    17    16    1
   178    17    18    1
   179   170   169    2
   180    16    13    1
   181   160   161    1
   182    15    14    2
   183    34    33   ar
   184    33    32    1
   185    18    20   am
   186    18    19    2
   187    14    13    1
   188    14    21   am
   189    72    73    1
   190    13    12    1
   191   162   161   ar
   192   162   164   ar
   193   161   163   ar
   194    27    25    1
   195    32    29    1
   196    22    21    1
   197    22    25    1
   198    22    23    1
   199    73    74    1
   200    24    23    2
   201    25    26    1
   202   164   166   ar
   203   163   165   ar
   204    28    29    1
   205    29    30    1
   206    74    75    1
   207    49    47   ar
   208    49    48   ar
   209   166   165   ar
   210    47    45   ar
   211    31    30    2
   212    48    46   ar
   213    30    39   am
   214    75    76    2
   215    45    44   ar
   216    39    40    1
   217    46    44   ar
   218    76    78    1
   219    76    77    1
   220    44    43    1
   221    40    43    1
   222    40    41    1
   223    42    41    2
