@<TRIPOS>MOLECULE
tmp/6edgA00.pdb
 107 102 0 0 0
SMALL
GASTEIGER

@<TRIPOS>ATOM
      1  N        -11.2910   -1.8710  -13.1520 N.3    46  HIS46      -0.1226
      2  CA       -12.7080   -1.9370  -12.9930 C.3    46  HIS46       0.1752
      3  C        -13.0670   -3.3940  -12.6860 C.2    46  HIS46       0.2597
      4  O        -12.6890   -4.2970  -13.4570 O.2    46  HIS46      -0.2718
      5  CB       -13.4730   -1.4980  -14.2280 C.3    46  HIS46       0.0759
      6  CG       -14.9590   -1.5840  -14.0670 C.ar   46  HIS46       0.0818
      7  ND1      -15.6710   -0.6600  -13.3570 N.ar   46  HIS46      -0.2268
      8  CD2      -15.8870   -2.4000  -14.6220 C.ar   46  HIS46       0.1154
      9  CE1      -16.9750   -0.9470  -13.4330 C.ar   46  HIS46       0.1986
     10  NE2      -17.1360   -1.9960  -14.1930 N.ar   46  HIS46      -0.2212
     11  N        -13.6890   -3.6790  -11.5380 N.am   47  GLY47      -0.1942
     12  CA       -14.1710   -5.0260  -11.2250 C.3    47  GLY47       0.2014
     13  C        -15.6370   -5.1440  -11.4430 C.2    47  GLY47       0.2639
     14  O        -16.4610   -4.2760  -11.1990 O.2    47  GLY47      -0.2714
     15  N        -15.9760   -6.2460  -12.1730 N.am   48  THR48      -0.1950
     16  CA       -17.4130   -6.4770  -12.5190 C.3    48  THR48       0.1897
     17  C        -17.6980   -7.9560  -12.7290 C.2    48  THR48       0.2313
     18  O        -16.8240   -8.8040  -12.6300 O.2    48  THR48      -0.2863
     19  CB       -17.7880   -5.6240  -13.7020 C.3    48  THR48       0.1794
     20  OG1      -19.2490   -5.5420  -13.8100 O.3    48  THR48      -0.2208
     21  CG2      -17.1580   -6.0430  -14.9140 C.3    48  THR48       0.0378
     22  N        -17.1200    3.6340  -12.3560 N.3    76  TYR76      -0.1227
     23  CA       -16.2160    3.5990  -11.1840 C.3    76  TYR76       0.1736
     24  C        -15.0500    2.6710  -11.4270 C.2    76  TYR76       0.2595
     25  O        -15.2040    1.5380  -11.7830 O.2    76  TYR76      -0.2718
     26  CB       -17.0000    3.1570   -9.9620 C.3    76  TYR76       0.0548
     27  CG       -17.8750    4.1890   -9.3420 C.ar   76  TYR76      -0.0200
     28  CD1      -18.9510    4.7520  -10.0060 C.ar   76  TYR76      -0.0009
     29  CD2      -17.6600    4.6620   -7.9990 C.ar   76  TYR76      -0.0009
     30  CE1      -19.7610    5.7230   -9.3890 C.ar   76  TYR76       0.0417
     31  CE2      -18.4850    5.6030   -7.4580 C.ar   76  TYR76       0.0417
     32  CZ       -19.5230    6.0440   -8.0770 C.ar   76  TYR76       0.1957
     33  OH       -20.3520    7.0260   -7.4670 O.3    76  TYR76      -0.2866
     34  N        -13.8530    3.2480  -11.2240 N.am   77  ILE77      -0.1966
     35  CA       -12.6040    2.5180  -11.3620 C.3    77  ILE77       0.1727
     36  C        -11.6750    2.8290  -10.1780 C.2    77  ILE77       0.2616
     37  O        -12.0120    3.6880   -9.3560 O.2    77  ILE77      -0.2715
     38  CB       -11.8740    2.8430  -12.7130 C.3    77  ILE77       0.0290
     39  CG1      -11.3290    4.2160  -12.7750 C.3    77  ILE77       0.0022
     40  CG2      -12.9140    2.6110  -13.8530 C.3    77  ILE77       0.0023
     41  CD1      -10.5520    4.5160  -14.0700 C.3    77  ILE77       0.0001
     42  N        -10.5960    2.0850  -10.0630 N.am   78  ALA78      -0.1977
     43  CA        -9.6410    2.3690   -8.9710 C.3    78  ALA78       0.1597
     44  C         -8.2420    2.1250   -9.4160 C.2    78  ALA78       0.2287
     45  O         -7.9220    1.1050  -10.0190 O.2    78  ALA78      -0.2864
     46  CB       -10.0100    1.4280   -7.8740 C.3    78  ALA78       0.0319
     47  N         -9.2510   -2.3600   -4.4850 N.3    83  LEU83      -0.1231
     48  CA       -10.5130   -1.7120   -4.3320 C.3    83  LEU83       0.1693
     49  C        -11.4690   -2.2280   -5.3770 C.2    83  LEU83       0.2591
     50  O        -12.6150   -2.5870   -5.0580 O.2    83  LEU83      -0.2718
     51  CB       -10.3250   -0.1900   -4.3860 C.3    83  LEU83       0.0284
     52  CG       -11.5860    0.5910   -4.3260 C.3    83  LEU83       0.0019
     53  CD1      -12.3050    0.3490   -2.9810 C.3    83  LEU83       0.0001
     54  CD2      -11.3210    2.0920   -4.4700 C.3    83  LEU83       0.0001
     55  N        -11.0210   -2.3480   -6.6280 N.am   84  ALA84      -0.1980
     56  CA       -11.8490   -2.8880   -7.6600 C.3    84  ALA84       0.1597
     57  C        -12.2380   -4.3500   -7.4490 C.2    84  ALA84       0.2287
     58  O        -13.3510   -4.7420   -7.8280 O.2    84  ALA84      -0.2864
     59  CB       -11.1510   -2.7050   -9.0030 C.3    84  ALA84       0.0319
     60  N        -15.7060   -5.5970   -6.1450 N.3    87  TYR87      -0.1241
     61  CA       -16.8410   -5.4950   -7.0300 C.3    87  TYR87       0.1605
     62  C        -16.8220   -6.5100   -8.1660 C.2    87  TYR87       0.2264
     63  O        -17.7400   -6.6040   -8.9880 O.2    87  TYR87      -0.2867
     64  CB       -16.8040   -4.0780   -7.6420 C.3    87  TYR87       0.0534
     65  CG       -17.0160   -3.0270   -6.5740 C.ar   87  TYR87      -0.0201
     66  CD1      -18.2890   -2.6390   -6.2120 C.ar   87  TYR87      -0.0009
     67  CD2      -15.9460   -2.4740   -5.9360 C.ar   87  TYR87      -0.0009
     68  CE1      -18.4730   -1.6820   -5.2230 C.ar   87  TYR87       0.0417
     69  CE2      -16.1190   -1.5050   -4.9190 C.ar   87  TYR87       0.0417
     70  CZ       -17.4020   -1.1540   -4.5990 C.ar   87  TYR87       0.1957
     71  OH       -17.6540   -0.1880   -3.6310 O.3    87  TYR87      -0.2866
     72  N        -17.7090   -9.5120   -9.0420 N.3    89  GLN89      -0.1245
     73  CA       -18.5390  -10.6960   -8.8150 C.3    89  GLN89       0.1566
     74  C        -19.9000  -10.4870   -9.4490 C.2    89  GLN89       0.2260
     75  O        -20.2720   -9.3710   -9.8520 O.2    89  GLN89      -0.2867
     76  CB       -18.6610  -10.9100   -7.3130 C.3    89  GLN89       0.0367
     77  CG       -19.0500   -9.6470   -6.6290 C.3    89  GLN89       0.0905
     78  CD       -19.6720   -9.8910   -5.3040 C.2    89  GLN89       0.2608
     79  OE1      -20.7670  -10.4170   -5.2310 O.2    89  GLN89      -0.2717
     80  NE2      -18.9850   -9.5130   -4.2490 N.am   89  GLN89      -0.0878
     81  N        -23.7240   -9.8070   -9.0300 N.3    91  GLN91      -0.1245
     82  CA       -24.5020   -9.0680   -8.0090 C.3    91  GLN91       0.1566
     83  C        -25.5020  -10.0160   -7.3500 C.2    91  GLN91       0.2260
     84  O        -25.4560  -10.2400   -6.1370 O.2    91  GLN91      -0.2867
     85  CB       -25.2380   -7.8550   -8.6060 C.3    91  GLN91       0.0367
     86  CG       -24.3390   -6.6370   -8.8160 C.3    91  GLN91       0.0905
     87  CD       -25.1010   -5.3810   -9.2320 C.2    91  GLN91       0.2608
     88  OE1      -26.2790   -5.2250   -8.9160 O.2    91  GLN91      -0.2717
     89  NE2      -24.4270   -4.4760   -9.9390 N.am   91  GLN91      -0.0878
     90  N        -13.1820    7.1700   -0.7110 N.3   152  GLU152     -0.1245
     91  CA       -14.4950    6.7330   -0.6670 C.3   152  GLU152      0.1567
     92  C        -15.1450    7.1080    0.6680 C.2   152  GLU152      0.2260
     93  O        -16.3860    7.2340    0.7210 O.2   152  GLU152     -0.2867
     94  CB       -14.4980    5.1860   -1.0310 C.3   152  GLU152      0.0388
     95  CG       -13.5130    4.2460   -0.2680 C.3   152  GLU152      0.1160
     96  CD       -13.8640    2.7200   -0.3660 C.2   152  GLU152      0.3649
     97  OE1      -14.7410    2.3410   -1.1710 O.co2 152  GLU152     -0.2457
     98  OE2      -13.2550    1.8840    0.3620 O.co2 152  GLU152     -0.2457
     99  N        -11.1510    6.1000   -5.0540 N.3   159  GLU159     -0.1245
    100  CA       -11.9050    5.6870   -6.2160 C.3   159  GLU159      0.1567
    101  C        -11.7860    6.7630   -7.2440 C.2   159  GLU159      0.2260
    102  O        -11.6310    7.9560   -6.9510 O.2   159  GLU159     -0.2867
    103  CB       -13.3960    5.4330   -5.8800 C.3   159  GLU159      0.0388
    104  CG       -14.1830    6.5550   -5.3530 C.3   159  GLU159      0.1160
    105  CD       -15.5970    6.1330   -4.7580 C.2   159  GLU159      0.3649
    106  OE1      -15.9060    4.9270   -4.7230 O.co2 159  GLU159     -0.2457
    107  OE2      -16.3670    7.0490   -4.2850 O.co2 159  GLU159     -0.2457
@<TRIPOS>BOND
     1    21    19    1
     2     8    10   ar
     3     8     6   ar
     4     5     6    1
     5     5     2    1
     6    10     9   ar
     7    41    39    1
     8     6     7   ar
     9    40    38    1
    10    20    19    1
    11    19    16    1
    12     4     3    2
    13     9     7   ar
    14     1     2    1
    15     2     3    1
    16    39    38    1
    17    17    18    2
    18    17    16    1
    19    38    35    1
    20     3    11   am
    21    16    15    1
    22    22    23    1
    23    15    13   am
    24    25    24    2
    25    11    12    1
    26    13    12    1
    27    13    14    2
    28    24    34   am
    29    24    23    1
    30    35    34    1
    31    35    36    1
    32    23    26    1
    33    36    42   am
    34    36    37    2
    35    42    43    1
    36    45    44    2
    37    28    30   ar
    38    28    27   ar
    39    26    27    1
    40    89    87   am
    41    75    74    2
    42    74    73    1
    43    44    43    1
    44    30    32   ar
    45    27    29   ar
    46    87    88    2
    47    87    86    1
    48    72    73    1
    49    81    82    1
    50    59    56    1
    51    63    62    2
    52    43    46    1
    53    86    85    1
    54    73    76    1
    55    85    82    1
    56    62    61    1
    57    32    33    1
    58    32    31   ar
    59    82    83    1
    60    29    31   ar
    61    58    57    2
    62    56    57    1
    63    56    55    1
    64    64    61    1
    65    64    65    1
    66    83    84    2
    67    76    77    1
    68   101   102    2
    69   101   100    1
    70    61    60    1
    71    77    78    1
    72    55    49   am
    73    65    66   ar
    74    65    67   ar
    75   100   103    1
    76   100    99    1
    77    66    68   ar
    78    67    69   ar
    79   103   104    1
    80    49    50    2
    81    49    48    1
    82   104   105    1
    83    78    79    2
    84    78    80   am
    85    68    70   ar
    86    69    70   ar
    87   105   106   ar
    88   105   107   ar
    89    70    71    1
    90    47    48    1
    91    54    52    1
    92    51    48    1
    93    51    52    1
    94    52    53    1
    95    97    96   ar
    96    94    91    1
    97    94    95    1
    98    90    91    1
    99    91    92    1
   100    96    95    1
   101    96    98   ar
   102    92    93    2
