@<TRIPOS>MOLECULE
tmp/6edkA00.pdb
 102 98 0 0 0
SMALL
GASTEIGER

@<TRIPOS>ATOM
      1  N         37.1840   21.5450    7.8420 N.3    74  ILE74      -0.1245
      2  CA        38.2680   22.5200    7.7490 C.3    74  ILE74       0.1561
      3  C         38.2440   23.5230    8.8940 C.2    74  ILE74       0.2260
      4  O         38.3470   24.7430    8.6850 O.2    74  ILE74      -0.2867
      5  CB        38.2980   23.1870    6.3900 C.3    74  ILE74       0.0252
      6  CG1       36.9810   23.8340    6.0050 C.3    74  ILE74       0.0019
      7  CG2       38.7830   22.1780    5.3100 C.3    74  ILE74       0.0019
      8  CD1       37.1220   24.8600    4.8630 C.3    74  ILE74       0.0001
      9  N         30.7550   27.7180    8.0000 N.3    84  ASP84      -0.1225
     10  CA        31.6880   28.8050    7.7210 C.3    84  ASP84       0.1790
     11  C         32.8860   28.8320    8.6860 C.2    84  ASP84       0.2440
     12  O         33.2570   29.8800    9.2050 O.2    84  ASP84      -0.2733
     13  CB        30.9650   30.1350    7.7600 C.3    84  ASP84       0.1423
     14  CG        29.7710   30.1590    6.8060 C.2    84  ASP84       0.3668
     15  OD1       29.9730   29.8340    5.6290 O.co2  84  ASP84      -0.2456
     16  OD2       28.6540   30.4910    7.2430 O.co2  84  ASP84      -0.2456
     17  N         33.5400   27.6890    8.9110 N.am   85  PRO85      -0.2718
     18  CA        34.5910   27.7060    9.9190 C.3    85  PRO85       0.1535
     19  C         35.7380   28.6340    9.5740 C.2    85  PRO85       0.2599
     20  O         36.3240   29.2240   10.4880 O.2    85  PRO85      -0.2715
     21  CB        35.0610   26.2550   10.0190 C.3    85  PRO85       0.0310
     22  CG        34.5920   25.6350    8.6930 C.3    85  PRO85       0.0237
     23  CD        33.3010   26.3550    8.3590 C.3    85  PRO85       0.0939
     24  N         36.0810   28.7820    8.2930 N.am   86  ASN86      -0.1959
     25  CA        37.2090   29.6500    7.9550 C.3    86  ASN86       0.1819
     26  C         36.8980   31.0850    8.3400 C.2    86  ASN86       0.2621
     27  O         37.7090   31.7720    8.9670 O.2    86  ASN86      -0.2715
     28  CB        37.5120   29.5290    6.4690 C.3    86  ASN86       0.1195
     29  CG        38.7010   30.3580    6.0140 C.2    86  ASN86       0.2630
     30  OD1       39.8040   30.2960    6.5860 O.2    86  ASN86      -0.2716
     31  ND2       38.4920   31.1290    4.9530 N.am   86  ASN86      -0.0877
     32  N         35.7300   31.5660    7.9320 N.am   87  LEU87      -0.1977
     33  CA        35.3430   32.9320    8.3130 C.3    87  LEU87       0.1596
     34  C         35.3220   33.1150    9.8260 C.2    87  LEU87       0.2287
     35  O         35.8800   34.0830   10.3450 O.2    87  LEU87      -0.2864
     36  CB        33.9930   33.2450    7.6980 C.3    87  LEU87       0.0297
     37  CG        33.3780   34.6180    8.1420 C.3    87  LEU87       0.0022
     38  CD1       34.2630   35.7350    7.6570 C.3    87  LEU87       0.0001
     39  CD2       31.9910   34.6930    7.4650 C.3    87  LEU87       0.0001
     40  N         39.9080   35.6650    2.3780 N.3   126  LEU126     -0.1245
     41  CA        39.1350   34.4600    2.6560 C.3   126  LEU126      0.1561
     42  C         39.3690   33.4110    1.5860 C.2   126  LEU126      0.2260
     43  O         39.3950   32.2370    1.9010 O.2   126  LEU126     -0.2867
     44  CB        37.6410   34.7500    2.7530 C.3   126  LEU126      0.0270
     45  CG        37.2790   35.5930    3.9960 C.3   126  LEU126      0.0019
     46  CD1       35.8300   36.0400    3.9020 C.3   126  LEU126      0.0001
     47  CD2       37.5220   34.8690    5.3160 C.3   126  LEU126      0.0001
     48  N         40.8510   29.8420    2.6100 N.3   130  TYR130     -0.1241
     49  CA        40.0010   28.6540    2.2790 C.3   130  TYR130      0.1605
     50  C         40.7180   27.6610    1.3750 C.2   130  TYR130      0.2264
     51  O         40.6980   26.4270    1.6140 O.2   130  TYR130     -0.2867
     52  CB        38.7030   29.1430    1.6360 C.3   130  TYR130      0.0534
     53  CG        37.7230   28.0160    1.2850 C.ar  130  TYR130     -0.0201
     54  CD1       37.8190   27.3420    0.0720 C.ar  130  TYR130     -0.0009
     55  CD2       36.7450   27.6070    2.1920 C.ar  130  TYR130     -0.0009
     56  CE1       36.9210   26.2910   -0.2460 C.ar  130  TYR130      0.0417
     57  CE2       35.8630   26.5530    1.8950 C.ar  130  TYR130      0.0417
     58  CZ        35.9590   25.9130    0.6780 C.ar  130  TYR130      0.1957
     59  OH        35.0620   24.8990    0.3950 O.3   130  TYR130     -0.2866
     60  N         26.4790   34.2930   10.4560 N.3   170  LYS170     -0.1245
     61  CA        27.3520   35.2850    9.8450 C.3   170  LYS170      0.1561
     62  C         26.6240   36.5260    9.3020 C.2   170  LYS170      0.2260
     63  O         27.2930   37.5170    8.9250 O.2   170  LYS170     -0.2867
     64  CB        28.1460   34.6300    8.7030 C.3   170  LYS170      0.0271
     65  CG        27.3520   34.1030    7.5520 C.3   170  LYS170      0.0035
     66  CD        28.2970   33.7560    6.3820 C.3   170  LYS170      0.0206
     67  CE        27.6080   33.0440    5.2180 C.3   170  LYS170      0.1093
     68  NZ        26.9440   31.7910    5.6410 N.3   170  LYS170     -0.1314
     69  N         28.2540   40.1920    7.3560 N.3   174  LEU174     -0.1245
     70  CA        28.4530   40.2340    5.9070 C.3   174  LEU174      0.1561
     71  C         28.8540   41.6180    5.4090 C.2   174  LEU174      0.2260
     72  O         29.4630   41.7330    4.3540 O.2   174  LEU174     -0.2867
     73  CB        27.1880   39.7820    5.1890 C.3   174  LEU174      0.0270
     74  CG        26.7660   38.3210    5.3700 C.3   174  LEU174      0.0019
     75  CD1       25.6840   37.9280    4.3390 C.3   174  LEU174      0.0001
     76  CD2       27.9170   37.3320    5.2710 C.3   174  LEU174      0.0001
     77  N         32.4030   41.9240    4.5230 N.3   177  LEU177     -0.1245
     78  CA        32.9020   41.2280    3.3420 C.3   177  LEU177      0.1561
     79  C         32.6130   42.0260    2.0640 C.2   177  LEU177      0.2260
     80  O         31.9450   41.5600    1.1480 O.2   177  LEU177     -0.2867
     81  CB        32.2930   39.8380    3.2680 C.3   177  LEU177      0.0270
     82  CG        32.3760   39.0000    4.5380 C.3   177  LEU177      0.0019
     83  CD1       32.0730   37.5650    4.1910 C.3   177  LEU177      0.0001
     84  CD2       33.7620   39.1690    5.1500 C.3   177  LEU177      0.0001
     85  N         33.7550   40.0840   -0.9800 N.3   180  GLY180     -0.1210
     86  CA        33.3410   38.6890   -1.0800 C.3   180  GLY180      0.1956
     87  C         34.5010   37.8060   -0.6060 C.2   180  GLY180      0.2611
     88  O         35.1560   38.1090    0.4180 O.2   180  GLY180     -0.2717
     89  N         34.7740   36.8020   -1.4050 N.am  181  TRP181     -0.1976
     90  CA        35.8770   35.8760   -1.1570 C.3   181  TRP181      0.1640
     91  C         37.2100   36.5970   -1.1140 C.2   181  TRP181      0.2290
     92  O         38.1260   36.1560   -0.4260 O.2   181  TRP181     -0.2864
     93  CB        35.8900   34.8260   -2.2770 C.3   181  TRP181      0.0576
     94  CG        34.9680   33.6990   -2.0750 C.ar  181  TRP181      0.0006
     95  CD1       33.7920   33.4470   -2.7590 C.ar  181  TRP181      0.0946
     96  CD2       35.1360   32.6120   -1.1480 C.ar  181  TRP181      0.0152
     97  NE1       33.2230   32.2910   -2.2970 N.ar  181  TRP181     -0.2442
     98  CE2       34.0260   31.7420   -1.3170 C.ar  181  TRP181      0.0810
     99  CE3       36.0950   32.3060   -0.1790 C.ar  181  TRP181      0.0012
    100  CZ2       33.8630   30.5830   -0.5560 C.ar  181  TRP181      0.0191
    101  CZ3       35.9130   31.1600    0.5950 C.ar  181  TRP181      0.0001
    102  CH2       34.8170   30.3050    0.3870 C.ar  181  TRP181      0.0015
@<TRIPOS>BOND
     1    95    97   ar
     2    95    94   ar
     3    97    98   ar
     4    93    94    1
     5    93    90    1
     6    94    96   ar
     7    89    90    1
     8    89    87   am
     9    98    96   ar
    10    98   100   ar
    11    90    91    1
    12    96    99   ar
    13    91    92    2
    14    86    85    1
    15    86    87    1
    16    87    88    2
    17   100   102   ar
    18    56    54   ar
    19    56    58   ar
    20    99   101   ar
    21    54    53   ar
    22   102   101   ar
    23    59    58    1
    24    58    57   ar
    25    80    79    2
    26    53    52    1
    27    53    55   ar
    28    50    51    2
    29    50    49    1
    30    42    43    2
    31    42    41    1
    32    52    49    1
    33    57    55   ar
    34    79    78    1
    35    49    48    1
    36    40    41    1
    37    41    44    1
    38    44    45    1
    39    81    78    1
    40    81    82    1
    41    78    77    1
    42    46    45    1
    43    45    47    1
    44    83    82    1
    45    75    74    1
    46    72    71    2
    47    82    84    1
    48     8     6    1
    49    31    29   am
    50    73    74    1
    51    73    70    1
    52    67    68    1
    53    67    66    1
    54    76    74    1
    55     7     5    1
    56    71    70    1
    57    15    14   ar
    58    70    69    1
    59     6     5    1
    60    29    28    1
    61    29    30    2
    62    66    65    1
    63     5     2    1
    64    28    25    1
    65    14    16   ar
    66    14    13    1
    67    39    37    1
    68    65    64    1
    69    38    37    1
    70    36    37    1
    71    36    33    1
    72    10    13    1
    73    10     9    1
    74    10    11    1
    75     2     1    1
    76     2     3    1
    77    32    33    1
    78    32    26   am
    79    25    24    1
    80    25    26    1
    81    24    19   am
    82    33    34    1
    83    26    27    2
    84    23    22    1
    85    23    17    1
    86     4     3    2
    87    11    17   am
    88    11    12    2
    89    22    21    1
    90    64    61    1
    91    17    18    1
    92    63    62    2
    93    62    61    1
    94    19    18    1
    95    19    20    2
    96    34    35    2
    97    61    60    1
    98    18    21    1
