@<TRIPOS>MOLECULE
tmp/6eduF05.pdb
 122 120 0 0 0
SMALL
GASTEIGER

@<TRIPOS>ATOM
      1  N        210.3230  196.2460  207.4400 N.3   142  PHE142     -0.1227
      2  CA       210.6340  196.6310  206.0750 C.3   142  PHE142      0.1736
      3  C        211.6610  195.6720  205.4940 C.2   142  PHE142      0.2595
      4  O        212.5640  195.2170  206.2000 O.2   142  PHE142     -0.2718
      5  CB       211.1590  198.0680  206.0130 C.3   142  PHE142      0.0547
      6  CG       211.4760  198.5240  204.6300 C.ar  142  PHE142     -0.0202
      7  CD1      210.4580  198.8390  203.7490 C.ar  142  PHE142     -0.0042
      8  CD2      212.7920  198.6130  204.1990 C.ar  142  PHE142     -0.0042
      9  CE1      210.7420  199.2460  202.4670 C.ar  142  PHE142     -0.0003
     10  CE2      213.0840  199.0180  202.9170 C.ar  142  PHE142     -0.0003
     11  CZ       212.0570  199.3320  202.0500 C.ar  142  PHE142     -0.0000
     12  N        211.5170  195.3810  204.2010 N.am  143  GLU143     -0.1966
     13  CA       212.4710  194.5890  203.4630 C.3   143  GLU143      0.1718
     14  C        212.3200  194.9590  201.9940 C.2   143  GLU143      0.2458
     15  O        211.2050  194.8610  201.4570 O.2   143  GLU143     -0.2730
     16  CB       212.2580  193.0870  203.6520 C.3   143  GLU143      0.0428
     17  CG       213.3440  192.2320  203.0610 C.3   143  GLU143      0.1163
     18  CD       212.8430  190.8370  202.7250 C.2   143  GLU143      0.3649
     19  OE1      212.0560  190.2560  203.5330 O.co2 143  GLU143     -0.2457
     20  OE2      213.2280  190.3190  201.6440 O.co2 143  GLU143     -0.2457
     21  N        213.3890  195.3940  201.3330 N.am  144  PRO144     -0.2727
     22  CA       213.2970  195.6700  199.8950 C.3   144  PRO144      0.1402
     23  C        213.1800  194.3970  199.0720 C.2   144  PRO144      0.2269
     24  O        214.1530  193.6560  198.9020 O.2   144  PRO144     -0.2865
     25  CB       214.5990  196.4270  199.6010 C.3   144  PRO144      0.0296
     26  CG       215.5340  196.0170  200.6750 C.3   144  PRO144      0.0237
     27  CD       214.6930  195.7880  201.8930 C.3   144  PRO144      0.0939
     28  N        215.9560  196.1110  193.6050 N.3   184  ARG184     -0.1245
     29  CA       215.4960  196.2490  194.9780 C.3   184  ARG184      0.1563
     30  C        215.5490  197.7000  195.4450 C.2   184  ARG184      0.2260
     31  O        216.5230  198.4060  195.1720 O.2   184  ARG184     -0.2867
     32  CB       216.3280  195.3830  195.9310 C.3   184  ARG184      0.0307
     33  CG       216.0820  193.8900  195.7810 C.3   184  ARG184      0.0489
     34  CD       216.7360  193.1070  196.9060 C.3   184  ARG184      0.2205
     35  NE       218.1870  193.2330  196.8800 N.pl3 184  ARG184     -0.0865
     36  CZ       218.9870  192.4290  196.1900 C.cat 184  ARG184      0.5346
     37  NH1      218.4730  191.4400  195.4750 N.pl3 184  ARG184      0.1354
     38  NH2      220.3000  192.6130  196.2170 N.pl3 184  ARG184      0.1354
     39  N        216.6940  200.1000  197.5950 N.3   186  VAL186     -0.1231
     40  CA       217.6540  200.3570  198.6580 C.3   186  VAL186      0.1692
     41  C        218.1220  201.8010  198.5250 C.2   186  VAL186      0.2591
     42  O        218.9300  202.1310  197.6500 O.2   186  VAL186     -0.2718
     43  CB       218.8270  199.3770  198.6150 C.3   186  VAL186      0.0266
     44  CG1      219.8250  199.7090  199.6990 C.3   186  VAL186      0.0020
     45  CG2      218.3240  197.9500  198.7730 C.3   186  VAL186      0.0020
     46  N        217.6050  202.6710  199.3900 N.am  187  VAL187     -0.1980
     47  CA       218.1250  204.0290  199.5050 C.3   187  VAL187      0.1595
     48  C        219.3950  204.0100  200.3410 C.2   187  VAL187      0.2287
     49  O        219.4110  203.4850  201.4600 O.2   187  VAL187     -0.2864
     50  CB       217.0660  204.9710  200.0930 C.3   187  VAL187      0.0276
     51  CG1      217.6890  206.2160  200.6710 C.3   187  VAL187      0.0022
     52  CG2      216.1100  205.3840  199.0010 C.3   187  VAL187      0.0022
     53  N        224.3110  199.9630  198.0180 N.3   193  LEU193     -0.1231
     54  CA       224.0350  198.7220  198.7270 C.3   193  LEU193      0.1693
     55  C        223.0500  197.8620  197.9490 C.2   193  LEU193      0.2592
     56  O        222.0950  198.3760  197.3590 O.2   193  LEU193     -0.2718
     57  CB       223.4780  198.9970  200.1230 C.3   193  LEU193      0.0284
     58  CG       224.4640  199.5370  201.1510 C.3   193  LEU193      0.0019
     59  CD1      223.7390  199.9350  202.4190 C.3   193  LEU193      0.0001
     60  CD2      225.4860  198.4610  201.4440 C.3   193  LEU193      0.0001
     61  N        223.3050  196.5470  197.9640 N.am  194  ASN194     -0.1974
     62  CA       222.4500  195.5070  197.3730 C.3   194  ASN194      0.1688
     63  C        222.2100  195.6980  195.8780 C.2   194  ASN194      0.2292
     64  O        221.1640  195.3070  195.3550 O.2   194  ASN194     -0.2864
     65  CB       221.1140  195.3790  198.1070 C.3   194  ASN194      0.1181
     66  CG       221.2300  194.5840  199.3830 C.2   194  ASN194      0.2629
     67  OD1      221.9610  193.5940  199.4470 O.2   194  ASN194     -0.2716
     68  ND2      220.4970  194.9980  200.4080 N.am  194  ASN194     -0.0877
     69  N        221.8020  204.6500  205.6640 N.3   284  PHE284     -0.1227
     70  CA       220.9040  203.6790  205.0530 C.3   284  PHE284      0.1736
     71  C        219.8700  203.2240  206.0660 C.2   284  PHE284      0.2595
     72  O        220.1390  203.1620  207.2670 O.2   284  PHE284     -0.2718
     73  CB       221.6520  202.4690  204.4660 C.3   284  PHE284      0.0547
     74  CG       222.4270  201.6610  205.4680 C.ar  284  PHE284     -0.0202
     75  CD1      223.7380  201.9900  205.7720 C.ar  284  PHE284     -0.0042
     76  CD2      221.8680  200.5350  206.0610 C.ar  284  PHE284     -0.0042
     77  CE1      224.4650  201.2360  206.6790 C.ar  284  PHE284     -0.0003
     78  CE2      222.5860  199.7800  206.9690 C.ar  284  PHE284     -0.0003
     79  CZ       223.8880  200.1290  207.2760 C.ar  284  PHE284     -0.0000
     80  N        218.6860  202.9010  205.5620 N.am  285  ASN285     -0.1960
     81  CA       217.6260  202.3470  206.3860 C.3   285  ASN285      0.1819
     82  C        217.7420  200.8310  206.3980 C.2   285  ASN285      0.2621
     83  O        217.9630  200.2050  205.3590 O.2   285  ASN285     -0.2715
     84  CB       216.2570  202.7660  205.8560 C.3   285  ASN285      0.1195
     85  CG       215.1410  202.5050  206.8460 C.2   285  ASN285      0.2630
     86  OD1      215.3690  202.0260  207.9570 O.2   285  ASN285     -0.2716
     87  ND2      213.9210  202.8240  206.4450 N.am  285  ASN285     -0.0877
     88  N        217.5870  200.2460  207.5830 N.am  286  CYS286     -0.1968
     89  CA       217.7050  198.8030  207.7540 C.3   286  CYS286      0.1712
     90  C        216.8110  198.3830  208.9080 C.2   286  CYS286      0.2296
     91  O        217.0300  198.8110  210.0470 O.2   286  CYS286     -0.2864
     92  CB       219.1560  198.3970  208.0190 C.3   286  CYS286      0.0983
     93  SG       219.4200  196.6160  208.1510 S.3   286  CYS286     -0.0798
     94  N        220.7780  192.7330  212.7790 N.3   343  ARG343     -0.1231
     95  CA       221.8020  192.3720  211.8070 C.3   343  ARG343      0.1694
     96  C        221.5120  193.0770  210.4880 C.2   343  ARG343      0.2592
     97  O        220.3810  193.0380  209.9950 O.2   343  ARG343     -0.2718
     98  CB       221.8400  190.8590  211.5910 C.3   343  ARG343      0.0321
     99  CG       222.1960  190.0470  212.8220 C.3   343  ARG343      0.0489
    100  CD       223.6380  190.2670  213.2300 C.3   343  ARG343      0.2205
    101  NE       224.5700  189.9140  212.1630 N.pl3 343  ARG343     -0.0865
    102  CZ       225.0380  188.6880  211.9530 C.cat 343  ARG343      0.5346
    103  NH1      224.6620  187.6880  212.7380 N.pl3 343  ARG343      0.1354
    104  NH2      225.8830  188.4590  210.9570 N.pl3 343  ARG343      0.1354
    105  N        222.5300  193.7180  209.9200 N.am  344  CYS344     -0.1956
    106  CA       222.4010  194.4400  208.6580 C.3   344  CYS344      0.1843
    107  C        223.5660  194.1150  207.7340 C.2   344  CYS344      0.2626
    108  O        224.2540  195.0000  207.2210 O.2   344  CYS344     -0.2714
    109  CB       222.2880  195.9410  208.8890 C.3   344  CYS344      0.0997
    110  SG       220.7410  196.4280  209.6820 S.3   344  CYS344     -0.0797
    111  N        223.8210  192.8220  207.5470 N.am  345  SER345     -0.1936
    112  CA       224.7990  192.3740  206.5640 C.3   345  SER345      0.2055
    113  C        224.3290  192.7120  205.1550 C.2   345  SER345      0.2643
    114  O        223.2010  192.3890  204.7740 O.2   345  SER345     -0.2714
    115  CB       225.0110  190.8670  206.6990 C.3   345  SER345      0.2130
    116  OG       223.8260  190.1560  206.3840 O.3   345  SER345     -0.2179
    117  N        225.1910  193.3660  204.3770 N.am  346  SER346     -0.1949
    118  CA       224.8070  193.8050  203.0430 C.3   346  SER346      0.1924
    119  C        226.0110  193.7310  202.1140 C.2   346  SER346      0.2314
    120  O        227.1280  193.4090  202.5310 O.2   346  SER346     -0.2863
    121  CB       224.2230  195.2230  203.0760 C.3   346  SER346      0.2116
    122  OG       223.0140  195.2630  203.8150 O.3   346  SER346     -0.2180
@<TRIPOS>BOND
     1    28    29    1
     2    29    30    1
     3    29    32    1
     4    31    30    2
     5    64    63    2
     6    37    36    1
     7    33    32    1
     8    33    34    1
     9    63    62    1
    10    36    38    1
    11    36    35    2
    12    35    34    1
    13    56    55    2
    14    62    61    1
    15    62    65    1
    16    39    40    1
    17    42    41    2
    18    55    61   am
    19    55    54    1
    20    53    54    1
    21    65    66    1
    22    41    40    1
    23    41    46   am
    24    43    40    1
    25    43    45    1
    26    43    44    1
    27    54    57    1
    28    24    23    2
    29    52    50    1
    30    23    22    1
    31    66    67    2
    32    66    68   am
    33    46    47    1
    34    47    50    1
    35    47    48    1
    36    25    22    1
    37    25    26    1
    38    22    21    1
    39    50    51    1
    40    57    58    1
    41    48    49    2
    42    26    27    1
    43    58    60    1
    44    58    59    1
    45    21    27    1
    46    21    14   am
    47    15    14    2
    48    20    18   ar
    49    14    13    1
    50    11     9   ar
    51    11    10   ar
    52   119   120    2
    53   119   118    1
    54     9     7   ar
    55    18    17    1
    56    18    19   ar
    57    10     8   ar
    58   118   121    1
    59   118   117    1
    60    17    16    1
    61   121   122    1
    62    13    16    1
    63    13    12    1
    64     7     6   ar
    65     8     6   ar
    66    12     3   am
    67   117   113   am
    68    73    70    1
    69    73    74    1
    70     6     5    1
    71   114   113    2
    72    70    69    1
    73    70    71    1
    74   113   112    1
    75    83    82    2
    76    74    75   ar
    77    74    76   ar
    78     3     2    1
    79     3     4    2
    80    80    71   am
    81    80    81    1
    82    75    77   ar
    83    84    81    1
    84    84    85    1
    85     5     2    1
    86    76    78   ar
    87    71    72    2
    88     2     1    1
    89   116   115    1
    90    81    82    1
    91    82    88   am
    92    87    85   am
    93   112   115    1
    94   112   111    1
    95    77    79   ar
    96    85    86    2
    97    78    79   ar
    98   108   107    2
    99   111   107   am
   100    88    89    1
   101   107   106    1
   102    89    92    1
   103    89    90    1
   104    92    93    1
   105    93   110    1
   106   106   109    1
   107   106   105    1
   108   109   110    1
   109    90    91    2
   110   105    96   am
   111    97    96    2
   112    96    95    1
   113   104   102    1
   114    98    95    1
   115    98    99    1
   116    95    94    1
   117   102   101    2
   118   102   103    1
   119   101   100    1
   120    99   100    1
