@<TRIPOS>MOLECULE
tmp/6eduF08.pdb
 83 77 0 0 0
SMALL
GASTEIGER

@<TRIPOS>ATOM
      1  N        231.5760  192.8370  201.0680 N.3   225  GLU225     -0.1231
      2  CA       230.4880  192.7500  202.0260 C.3   225  GLU225      0.1699
      3  C        230.7020  193.7380  203.1640 C.2   225  GLU225      0.2592
      4  O        231.8090  194.2350  203.3900 O.2   225  GLU225     -0.2718
      5  CB       230.3500  191.3260  202.5710 C.3   225  GLU225      0.0402
      6  CG       229.8710  190.3320  201.5280 C.3   225  GLU225      0.1161
      7  CD       229.7280  188.9310  202.0750 C.2   225  GLU225      0.3649
      8  OE1      230.1230  188.7060  203.2370 O.co2 225  GLU225     -0.2457
      9  OE2      229.2180  188.0570  201.3440 O.co2 225  GLU225     -0.2457
     10  N        229.6160  194.0260  203.8730 N.am  226  ILE226     -0.1966
     11  CA       229.6210  194.9800  204.9730 C.3   226  ILE226      0.1727
     12  C        228.7260  194.4340  206.0800 C.2   226  ILE226      0.2616
     13  O        227.7150  193.7750  205.8100 O.2   226  ILE226     -0.2715
     14  CB       229.1840  196.3860  204.4890 C.3   226  ILE226      0.0290
     15  CG1      229.4240  197.4480  205.5610 C.3   226  ILE226      0.0022
     16  CG2      227.7410  196.4020  203.9770 C.3   226  ILE226      0.0023
     17  CD1      229.2600  198.8580  205.0620 C.3   226  ILE226      0.0001
     18  N        229.1300  194.6520  207.3330 N.am  227  ASN227     -0.1972
     19  CA       228.3690  194.1660  208.4830 C.3   227  ASN227      0.1688
     20  C        228.1510  195.3000  209.4830 C.2   227  ASN227      0.2292
     21  O        229.0500  195.6100  210.2640 O.2   227  ASN227     -0.2864
     22  CB       229.0820  192.9910  209.1510 C.3   227  ASN227      0.1181
     23  CG       229.0530  191.7290  208.3070 C.2   227  ASN227      0.2629
     24  OD1      228.0570  191.4400  207.6500 O.2   227  ASN227     -0.2716
     25  ND2      230.1420  190.9610  208.3350 N.am  227  ASN227     -0.0877
     26  N        231.6370  196.6950  210.2220 N.3   241  ASN241     -0.1225
     27  CA       232.9360  196.1250  209.9050 C.3   241  ASN241      0.1785
     28  C        232.9810  195.7210  208.4390 C.2   241  ASN241      0.2597
     29  O        232.0010  195.2010  207.8870 O.2   241  ASN241     -0.2718
     30  CB       233.2740  194.9140  210.7760 C.3   241  ASN241      0.1169
     31  CG       233.6870  195.3000  212.1800 C.2   241  ASN241      0.2627
     32  OD1      234.3480  196.3190  212.3880 O.2   241  ASN241     -0.2716
     33  ND2      233.3190  194.4740  213.1530 N.am  241  ASN241     -0.0877
     34  N        234.1330  195.9910  207.8220 N.am  242  ILE242     -0.1966
     35  CA       234.4300  195.7080  206.4220 C.3   242  ILE242      0.1727
     36  C        235.7470  194.9350  206.4050 C.2   242  ILE242      0.2616
     37  O        236.5720  195.0900  207.3110 O.2   242  ILE242     -0.2715
     38  CB       234.5090  197.0250  205.6050 C.3   242  ILE242      0.0290
     39  CG1      233.1850  197.7860  205.6950 C.3   242  ILE242      0.0022
     40  CG2      234.7790  196.8030  204.1250 C.3   242  ILE242      0.0023
     41  CD1      233.2220  199.1600  205.0950 C.3   242  ILE242      0.0001
     42  N        235.9230  194.0530  205.4220 N.am  243  SER243     -0.1950
     43  CA       237.1700  193.3080  205.3210 C.3   243  SER243      0.1924
     44  C        238.2850  194.1310  204.6890 C.2   243  SER243      0.2314
     45  O        238.2570  194.4080  203.4860 O.2   243  SER243     -0.2863
     46  CB       236.9680  192.0260  204.5200 C.3   243  SER243      0.2116
     47  OG       238.1990  191.3450  204.3620 O.3   243  SER243     -0.2180
     48  N        240.3690  193.1190  201.2890 N.3   246  ARG246     -0.1245
     49  CA       239.4310  193.2260  200.1820 C.3   246  ARG246      0.1563
     50  C        239.2670  194.6730  199.7580 C.2   246  ARG246      0.2260
     51  O        239.1320  194.9600  198.5640 O.2   246  ARG246     -0.2867
     52  CB       238.0550  192.6740  200.5640 C.3   246  ARG246      0.0307
     53  CG       237.9680  191.1820  200.7960 C.3   246  ARG246      0.0489
     54  CD       236.5190  190.8170  201.0810 C.3   246  ARG246      0.2205
     55  NE       236.3270  189.4080  201.4100 N.pl3 246  ARG246     -0.0865
     56  CZ       235.1630  188.8870  201.7860 C.cat 246  ARG246      0.5346
     57  NH1      234.0900  189.6620  201.8810 N.pl3 246  ARG246      0.1354
     58  NH2      235.0690  187.5960  202.0720 N.pl3 246  ARG246      0.1354
     59  N        240.1130  194.9700  210.7260 N.3   312  ASN312     -0.1240
     60  CA       238.7820  194.7190  211.2420 C.3   312  ASN312      0.1653
     61  C        237.9980  196.0320  211.2790 C.2   312  ASN312      0.2266
     62  O        237.2990  196.3190  212.2510 O.2   312  ASN312     -0.2867
     63  CB       238.8960  194.0820  212.6230 C.3   312  ASN312      0.1155
     64  CG       238.0130  192.8740  212.8320 C.2   312  ASN312      0.2627
     65  OD1      238.1600  192.1640  213.8340 O.2   312  ASN312     -0.2716
     66  ND2      237.0970  192.5780  211.8830 N.am  312  ASN312     -0.0877
     67  N        220.7780  192.7330  212.7790 N.3   343  ARG343     -0.1245
     68  CA       221.8020  192.3720  211.8070 C.3   343  ARG343      0.1563
     69  C        221.5120  193.0770  210.4880 C.2   343  ARG343      0.2260
     70  O        220.3810  193.0380  209.9950 O.2   343  ARG343     -0.2867
     71  CB       221.8400  190.8590  211.5910 C.3   343  ARG343      0.0307
     72  CG       222.1960  190.0470  212.8220 C.3   343  ARG343      0.0489
     73  CD       223.6380  190.2670  213.2300 C.3   343  ARG343      0.2205
     74  NE       224.5700  189.9140  212.1630 N.pl3 343  ARG343     -0.0865
     75  CZ       225.0380  188.6880  211.9530 C.cat 343  ARG343      0.5346
     76  NH1      224.6620  187.6880  212.7380 N.pl3 343  ARG343      0.1354
     77  NH2      225.8830  188.4590  210.9570 N.pl3 343  ARG343      0.1354
     78  N        223.8210  192.8220  207.5470 N.3   345  SER345     -0.1217
     79  CA       224.7990  192.3740  206.5640 C.3   345  SER345      0.1889
     80  C        224.3290  192.7120  205.1550 C.2   345  SER345      0.2288
     81  O        223.2010  192.3890  204.7740 O.2   345  SER345     -0.2866
     82  CB       225.0110  190.8670  206.6990 C.3   345  SER345      0.2089
     83  OG       223.8260  190.1560  206.3840 O.3   345  SER345     -0.2183
@<TRIPOS>BOND
     1    51    50    2
     2    50    49    1
     3    49    52    1
     4    49    48    1
     5    52    53    1
     6    53    54    1
     7     1     2    1
     8    54    55    1
     9     9     7   ar
    10    55    56    2
    11     6     7    1
    12     6     5    1
    13    56    57    1
    14    56    58    1
    15     2     5    1
    16     2     3    1
    17     7     8   ar
    18     3     4    2
    19     3    10   am
    20    45    44    2
    21    10    11    1
    22    16    14    1
    23    40    38    1
    24    47    46    1
    25    14    11    1
    26    14    15    1
    27    46    43    1
    28    44    43    1
    29    81    80    2
    30    11    12    1
    31    17    15    1
    32    41    39    1
    33    80    79    1
    34    43    42    1
    35    42    36   am
    36    38    39    1
    37    38    35    1
    38    13    12    2
    39    12    18   am
    40    83    82    1
    41    36    35    1
    42    36    37    2
    43    35    34    1
    44    79    82    1
    45    79    78    1
    46    18    19    1
    47    24    23    2
    48    34    28   am
    49    29    28    2
    50    23    25   am
    51    23    22    1
    52    28    27    1
    53    19    22    1
    54    19    20    1
    55    20    21    2
    56    27    26    1
    57    27    30    1
    58    70    69    2
    59    69    68    1
    60    59    60    1
    61    30    31    1
    62    77    75    1
    63    60    61    1
    64    60    63    1
    65    61    62    2
    66    71    68    1
    67    71    72    1
    68    68    67    1
    69    66    64   am
    70    75    74    2
    71    75    76    1
    72    74    73    1
    73    31    32    2
    74    31    33   am
    75    63    64    1
    76    72    73    1
    77    64    65    2
