@<TRIPOS>MOLECULE
tmp/6ee2I00.pdb
 211 200 0 0 0
SMALL
GASTEIGER

@<TRIPOS>ATOM
      1  N        158.7630   21.5690    0.8590 N.3   289  LYS289     -0.1245
      2  CA       159.7500   21.0070   -0.0450 C.3   289  LYS289      0.1561
      3  C        161.0240   20.6710    0.7310 C.2   289  LYS289      0.2260
      4  O        161.5740   21.5200    1.4500 O.2   289  LYS289     -0.2867
      5  CB       160.0540   21.9860   -1.1800 C.3   289  LYS289      0.0271
      6  CG       161.1570   21.5190   -2.1490 C.3   289  LYS289      0.0035
      7  CD       161.6610   22.6560   -3.0700 C.3   289  LYS289      0.0206
      8  CE       162.7970   22.1970   -3.9730 C.3   289  LYS289      0.1093
      9  NZ       163.1430   23.1330   -5.0790 N.3   289  LYS289     -0.1314
     10  N        170.5210   20.3650   -3.7730 N.3   294  ASP294     -0.1239
     11  CA       170.0460   20.3880   -5.1550 C.3   294  ASP294      0.1674
     12  C        171.1970   20.7020   -6.1040 C.2   294  ASP294      0.2266
     13  O        171.4860   21.8650   -6.3570 O.2   294  ASP294     -0.2867
     14  CB       168.9310   21.4020   -5.3210 C.3   294  ASP294      0.1410
     15  CG       168.2740   21.3080   -6.6680 C.2   294  ASP294      0.3668
     16  OD1      168.5780   20.3530   -7.4420 O.co2 294  ASP294     -0.2456
     17  OD2      167.4490   22.1940   -6.9500 O.co2 294  ASP294     -0.2456
     18  N        173.6390   22.4800  -12.1450 N.3   301  LYS301     -0.1245
     19  CA       173.6960   23.9070  -11.8800 C.3   301  LYS301      0.1561
     20  C        175.0900   24.4190  -12.2110 C.2   301  LYS301      0.2260
     21  O        175.9160   24.6770  -11.3200 O.2   301  LYS301     -0.2867
     22  CB       173.3160   24.2060  -10.4260 C.3   301  LYS301      0.0271
     23  CG       171.8470   23.9980  -10.1240 C.3   301  LYS301      0.0035
     24  CD       171.5350   24.3800   -8.6830 C.3   301  LYS301      0.0206
     25  CE       170.1000   24.0540   -8.3380 C.3   301  LYS301      0.1093
     26  NZ       169.1280   24.8220   -9.1460 N.3   301  LYS301     -0.1314
     27  N        175.7710   32.3040  -12.2610 N.3   305  GLY305     -0.1210
     28  CA       174.6450   32.7780  -11.4820 C.3   305  GLY305      0.1956
     29  C        173.7820   31.7160  -10.8330 C.2   305  GLY305      0.2613
     30  O        172.8580   32.0690  -10.0850 O.2   305  GLY305     -0.2717
     31  N        174.0450   30.4300  -11.0710 N.am  306  SER306     -0.1938
     32  CA       173.1540   29.3910  -10.5590 C.3   306  SER306      0.2055
     33  C        173.3620   29.0890   -9.0770 C.2   306  SER306      0.2642
     34  O        172.5060   28.4230   -8.4860 O.2   306  SER306     -0.2714
     35  CB       173.3120   28.1060  -11.3830 C.3   306  SER306      0.2130
     36  OG       174.6620   27.6710  -11.4120 O.3   306  SER306     -0.2179
     37  N        174.4720   29.5480   -8.4810 N.am  307  MET307     -0.1976
     38  CA       174.7170   29.4820   -7.0320 C.3   307  MET307      0.1605
     39  C        174.5390   28.0760   -6.4560 C.2   307  MET307      0.2287
     40  O        173.8160   27.8640   -5.4700 O.2   307  MET307     -0.2864
     41  CB       173.8400   30.4860   -6.2970 C.3   307  MET307      0.0413
     42  CG       174.3800   31.9040   -6.3250 C.3   307  MET307      0.0598
     43  SD       173.7110   32.9010   -4.9850 S.3   307  MET307     -0.1393
     44  CE       175.2040   33.3130   -4.0750 C.3   307  MET307      0.0692
     45  N        174.7570   27.5100   -2.6210 N.3   310  LEU310     -0.1231
     46  CA       173.6670   27.8590   -1.7240 C.3   310  LEU310      0.1693
     47  C        172.6640   26.7160   -1.5460 C.2   310  LEU310      0.2591
     48  O        171.8040   26.7780   -0.6620 O.2   310  LEU310     -0.2718
     49  CB       172.9650   29.1090   -2.2720 C.3   310  LEU310      0.0284
     50  CG       171.7010   29.7070   -1.6370 C.3   310  LEU310      0.0019
     51  CD1      172.0050   30.3380   -0.2920 C.3   310  LEU310      0.0001
     52  CD2      171.0460   30.7330   -2.5830 C.3   310  LEU310      0.0001
     53  N        172.7820   25.6520   -2.3390 N.am  311  MET311     -0.1979
     54  CA       171.6580   24.7560   -2.5480 C.3   311  MET311      0.1605
     55  C        171.4040   23.7970   -1.3940 C.2   311  MET311      0.2287
     56  O        170.4720   22.9960   -1.4850 O.2   311  MET311     -0.2864
     57  CB       171.8460   24.0250   -3.8680 C.3   311  MET311      0.0413
     58  CG       171.5900   24.9680   -5.0610 C.3   311  MET311      0.0598
     59  SD       169.9720   25.8060   -5.0020 S.3   311  MET311     -0.1393
     60  CE       170.3900   27.3720   -5.7810 C.3   311  MET311      0.0692
     61  N        170.0350   25.1360    0.9700 N.3   313  PHE313     -0.1227
     62  CA       168.8240   25.7860    1.4420 C.3   313  PHE313      0.1736
     63  C        167.5560   25.2500    0.7830 C.2   313  PHE313      0.2595
     64  O        166.4770   25.7810    1.0510 O.2   313  PHE313     -0.2718
     65  CB       168.9120   27.3090    1.2390 C.3   313  PHE313      0.0547
     66  CG       168.3820   27.8050   -0.1030 C.ar  313  PHE313     -0.0202
     67  CD1      167.4340   28.8360   -0.1610 C.ar  313  PHE313     -0.0042
     68  CD2      168.8570   27.2770   -1.2990 C.ar  313  PHE313     -0.0042
     69  CE1      166.9650   29.3160   -1.4030 C.ar  313  PHE313     -0.0003
     70  CE2      168.3920   27.7380   -2.5270 C.ar  313  PHE313     -0.0003
     71  CZ       167.4500   28.7490   -2.5860 C.ar  313  PHE313     -0.0000
     72  N        167.6560   24.2240   -0.0710 N.am  314  ASP314     -0.1974
     73  CA       166.5070   23.7850   -0.8490 C.3   314  ASP314      0.1709
     74  C        165.5490   22.9250   -0.0380 C.2   314  ASP314      0.2293
     75  O        164.5890   22.4130   -0.6070 O.2   314  ASP314     -0.2864
     76  CB       166.9580   23.0290   -2.1030 C.3   314  ASP314      0.1436
     77  CG       166.1160   23.3830   -3.3320 C.2   314  ASP314      0.3671
     78  OD1      165.4370   24.4340   -3.3000 O.co2 314  ASP314     -0.2456
     79  OD2      166.1250   22.6250   -4.3320 O.co2 314  ASP314     -0.2456
     80  N        163.6460   18.7860  -17.4720 N.3   372  ASN372     -0.1240
     81  CA       164.7680   19.4080  -16.7790 C.3   372  ASN372      0.1653
     82  C        164.8050   18.8400  -15.3690 C.2   372  ASN372      0.2266
     83  O        163.8460   19.0360  -14.6080 O.2   372  ASN372     -0.2867
     84  CB       164.6250   20.9390  -16.7390 C.3   372  ASN372      0.1155
     85  CG       165.8780   21.6240  -16.2090 C.2   372  ASN372      0.2627
     86  OD1      166.4040   21.2500  -15.1680 O.2   372  ASN372     -0.2716
     87  ND2      166.3750   22.6040  -16.9420 N.am  372  ASN372     -0.0877
     88  N        166.4700   19.7040  -12.8890 N.3   374  ASP374     -0.1225
     89  CA       166.5770   20.7590  -11.8900 C.3   374  ASP374      0.1805
     90  C        165.2180   21.3610  -11.5290 C.2   374  ASP374      0.2598
     91  O        165.1490   22.1490  -10.5950 O.2   374  ASP374     -0.2718
     92  CB       167.5480   21.8510  -12.3870 C.3   374  ASP374      0.1424
     93  CG       168.1290   22.7020  -11.2540 C.2   374  ASP374      0.3668
     94  OD1      167.9740   22.3030  -10.0890 O.co2 374  ASP374     -0.2456
     95  OD2      168.7480   23.7640  -11.5170 O.co2 374  ASP374     -0.2456
     96  N        164.1330   21.0090  -12.2240 N.am  375  ALA375     -0.1966
     97  CA       162.7790   21.3080  -11.7420 C.3   375  ALA375      0.1728
     98  C        162.2280   20.1070  -10.9690 C.2   375  ALA375      0.2616
     99  O        161.1670   19.5530  -11.2830 O.2   375  ALA375     -0.2715
    100  CB       161.8720   21.6870  -12.9040 C.3   375  ALA375      0.0334
    101  N        162.9980   19.6970   -9.9490 N.am  376  GLU376     -0.1963
    102  CA       162.7270   18.4820   -9.1790 C.3   376  GLU376      0.1733
    103  C        161.8160   18.7230   -7.9850 C.2   376  GLU376      0.2617
    104  O        161.1330   17.7890   -7.5370 O.2   376  GLU376     -0.2715
    105  CB       164.0400   17.8420   -8.6940 C.3   376  GLU376      0.0429
    106  CG       164.5690   18.3880   -7.3300 C.3   376  GLU376      0.1163
    107  CD       165.1550   19.8050   -7.4420 C.2   376  GLU376      0.3649
    108  OE1      165.5360   20.1980   -8.5730 O.co2 376  GLU376     -0.2457
    109  OE2      165.2260   20.5210   -6.4220 O.co2 376  GLU376     -0.2457
    110  N        161.7900   19.9530   -7.4560 N.am  377  GLY377     -0.1940
    111  CA       160.8970   20.2540   -6.3540 C.3   377  GLY377      0.2014
    112  C        159.4470   19.9710   -6.6900 C.2   377  GLY377      0.2638
    113  O        158.7190   19.3940   -5.8840 O.2   377  GLY377     -0.2714
    114  N        159.0080   20.3720   -7.8830 N.am  378  ARG378     -0.1977
    115  CA       157.6020   20.1750   -8.2220 C.3   378  ARG378      0.1597
    116  C        157.2660   18.6920   -8.3700 C.2   378  ARG378      0.2287
    117  O        156.1010   18.3090   -8.1750 O.2   378  ARG378     -0.2864
    118  CB       157.2500   20.9470   -9.5090 C.3   378  ARG378      0.0334
    119  CG       157.7650   20.3160  -10.8170 C.3   378  ARG378      0.0492
    120  CD       157.7070   21.3130  -11.9980 C.3   378  ARG378      0.2205
    121  NE       158.5190   22.5100  -11.7820 N.pl3 378  ARG378     -0.0865
    122  CZ       158.5770   23.5520  -12.6150 C.cat 378  ARG378      0.5346
    123  NH1      157.8730   23.5730  -13.7430 N.pl3 378  ARG378      0.1354
    124  NH2      159.3510   24.5760  -12.3220 N.pl3 378  ARG378      0.1354
    125  N        161.0430   26.4160   -1.7410 N.3   401  THR401     -0.1203
    126  CA       161.9900   27.2330   -2.5220 C.3   401  THR401      0.1994
    127  C        161.9510   26.7450   -3.9720 C.2   401  THR401      0.2618
    128  O        162.8630   26.0900   -4.4700 O.2   401  THR401     -0.2717
    129  CB       163.4040   27.1380   -1.9680 C.3   401  THR401      0.1784
    130  OG1      163.7430   25.7590   -1.7890 O.3   401  THR401     -0.2211
    131  CG2      163.5460   27.8690   -0.6470 C.3   401  THR401      0.0376
    132  N        160.8610   27.0750   -4.6540 N.am  402  LEU402     -0.1965
    133  CA       160.5650   26.3620   -5.8920 C.3   402  LEU402      0.1728
    134  C        161.2450   26.9760   -7.1080 C.2   402  LEU402      0.2617
    135  O        161.9290   26.2600   -7.8420 O.2   402  LEU402     -0.2715
    136  CB       159.0500   26.2730   -6.1130 C.3   402  LEU402      0.0311
    137  CG       158.5330   25.0080   -6.8250 C.3   402  LEU402      0.0022
    138  CD1      158.9210   23.6870   -6.1140 C.3   402  LEU402      0.0001
    139  CD2      157.0160   25.0700   -7.0690 C.3   402  LEU402      0.0001
    140  N        161.0940   28.2790   -7.3490 N.am  403  THR403     -0.1937
    141  CA       161.5750   28.8710   -8.5970 C.3   403  THR403      0.2028
    142  C        162.4520   30.0910   -8.3450 C.2   403  THR403      0.2643
    143  O        162.0780   31.0130   -7.6060 O.2   403  THR403     -0.2714
    144  CB       160.4050   29.2730   -9.5210 C.3   403  THR403      0.1808
    145  OG1      159.6040   30.2680   -8.8820 O.3   403  THR403     -0.2208
    146  CG2      159.5130   28.0800   -9.8340 C.3   403  THR403      0.0379
    147  N        163.6020   30.1170   -9.0060 N.am  404  GLY404     -0.1939
    148  CA       164.4540   31.2840   -8.9120 C.3   404  GLY404      0.2014
    149  C        163.8500   32.5160   -9.5370 C.2   404  GLY404      0.2638
    150  O        164.2880   33.6320   -9.2360 O.2   404  GLY404     -0.2714
    151  N        162.8440   32.3480  -10.3910 N.am  405  ALA405     -0.1977
    152  CA       162.1930   33.5120  -10.9660 C.3   405  ALA405      0.1597
    153  C        161.5300   34.3980   -9.9080 C.2   405  ALA405      0.2287
    154  O        161.1620   35.5440  -10.2230 O.2   405  ALA405     -0.2864
    155  CB       161.1800   33.0680  -12.0160 C.3   405  ALA405      0.0319
    156  N        163.0300   35.8310   -7.5750 N.3   407  LEU407     -0.1245
    157  CA       163.9560   36.9430   -7.4060 C.3   407  LEU407      0.1561
    158  C        163.6430   38.0730   -8.3780 C.2   407  LEU407      0.2260
    159  O        163.9660   39.2330   -8.1030 O.2   407  LEU407     -0.2867
    160  CB       165.4050   36.4700   -7.6050 C.3   407  LEU407      0.0270
    161  CG       166.1640   35.7910   -6.4530 C.3   407  LEU407      0.0019
    162  CD1      167.5140   35.3030   -6.9390 C.3   407  LEU407      0.0001
    163  CD2      166.3650   36.7360   -5.2950 C.3   407  LEU407      0.0001
    164  N        157.8610   20.7550  -17.3200 N.3   462  ILE462     -0.1245
    165  CA       158.2100   22.1580  -17.5280 C.3   462  ILE462      0.1561
    166  C        157.6490   22.6530  -18.8540 C.2   462  ILE462      0.2260
    167  O        157.3400   21.8730  -19.7580 O.2   462  ILE462     -0.2867
    168  CB       159.7340   22.3880  -17.5120 C.3   462  ILE462      0.0252
    169  CG1      160.3900   21.5850  -18.6460 C.3   462  ILE462      0.0019
    170  CG2      160.3150   22.0420  -16.1480 C.3   462  ILE462      0.0019
    171  CD1      161.8220   22.0240  -18.9530 C.3   462  ILE462      0.0001
    172  N        158.1780   31.0890  -14.8820 N.3   469  SER469     -0.1217
    173  CA       158.3050   29.7280  -14.3870 C.3   469  SER469      0.1889
    174  C        157.6570   29.5390  -13.0100 C.2   469  SER469      0.2288
    175  O        157.2040   28.4330  -12.6890 O.2   469  SER469     -0.2866
    176  CB       159.7890   29.3210  -14.3920 C.3   469  SER469      0.2089
    177  OG       160.5550   30.1750  -13.5700 O.3   469  SER469     -0.2183
    178  N        161.4970   30.8900   -2.6770 N.3   492  ALA492     -0.1231
    179  CA       162.8410   30.7310   -3.2320 C.3   492  ALA492      0.1694
    180  C        163.6660   32.0120   -3.1130 C.2   492  ALA492      0.2592
    181  O        164.8850   31.9440   -2.9480 O.2   492  ALA492     -0.2718
    182  CB       162.7720   30.2710   -4.6850 C.3   492  ALA492      0.0304
    183  N        163.0250   33.1860   -3.1400 N.am  493  GLY493     -0.1957
    184  CA       163.7760   34.4300   -3.0900 C.3   493  GLY493      0.1869
    185  C        163.9680   35.0360   -1.7160 C.2   493  GLY493      0.2309
    186  O        164.9110   35.7980   -1.5080 O.2   493  GLY493     -0.2863
    187  N        166.7680   33.1040    2.0220 N.3   496  TRP496     -0.1241
    188  CA       168.1360   33.3280    2.4390 C.3   496  TRP496      0.1605
    189  C        168.4080   34.8210    2.5560 C.2   496  TRP496      0.2264
    190  O        168.1090   35.5860    1.6350 O.2   496  TRP496     -0.2867
    191  CB       169.1090   32.6810    1.4580 C.3   496  TRP496      0.0550
    192  CG       170.4990   32.6450    1.9860 C.ar  496  TRP496      0.0003
    193  CD1      171.4840   33.5560    1.7490 C.ar  496  TRP496      0.0946
    194  CD2      171.0680   31.6470    2.8440 C.ar  496  TRP496      0.0152
    195  NE1      172.6240   33.1900    2.4080 N.ar  496  TRP496     -0.2442
    196  CE2      172.3990   32.0200    3.0850 C.ar  496  TRP496      0.0810
    197  CE3      170.5770   30.4730    3.4230 C.ar  496  TRP496      0.0012
    198  CZ2      173.2530   31.2660    3.8830 C.ar  496  TRP496      0.0191
    199  CZ3      171.4280   29.7190    4.2170 C.ar  496  TRP496      0.0001
    200  CH2      172.7460   30.1200    4.4450 C.ar  496  TRP496      0.0015
    201  N        170.9100   37.2610    2.1500 N.3   498  PHE498     -0.1241
    202  CA       172.2160   37.3430    1.5060 C.3   498  PHE498      0.1605
    203  C        173.1230   38.3620    2.1810 C.2   498  PHE498      0.2264
    204  O        174.3390   38.1420    2.2600 O.2   498  PHE498     -0.2867
    205  CB       172.0470   37.6720    0.0280 C.3   498  PHE498      0.0534
    206  CG       171.5540   36.5240   -0.7740 C.ar  498  PHE498     -0.0203
    207  CD1      170.2110   36.4060   -1.0820 C.ar  498  PHE498     -0.0042
    208  CD2      172.4300   35.5350   -1.1970 C.ar  498  PHE498     -0.0042
    209  CE1      169.7520   35.3410   -1.8220 C.ar  498  PHE498     -0.0003
    210  CE2      171.9750   34.4770   -1.9340 C.ar  498  PHE498     -0.0003
    211  CZ       170.6320   34.3730   -2.2410 C.ar  498  PHE498     -0.0000
@<TRIPOS>BOND
     1   167   166    2
     2   171   169    1
     3   166   165    1
     4   169   168    1
     5   165   168    1
     6   165   164    1
     7   168   170    1
     8    80    81    1
     9    87    85   am
    10    81    84    1
    11    81    82    1
    12    84    85    1
    13    85    86    2
    14    82    83    2
    15   172   173    1
    16   176   173    1
    17   176   177    1
    18   173   174    1
    19   123   122    1
    20   174   175    2
    21   100    97    1
    22    88    89    1
    23   122   124    1
    24   122   121    2
    25    92    89    1
    26    92    93    1
    27    27    28    1
    28    96    97    1
    29    96    90   am
    30    20    19    1
    31    20    21    2
    32    18    19    1
    33   155   152    1
    34   120   121    1
    35   120   119    1
    36    89    90    1
    37    19    22    1
    38    97    98    1
    39    90    91    2
    40    95    93   ar
    41    28    29    1
    42    36    35    1
    43    35    32    1
    44    99    98    2
    45    93    94   ar
    46    31    29   am
    47    31    32    1
    48    98   101   am
    49   152   151    1
    50   152   153    1
    51    29    30    2
    52   119   118    1
    53    32    33    1
    54    22    23    1
    55   151   149   am
    56   154   153    2
    57    23    24    1
    58   101   102    1
    59   146   144    1
    60   149   150    2
    61   149   148    1
    62   144   145    1
    63   144   141    1
    64   118   115    1
    65   102   105    1
    66   102   103    1
    67    26    25    1
    68    33    34    2
    69    33    37   am
    70   147   148    1
    71   147   142   am
    72   105   106    1
    73    24    25    1
    74   141   142    1
    75   141   140    1
    76   108   107   ar
    77    37    38    1
    78   158   159    2
    79   158   157    1
    80   116   115    1
    81   116   117    2
    82   142   143    2
    83   115   114    1
    84   103   104    2
    85   103   110   am
    86   114   112   am
    87   135   134    2
    88   160   157    1
    89   160   161    1
    90   156   157    1
    91   110   111    1
    92    16    15   ar
    93   107   106    1
    94   107   109   ar
    95   140   134   am
    96   134   133    1
    97   139   137    1
    98    38    39    1
    99    38    41    1
   100    17    15   ar
   101   162   161    1
   102   137   138    1
   103   137   136    1
   104   112   111    1
   105   112   113    2
   106    15    14    1
   107    39    40    2
   108   161   163    1
   109    13    12    2
   110    42    41    1
   111    42    43    1
   112   136   133    1
   113    12    11    1
   114   133   132    1
   115    60    59    1
   116    14    11    1
   117    11    10    1
   118     9     8    1
   119    58    59    1
   120    58    57    1
   121    43    44    1
   122   182   179    1
   123   132   127   am
   124   128   127    2
   125    79    77   ar
   126     8     7    1
   127   127   126    1
   128    57    54    1
   129    77    78   ar
   130    77    76    1
   131   179   180    1
   132   179   178    1
   133   183   180   am
   134   183   184    1
   135   180   181    2
   136   184   185    1
   137     7     6    1
   138    45    46    1
   139    71    70   ar
   140    71    69   ar
   141    52    50    1
   142    54    53    1
   143    54    55    1
   144    70    68   ar
   145   126   129    1
   146   126   125    1
   147    53    47   am
   148    49    46    1
   149    49    50    1
   150   211   210   ar
   151   211   209   ar
   152     6     5    1
   153    76    73    1
   154   129   130    1
   155   129   131    1
   156   210   208   ar
   157   209   207   ar
   158    46    47    1
   159   185   186    2
   160    50    51    1
   161    47    48    2
   162    56    55    2
   163    69    67   ar
   164    68    66   ar
   165   208   206   ar
   166     5     2    1
   167   207   206   ar
   168    73    72    1
   169    73    74    1
   170   206   205    1
   171    75    74    2
   172    67    66   ar
   173    66    65    1
   174    72    63   am
   175     2     3    1
   176     2     1    1
   177   205   202    1
   178     3     4    2
   179    63    64    2
   180    63    62    1
   181    61    62    1
   182    65    62    1
   183   191   192    1
   184   191   188    1
   185   202   201    1
   186   202   203    1
   187   190   189    2
   188   193   192   ar
   189   193   195   ar
   190   192   194   ar
   191   187   188    1
   192   203   204    2
   193   195   196   ar
   194   188   189    1
   195   194   196   ar
   196   194   197   ar
   197   196   198   ar
   198   197   199   ar
   199   198   200   ar
   200   199   200   ar
