@<TRIPOS>MOLECULE
tmp/6ee3A00.pdb
 210 200 0 0 0
SMALL
GASTEIGER

@<TRIPOS>ATOM
      1  N         93.4270  125.1990   25.6750 N.3   109  LEU109     -0.1231
      2  CA        93.4490  125.6390   24.2620 C.3   109  LEU109      0.1693
      3  C         92.0510  125.5490   23.6360 C.2   109  LEU109      0.2592
      4  O         91.8780  125.2520   22.4410 O.2   109  LEU109     -0.2718
      5  CB        94.4770  124.8280   23.4540 C.3   109  LEU109      0.0284
      6  CG        95.8460  124.5980   24.1570 C.3   109  LEU109      0.0019
      7  CD1       96.8210  123.9470   23.2190 C.3   109  LEU109      0.0001
      8  CD2       96.4630  125.8870   24.7250 C.3   109  LEU109      0.0001
      9  N         91.0460  125.8260   24.4670 N.am  110  THR110     -0.1953
     10  CA        89.6690  125.9320   24.0110 C.3   110  THR110      0.1897
     11  C         89.0790  127.2320   24.5460 C.2   110  THR110      0.2313
     12  O         89.3780  127.6380   25.6760 O.2   110  THR110     -0.2863
     13  CB        88.8230  124.7370   24.4850 C.3   110  THR110      0.1794
     14  OG1       88.8890  124.6470   25.9200 O.3   110  THR110     -0.2208
     15  CG2       89.3350  123.4310   23.8590 C.3   110  THR110      0.0378
     16  N         89.4980  129.1960   19.9000 N.3   122  GLN122     -0.1245
     17  CA        89.0500  127.9350   19.2970 C.3   122  GLN122      0.1566
     18  C         87.6770  127.6230   19.8720 C.2   122  GLN122      0.2260
     19  O         87.5450  127.2280   21.0430 O.2   122  GLN122     -0.2867
     20  CB        90.0270  126.7850   19.5750 C.3   122  GLN122      0.0367
     21  CG        89.5390  125.4000   19.1590 C.3   122  GLN122      0.0905
     22  CD        89.1800  125.3500   17.7020 C.2   122  GLN122      0.2608
     23  OE1       89.8760  125.9310   16.8650 O.2   122  GLN122     -0.2717
     24  NE2       88.0780  124.6700   17.3780 N.am  122  GLN122     -0.0878
     25  N         84.9850  125.6960   18.0750 N.3   124  GLU124     -0.1231
     26  CA        84.3640  124.3900   17.8390 C.3   124  GLU124      0.1699
     27  C         84.8180  123.4080   18.9230 C.2   124  GLU124      0.2592
     28  O         85.9960  123.3810   19.2510 O.2   124  GLU124     -0.2718
     29  CB        84.7070  123.8280   16.4510 C.3   124  GLU124      0.0402
     30  CG        83.7390  122.6900   16.0660 C.3   124  GLU124      0.1161
     31  CD        84.0070  122.1120   14.7050 C.2   124  GLU124      0.3649
     32  OE1       84.8780  122.6470   14.0030 O.co2 124  GLU124     -0.2457
     33  OE2       83.3460  121.1190   14.3290 O.co2 124  GLU124     -0.2457
     34  N         83.9120  122.6050   19.4970 N.am  125  ALA125     -0.1966
     35  CA        82.4880  122.5990   19.2020 C.3   125  ALA125      0.1728
     36  C         81.7150  123.5200   20.1250 C.2   125  ALA125      0.2617
     37  O         80.8730  124.2750   19.6710 O.2   125  ALA125     -0.2715
     38  CB        81.9160  121.1470   19.3060 C.3   125  ALA125      0.0334
     39  N         82.0010  123.4460   21.4180 N.am  126  THR126     -0.1937
     40  CA        81.2720  124.2620   22.3840 C.3   126  THR126      0.2028
     41  C         82.2390  125.1220   23.2180 C.2   126  THR126      0.2642
     42  O         82.1360  125.2070   24.4490 O.2   126  THR126     -0.2714
     43  CB        80.3930  123.3750   23.2870 C.3   126  THR126      0.1808
     44  OG1       81.2090  122.4120   23.9720 O.3   126  THR126     -0.2208
     45  CG2       79.3580  122.6220   22.4390 C.3   126  THR126      0.0379
     46  N         83.1550  125.7920   22.5260 N.am  127  GLY127     -0.1954
     47  CA        84.1180  126.6620   23.1710 C.3   127  GLY127      0.1869
     48  C         83.7040  128.1360   23.2090 C.2   127  GLY127      0.2309
     49  O         84.3040  128.8850   23.9530 O.2   127  GLY127     -0.2863
     50  N         95.1180  122.1220   19.5090 N.3   263  ASN263     -0.1225
     51  CA        94.7450  120.7510   19.8870 C.3   263  ASN263      0.1785
     52  C         94.6870  119.7840   18.7040 C.2   263  ASN263      0.2597
     53  O         94.8810  118.5890   18.8790 O.2   263  ASN263     -0.2718
     54  CB        93.4100  120.7410   20.6470 C.3   263  ASN263      0.1169
     55  CG        93.5490  121.2850   22.0500 C.2   263  ASN263      0.2627
     56  OD1       94.6590  121.3490   22.5790 O.2   263  ASN263     -0.2716
     57  ND2       92.4300  121.7080   22.6620 N.am  263  ASN263     -0.0877
     58  N         94.4030  120.3070   17.5110 N.am  264  VAL264     -0.1966
     59  CA        94.3020  119.4840   16.3030 C.3   264  VAL264      0.1727
     60  C         95.0910  120.0650   15.1290 C.2   264  VAL264      0.2617
     61  O         96.1020  120.7380   15.3310 O.2   264  VAL264     -0.2715
     62  CB        92.8360  119.2900   15.8750 C.3   264  VAL264      0.0290
     63  CG1       92.0790  118.4870   16.9220 C.3   264  VAL264      0.0023
     64  CG2       92.1690  120.6370   15.6420 C.3   264  VAL264      0.0023
     65  N         94.6340  119.8070   13.9030 N.am  265  GLY265     -0.1940
     66  CA        95.3350  120.3220   12.7230 C.3   265  GLY265      0.2014
     67  C         95.0180  121.7660   12.3340 C.2   265  GLY265      0.2639
     68  O         95.9290  122.5860   12.1380 O.2   265  GLY265     -0.2714
     69  N         93.7300  122.0790   12.1940 N.am  266  ALA266     -0.1963
     70  CA        93.2990  123.4290   11.8240 C.3   266  ALA266      0.1728
     71  C         91.7920  123.5730   11.9870 C.2   266  ALA266      0.2616
     72  O         91.0650  122.5890   12.2100 O.2   266  ALA266     -0.2715
     73  CB        93.7010  123.7680   10.3920 C.3   266  ALA266      0.0334
     74  N         91.3200  124.7990   11.8490 N.am  267  MET267     -0.1963
     75  CA        89.9260  125.1240   12.1210 C.3   267  MET267      0.1736
     76  C         89.3880  126.0940   11.0670 C.2   267  MET267      0.2616
     77  O         90.0210  127.1110   10.7980 O.2   267  MET267     -0.2715
     78  CB        89.7970  125.7530   13.5050 C.3   267  MET267      0.0427
     79  CG        88.3710  126.2180   13.8320 C.3   267  MET267      0.0599
     80  SD        87.2290  124.7940   13.8560 S.3   267  MET267     -0.1393
     81  CE        85.7220  125.5780   13.2610 C.3   267  MET267      0.0692
     82  N         88.2060  125.8050   10.5270 N.am  268  GLU268     -0.1977
     83  CA        87.6570  126.5480    9.3810 C.3   268  GLU268      0.1602
     84  C         86.8540  127.8260    9.7230 C.2   268  GLU268      0.2287
     85  O         85.9010  128.1740    9.0170 O.2   268  GLU268     -0.2864
     86  CB        86.7720  125.5950    8.5640 C.3   268  GLU268      0.0415
     87  CG        85.4110  125.2480    9.2230 C.3   268  GLU268      0.1163
     88  CD        85.4260  124.0160   10.1240 C.2   268  GLU268      0.3649
     89  OE1       86.5100  123.6000   10.6060 O.co2 268  GLU268     -0.2457
     90  OE2       84.3270  123.4710   10.3390 O.co2 268  GLU268     -0.2457
     91  N        100.9280  117.3580    3.8930 N.3   294  ARG294     -0.1245
     92  CA       100.0830  117.7080    5.0350 C.3   294  ARG294      0.1563
     93  C         99.4560  119.1050    4.8560 C.2   294  ARG294      0.2260
     94  O         98.2530  119.2680    5.0550 O.2   294  ARG294     -0.2867
     95  CB       100.9020  117.6380    6.3380 C.3   294  ARG294      0.0307
     96  CG       100.1850  118.1270    7.6080 C.3   294  ARG294      0.0489
     97  CD        99.1110  117.1600    8.0760 C.3   294  ARG294      0.2205
     98  NE        98.5790  117.5530    9.3880 N.pl3 294  ARG294     -0.0865
     99  CZ        97.7530  116.8040   10.1140 C.cat 294  ARG294      0.5346
    100  NH1       97.3720  115.6130    9.6590 N.pl3 294  ARG294      0.1354
    101  NH2       97.3120  117.2420   11.2910 N.pl3 294  ARG294      0.1354
    102  N         95.5780  119.9990    4.6390 N.3   298  VAL298     -0.1245
    103  CA        94.8860  120.7580    5.6800 C.3   298  VAL298      0.1561
    104  C         94.4060  122.1360    5.1680 C.2   298  VAL298      0.2260
    105  O         93.2900  122.5450    5.4820 O.2   298  VAL298     -0.2867
    106  CB        95.7720  120.9030    6.9240 C.3   298  VAL298      0.0252
    107  CG1       95.0910  121.7700    7.9810 C.3   298  VAL298      0.0019
    108  CG2       96.0830  119.5130    7.4890 C.3   298  VAL298      0.0019
    109  N         91.4150  121.2170    3.0750 N.3   301  HIS301     -0.1226
    110  CA        90.3090  120.8340    3.9530 C.3   301  HIS301      0.1752
    111  C         89.5700  122.0490    4.5230 C.2   301  HIS301      0.2595
    112  O         88.3460  122.1570    4.4020 O.2   301  HIS301     -0.2718
    113  CB        90.8520  119.9570    5.0810 C.3   301  HIS301      0.0759
    114  CG        89.8040  119.4320    6.0060 C.ar  301  HIS301      0.0818
    115  ND1       89.2800  118.1580    5.8900 N.ar  301  HIS301     -0.2268
    116  CD2       89.2070  119.9890    7.0890 C.ar  301  HIS301      0.1154
    117  CE1       88.3900  117.9660    6.8490 C.ar  301  HIS301      0.1986
    118  NE2       88.3300  119.0630    7.5880 N.ar  301  HIS301     -0.2212
    119  N         90.3050  122.9760    5.1300 N.am  302  GLU302     -0.1979
    120  CA        89.6530  124.1510    5.7100 C.3   302  GLU302      0.1602
    121  C         88.9950  125.0160    4.6360 C.2   302  GLU302      0.2287
    122  O         87.9170  125.5740    4.8650 O.2   302  GLU302     -0.2864
    123  CB        90.6540  124.9820    6.5290 C.3   302  GLU302      0.0415
    124  CG        91.4910  124.1360    7.5410 C.3   302  GLU302      0.1163
    125  CD        90.6540  123.2230    8.4400 C.2   302  GLU302      0.3649
    126  OE1       89.4580  123.5100    8.7270 O.co2 302  GLU302     -0.2457
    127  OE2       91.1940  122.1810    8.8630 O.co2 302  GLU302     -0.2457
    128  N         85.6050  123.5690    3.5370 N.3   305  HIS305     -0.1241
    129  CA        84.5840  123.8230    4.5580 C.3   305  HIS305      0.1621
    130  C         83.7670  125.0840    4.2710 C.2   305  HIS305      0.2264
    131  O         82.6520  125.2410    4.7890 O.2   305  HIS305     -0.2867
    132  CB        85.2220  123.9730    5.9510 C.3   305  HIS305      0.0745
    133  CG        85.2900  122.6990    6.7430 C.ar  305  HIS305      0.0817
    134  ND1       84.2210  121.8270    6.8670 N.ar  305  HIS305     -0.2268
    135  CD2       86.2970  122.1580    7.4640 C.ar  305  HIS305      0.1154
    136  CE1       84.5700  120.8070    7.6300 C.ar  305  HIS305      0.1986
    137  NE2       85.8220  120.9890    8.0180 N.ar  305  HIS305     -0.2212
    138  N         82.2530  116.9170    8.1450 N.3   324  GLU324     -0.1245
    139  CA        83.6220  116.4070    8.1760 C.3   324  GLU324      0.1567
    140  C         83.8810  115.2710    7.1730 C.2   324  GLU324      0.2260
    141  O         84.9060  115.2770    6.4810 O.2   324  GLU324     -0.2867
    142  CB        83.9990  115.9520    9.5840 C.3   324  GLU324      0.0388
    143  CG        84.0130  117.1130   10.5900 C.3   324  GLU324      0.1160
    144  CD        84.9200  118.2740   10.1760 C.2   324  GLU324      0.3649
    145  OE1       85.8340  118.0920    9.3500 O.co2 324  GLU324     -0.2457
    146  OE2       84.7550  119.3670   10.7470 O.co2 324  GLU324     -0.2457
    147  N         86.4550  115.8750    4.1490 N.3   328  VAL328     -0.1245
    148  CA        87.6010  114.9530    3.8990 C.3   328  VAL328      0.1561
    149  C         87.5240  114.3490    2.4690 C.2   328  VAL328      0.2260
    150  O         88.5400  114.1830    1.7820 O.2   328  VAL328     -0.2867
    151  CB        87.6690  113.8320    4.9500 C.3   328  VAL328      0.0252
    152  CG1       88.8450  112.8550    4.6500 C.3   328  VAL328      0.0019
    153  CG2       87.8790  114.4170    6.3510 C.3   328  VAL328      0.0019
    154  N         81.8210  116.4270   23.5060 N.3   376  MET376     -0.1230
    155  CA        82.0740  116.7660   22.0930 C.3   376  MET376      0.1702
    156  C         83.5640  116.7890   21.8000 C.2   376  MET376      0.2592
    157  O         83.9860  116.5410   20.6800 O.2   376  MET376     -0.2718
    158  CB        81.4630  118.1340   21.7000 C.3   376  MET376      0.0401
    159  CG        79.9860  118.0770   21.3420 C.3   376  MET376      0.0596
    160  SD        79.5990  116.8380   20.0760 S.3   376  MET376     -0.1393
    161  CE        80.5740  117.4350   18.6910 C.3   376  MET376      0.0692
    162  N         84.3790  117.0970   22.7950 N.am  377  GLU377     -0.1979
    163  CA        85.8130  117.1460   22.5470 C.3   377  GLU377      0.1602
    164  C         86.3700  115.7710   22.1780 C.2   377  GLU377      0.2287
    165  O         87.4550  115.6850   21.6170 O.2   377  GLU377     -0.2864
    166  CB        86.5500  117.7390   23.7590 C.3   377  GLU377      0.0415
    167  CG        86.2260  119.2400   23.9580 C.3   377  GLU377      0.1163
    168  CD        87.0540  119.9030   25.0470 C.2   377  GLU377      0.3649
    169  OE1       87.7340  119.1860   25.8180 O.co2 377  GLU377     -0.2457
    170  OE2       87.0020  121.1470   25.1440 O.co2 377  GLU377     -0.2457
    171  N         85.4060  113.8190   17.6820 N.3   380  TYR380     -0.1241
    172  CA        86.0280  114.0330   16.3790 C.3   380  TYR380      0.1605
    173  C         86.9400  112.8600   16.0420 C.2   380  TYR380      0.2264
    174  O         88.1550  112.9460   16.1730 O.2   380  TYR380     -0.2867
    175  CB        86.7850  115.3780   16.3770 C.3   380  TYR380      0.0534
    176  CG        85.8160  116.5290   16.4350 C.ar  380  TYR380     -0.0201
    177  CD1       85.6080  117.3340   15.3180 C.ar  380  TYR380     -0.0009
    178  CD2       85.0580  116.7810   17.5880 C.ar  380  TYR380     -0.0009
    179  CE1       84.7010  118.3790   15.3510 C.ar  380  TYR380      0.0417
    180  CE2       84.1340  117.8320   17.6320 C.ar  380  TYR380      0.0417
    181  CZ        83.9570  118.6170   16.4960 C.ar  380  TYR380      0.1957
    182  OH        83.0530  119.6500   16.4890 O.3   380  TYR380     -0.2866
    183  N         85.3290  111.0120   10.5890 N.3   385  TYR385     -0.1227
    184  CA        86.1030  111.6360    9.5100 C.3   385  TYR385      0.1736
    185  C         86.3480  110.7030    8.3320 C.2   385  TYR385      0.2595
    186  O         86.0300  111.0360    7.1790 O.2   385  TYR385     -0.2718
    187  CB        87.4540  112.1190   10.0390 C.3   385  TYR385      0.0548
    188  CG        87.3510  113.4840   10.6810 C.ar  385  TYR385     -0.0200
    189  CD1       87.9060  114.5950   10.0650 C.ar  385  TYR385     -0.0009
    190  CD2       86.6310  113.6640   11.8620 C.ar  385  TYR385     -0.0009
    191  CE1       87.7860  115.8580   10.6360 C.ar  385  TYR385      0.0417
    192  CE2       86.5010  114.9210   12.4420 C.ar  385  TYR385      0.0417
    193  CZ        87.0750  116.0070   11.8130 C.ar  385  TYR385      0.1957
    194  OH        86.9680  117.2700   12.3550 O.3   385  TYR385     -0.2866
    195  N         86.9740  109.5650    8.6100 N.am  386  ASP386     -0.1974
    196  CA        87.5210  108.7440    7.5220 C.3   386  ASP386      0.1709
    197  C         86.5180  107.7290    7.0180 C.2   386  ASP386      0.2293
    198  O         86.3650  107.5590    5.8030 O.2   386  ASP386     -0.2864
    199  CB        88.8120  108.0690    7.9900 C.3   386  ASP386      0.1436
    200  CG        89.8790  109.1050    8.3420 C.2   386  ASP386      0.3671
    201  OD1       90.0880  109.9970    7.5100 O.co2 386  ASP386     -0.2456
    202  OD2       90.4240  109.0790    9.4730 O.co2 386  ASP386     -0.2456
    203  N         91.4970  117.3440   26.4130 N.3   839  MET839     -0.1245
    204  CA        91.3170  116.8630   25.0470 C.3   839  MET839      0.1570
    205  C         92.5610  116.1240   24.5710 C.2   839  MET839      0.2261
    206  O         92.4640  115.0120   24.0130 O.2   839  MET839     -0.2867
    207  CB        91.0070  118.0160   24.0930 C.3   839  MET839      0.0387
    208  CG        90.7100  117.5690   22.6880 C.3   839  MET839      0.0595
    209  SD        90.1070  118.9440   21.7080 S.3   839  MET839     -0.1393
    210  CE        89.6850  118.1170   20.1750 C.3   839  MET839      0.0692
@<TRIPOS>BOND
     1   150   149    2
     2   149   148    1
     3   109   110    1
     4   128   129    1
     5    91    92    1
     6   148   147    1
     7   148   151    1
     8   110   111    1
     9   110   113    1
    10   130   129    1
    11   130   131    2
    12   112   111    2
    13   111   119   am
    14   129   132    1
    15   121   122    2
    16   121   120    1
    17   102   103    1
    18   152   151    1
    19    93    92    1
    20    93    94    2
    21   151   153    1
    22    92    95    1
    23   113   114    1
    24   119   120    1
    25   104   105    2
    26   104   103    1
    27   103   106    1
    28   120   123    1
    29   198   197    2
    30   115   114   ar
    31   115   117   ar
    32   132   133    1
    33   114   116   ar
    34    95    96    1
    35   141   140    2
    36   123   124    1
    37   133   134   ar
    38   133   135   ar
    39   117   118   ar
    40   134   136   ar
    41   106   108    1
    42   106   107    1
    43   197   196    1
    44   116   118   ar
    45   140   139    1
    46   186   185    2
    47   135   137   ar
    48   201   200   ar
    49   196   199    1
    50   196   195    1
    51   124   125    1
    52    96    97    1
    53   136   137   ar
    54   199   200    1
    55    97    98    1
    56   138   139    1
    57   139   142    1
    58   185   195   am
    59   185   184    1
    60   200   202   ar
    61   125   126   ar
    62   125   127   ar
    63    86    87    1
    64    86    83    1
    65    85    84    2
    66    87    88    1
    67   145   144   ar
    68    83    84    1
    69    83    82    1
    70    98    99    2
    71   184   187    1
    72   184   183    1
    73   142   143    1
    74   100    99    1
    75   187   188    1
    76   189   191   ar
    77   189   188   ar
    78    99   101    1
    79    88    90   ar
    80    88    89   ar
    81   144   143    1
    82   144   146   ar
    83    73    70    1
    84    82    76   am
    85   191   193   ar
    86   188   190   ar
    87    77    76    2
    88    76    75    1
    89   193   194    1
    90   193   192   ar
    91    70    71    1
    92    70    69    1
    93    74    71   am
    94    74    75    1
    95   190   192   ar
    96    71    72    2
    97    75    78    1
    98    68    67    2
    99    69    67   am
   100    67    66    1
   101    66    65    1
   102    81    80    1
   103    78    79    1
   104    79    80    1
   105    65    60   am
   106    32    31   ar
   107    33    31   ar
   108    31    30    1
   109    60    61    2
   110    60    59    1
   111   177   179   ar
   112   177   176   ar
   113   179   181   ar
   114    64    62    1
   115    62    59    1
   116    62    63    1
   117   173   174    2
   118   173   172    1
   119    30    29    1
   120    59    58    1
   121   175   172    1
   122   175   176    1
   123   172   171    1
   124   176   178   ar
   125    29    26    1
   126   182   181    1
   127   181   180   ar
   128    23    22    2
   129    24    22   am
   130    58    52   am
   131   178   180   ar
   132    22    21    1
   133    26    25    1
   134    26    27    1
   135   161   160    1
   136    52    53    2
   137    52    51    1
   138    27    28    2
   139    27    34   am
   140    21    20    1
   141    35    38    1
   142    35    34    1
   143    35    36    1
   144    17    20    1
   145    17    18    1
   146    17    16    1
   147    50    51    1
   148    37    36    2
   149    18    19    2
   150    51    54    1
   151   160   159    1
   152    36    39   am
   153   210   209    1
   154    54    55    1
   155   157   156    2
   156   159   158    1
   157    39    40    1
   158   165   164    2
   159   158   155    1
   160   209   208    1
   161   156   155    1
   162   156   162   am
   163    55    56    2
   164    55    57   am
   165   155   154    1
   166   164   163    1
   167    40    41    1
   168    40    43    1
   169    45    43    1
   170     4     3    2
   171    46    47    1
   172    46    41   am
   173   163   162    1
   174   163   166    1
   175   208   207    1
   176    47    48    1
   177    48    49    2
   178    41    42    2
   179     7     6    1
   180    43    44    1
   181     5     6    1
   182     5     2    1
   183     3     2    1
   184     3     9   am
   185   166   167    1
   186    15    13    1
   187   167   168    1
   188    10     9    1
   189    10    13    1
   190    10    11    1
   191   206   205    2
   192   207   204    1
   193     6     8    1
   194     2     1    1
   195    13    14    1
   196    11    12    2
   197   205   204    1
   198   204   203    1
   199   168   170   ar
   200   168   169   ar
