@<TRIPOS>MOLECULE
tmp/6ee4A00.pdb
 202 194 0 0 0
SMALL
GASTEIGER

@<TRIPOS>ATOM
      1  N        -18.3770   16.5370  -25.5640 N.3   109  LEU109     -0.1231
      2  CA       -18.3750   16.9820  -24.1690 C.3   109  LEU109      0.1693
      3  C        -16.9750   16.9170  -23.5620 C.2   109  LEU109      0.2592
      4  O        -16.8010   16.6230  -22.3800 O.2   109  LEU109     -0.2718
      5  CB       -19.3970   16.2060  -23.3220 C.3   109  LEU109      0.0284
      6  CG       -20.7450   15.9150  -23.9980 C.3   109  LEU109      0.0019
      7  CD1      -21.7200   15.2550  -23.0190 C.3   109  LEU109      0.0001
      8  CD2      -21.3820   17.1910  -24.6100 C.3   109  LEU109      0.0001
      9  N        -15.9670   17.2130  -24.3820 N.am  110  THR110     -0.1953
     10  CA       -14.5870   17.3200  -23.9360 C.3   110  THR110      0.1897
     11  C        -14.0190   18.6200  -24.4830 C.2   110  THR110      0.2313
     12  O        -14.3440   19.0260  -25.6070 O.2   110  THR110     -0.2863
     13  CB       -13.7550   16.1250  -24.4150 C.3   110  THR110      0.1794
     14  OG1      -13.8360   16.0570  -25.8470 O.3   110  THR110     -0.2208
     15  CG2      -14.2660   14.8110  -23.7920 C.3   110  THR110      0.0378
     16  N        -14.4730   20.5280  -19.8240 N.3   122  GLN122     -0.1245
     17  CA       -14.0390   19.2710  -19.2190 C.3   122  GLN122      0.1566
     18  C        -12.6700   18.9580  -19.8010 C.2   122  GLN122      0.2260
     19  O        -12.5600   18.5990  -20.9810 O.2   122  GLN122     -0.2867
     20  CB       -15.0140   18.1330  -19.4940 C.3   122  GLN122      0.0367
     21  CG       -14.4830   16.7590  -19.0720 C.3   122  GLN122      0.0905
     22  CD       -14.1060   16.7010  -17.5950 C.2   122  GLN122      0.2608
     23  OE1      -14.8080   17.2470  -16.7480 O.2   122  GLN122     -0.2717
     24  NE2      -12.9860   16.0460  -17.2850 N.am  122  GLN122     -0.0878
     25  N         -9.9320   17.0320  -18.0160 N.3   124  GLU124     -0.1231
     26  CA        -9.2960   15.7460  -17.7490 C.3   124  GLU124      0.1699
     27  C         -9.7310   14.7600  -18.8290 C.2   124  GLU124      0.2592
     28  O        -10.8960   14.7530  -19.2260 O.2   124  GLU124     -0.2718
     29  CB        -9.6900   15.2130  -16.3660 C.3   124  GLU124      0.0402
     30  CG        -8.7460   14.0860  -15.9350 C.3   124  GLU124      0.1161
     31  CD        -9.0220   13.4940  -14.5810 C.2   124  GLU124      0.3649
     32  OE1       -8.3260   12.5170  -14.2590 O.co2 124  GLU124     -0.2457
     33  OE2       -9.9400   13.9540  -13.8680 O.co2 124  GLU124     -0.2457
     34  N         -8.8040   13.9430  -19.3500 N.am  125  ALA125     -0.1966
     35  CA        -7.3660   13.9530  -19.0690 C.3   125  ALA125      0.1728
     36  C         -6.6160   14.9160  -19.9750 C.2   125  ALA125      0.2617
     37  O         -5.7540   15.6570  -19.5050 O.2   125  ALA125     -0.2715
     38  CB        -6.7820   12.5240  -19.2430 C.3   125  ALA125      0.0334
     39  N         -6.9040   14.8630  -21.2810 N.am  126  THR126     -0.1937
     40  CA        -6.1680   15.6460  -22.2740 C.3   126  THR126      0.2028
     41  C         -7.1210   16.4880  -23.1090 C.2   126  THR126      0.2642
     42  O         -6.9970   16.5840  -24.3380 O.2   126  THR126     -0.2714
     43  CB        -5.3160   14.7420  -23.1630 C.3   126  THR126      0.1808
     44  OG1       -6.1440   13.7400  -23.7590 O.3   126  THR126     -0.2208
     45  CG2       -4.2240   14.0480  -22.3250 C.3   126  THR126      0.0379
     46  N         -8.0780   17.1260  -22.4410 N.am  127  GLY127     -0.1954
     47  CA        -9.0080   18.0260  -23.0930 C.3   127  GLY127      0.1869
     48  C         -8.5830   19.4890  -23.1240 C.2   127  GLY127      0.2309
     49  O         -9.1610   20.2620  -23.8890 O.2   127  GLY127     -0.2863
     50  N        -20.0620   13.4610  -19.4340 N.3   263  ASN263     -0.1225
     51  CA       -19.6790   12.1050  -19.8180 C.3   263  ASN263      0.1785
     52  C        -19.6400   11.1480  -18.6360 C.2   263  ASN263      0.2597
     53  O        -19.8780    9.9530  -18.8220 O.2   263  ASN263     -0.2718
     54  CB       -18.3300   12.1110  -20.5220 C.3   263  ASN263      0.1169
     55  CG       -18.4300   12.6610  -21.9240 C.2   263  ASN263      0.2627
     56  OD1      -19.5150   12.6940  -22.4950 O.2   263  ASN263     -0.2716
     57  ND2      -17.3080   13.0930  -22.4840 N.am  263  ASN263     -0.0877
     58  N        -19.3330   11.6330  -17.4290 N.am  264  VAL264     -0.1966
     59  CA       -19.2030   10.7630  -16.2590 C.3   264  VAL264      0.1727
     60  C        -20.0080   11.3460  -15.1000 C.2   264  VAL264      0.2617
     61  O        -21.0310   12.0050  -15.3200 O.2   264  VAL264     -0.2715
     62  CB       -17.7170   10.5430  -15.8960 C.3   264  VAL264      0.0290
     63  CG1      -17.0270    9.7950  -17.0500 C.3   264  VAL264      0.0023
     64  CG2      -17.0050   11.8710  -15.5970 C.3   264  VAL264      0.0023
     65  N        -19.5650   11.1080  -13.8670 N.am  265  GLY265     -0.1940
     66  CA       -20.2680   11.6100  -12.7000 C.3   265  GLY265      0.2014
     67  C        -19.9320   13.0450  -12.3110 C.2   265  GLY265      0.2639
     68  O        -20.8420   13.8540  -12.1370 O.2   265  GLY265     -0.2714
     69  N        -18.6480   13.3630  -12.1400 N.am  266  ALA266     -0.1963
     70  CA       -18.2370   14.7150  -11.7530 C.3   266  ALA266      0.1728
     71  C        -16.7260   14.8420  -11.8970 C.2   266  ALA266      0.2616
     72  O        -16.0060   13.8530  -12.0880 O.2   266  ALA266     -0.2715
     73  CB       -18.6510   15.0580  -10.3220 C.3   266  ALA266      0.0334
     74  N        -16.2490   16.0800  -11.7500 N.am  267  MET267     -0.1963
     75  CA       -14.8570   16.4170  -12.0150 C.3   267  MET267      0.1736
     76  C        -14.3330   17.4050  -10.9770 C.2   267  MET267      0.2616
     77  O        -14.9990   18.3890  -10.6530 O.2   267  MET267     -0.2715
     78  CB       -14.7190   17.0190  -13.4200 C.3   267  MET267      0.0427
     79  CG       -13.3170   17.4990  -13.7380 C.3   267  MET267      0.0599
     80  SD       -12.1700   16.1090  -13.7680 S.3   267  MET267     -0.1393
     81  CE       -10.6880   16.9760  -13.2370 C.3   267  MET267      0.0692
     82  N        -13.1060   17.1810  -10.5080 N.am  268  GLU268     -0.1977
     83  CA       -12.5910   17.8880   -9.3420 C.3   268  GLU268      0.1602
     84  C        -11.8350   19.1750   -9.6820 C.2   268  GLU268      0.2287
     85  O        -10.8750   19.5160   -8.9850 O.2   268  GLU268     -0.2864
     86  CB       -11.6990   16.9470   -8.5280 C.3   268  GLU268      0.0415
     87  CG       -10.3370   16.6110   -9.1680 C.3   268  GLU268      0.1163
     88  CD       -10.3480   15.3580  -10.0340 C.2   268  GLU268      0.3649
     89  OE1      -11.4260   14.9110  -10.4900 O.co2 268  GLU268     -0.2457
     90  OE2       -9.2480   14.8210  -10.2510 O.co2 268  GLU268     -0.2457
     91  N        -25.9040    8.7360   -3.8350 N.3   294  ARG294     -0.1245
     92  CA       -25.0650    9.0870   -4.9820 C.3   294  ARG294      0.1563
     93  C        -24.4420   10.4710   -4.8100 C.2   294  ARG294      0.2260
     94  O        -23.2290   10.6520   -4.9940 O.2   294  ARG294     -0.2867
     95  CB       -25.8980    9.0230   -6.2660 C.3   294  ARG294      0.0307
     96  CG       -25.1710    9.5010   -7.5050 C.3   294  ARG294      0.0489
     97  CD       -23.9870    8.6070   -7.8570 C.3   294  ARG294      0.2205
     98  NE       -23.3730    9.0380   -9.1110 N.pl3 294  ARG294     -0.0865
     99  CZ       -22.3110    8.4560   -9.6540 C.cat 294  ARG294      0.5346
    100  NH1      -21.7630    7.3980   -9.0640 N.pl3 294  ARG294      0.1354
    101  NH2      -21.8070    8.9170  -10.7880 N.pl3 294  ARG294      0.1354
    102  N        -16.3420   12.5460   -2.9910 N.3   301  HIS301     -0.1226
    103  CA       -15.2520   12.1740   -3.8880 C.3   301  HIS301      0.1752
    104  C        -14.5370   13.4050   -4.4410 C.2   301  HIS301      0.2595
    105  O        -13.3140   13.5350   -4.3240 O.2   301  HIS301     -0.2718
    106  CB       -15.8060   11.3150   -5.0340 C.3   301  HIS301      0.0759
    107  CG       -14.7570   10.7870   -5.9600 C.ar  301  HIS301      0.0818
    108  ND1      -14.2050    9.5270   -5.8540 N.ar  301  HIS301     -0.2268
    109  CD2      -14.1220   11.3870   -6.9940 C.ar  301  HIS301      0.1154
    110  CE1      -13.3040    9.3620   -6.8140 C.ar  301  HIS301      0.1986
    111  NE2      -13.2320   10.4800   -7.5170 N.ar  301  HIS301     -0.2212
    112  N        -15.2810   14.3380   -5.0350 N.am  302  GLU302     -0.1979
    113  CA       -14.5960   15.4800   -5.6340 C.3   302  GLU302      0.1602
    114  C        -13.9420   16.3520   -4.5680 C.2   302  GLU302      0.2287
    115  O        -12.8600   16.9040   -4.7950 O.2   302  GLU302     -0.2864
    116  CB       -15.5520   16.2990   -6.5000 C.3   302  GLU302      0.0415
    117  CG       -16.3620   15.5010   -7.5180 C.3   302  GLU302      0.1163
    118  CD       -15.5290   14.5680   -8.3780 C.2   302  GLU302      0.3649
    119  OE1      -14.3230   14.8330   -8.6050 O.co2 302  GLU302     -0.2457
    120  OE2      -16.0980   13.5620   -8.8500 O.co2 302  GLU302     -0.2457
    121  N        -10.5930   14.9300   -3.5100 N.3   305  HIS305     -0.1241
    122  CA        -9.5310   15.1530   -4.4870 C.3   305  HIS305      0.1621
    123  C         -8.7200   16.4090   -4.1990 C.2   305  HIS305      0.2264
    124  O         -7.6080   16.5360   -4.7230 O.2   305  HIS305     -0.2867
    125  CB       -10.1040   15.3050   -5.8970 C.3   305  HIS305      0.0745
    126  CG       -10.1960   14.0330   -6.6850 C.ar  305  HIS305      0.0817
    127  ND1       -9.1370   13.1670   -6.8790 N.ar  305  HIS305     -0.2268
    128  CD2      -11.2410   13.5080   -7.3630 C.ar  305  HIS305      0.1154
    129  CE1       -9.5380   12.1550   -7.6360 C.ar  305  HIS305      0.1986
    130  NE2      -10.8150   12.3360   -7.9410 N.ar  305  HIS305     -0.2212
    131  N         -7.2180    8.2910   -8.0700 N.3   324  GLU324     -0.1245
    132  CA        -8.5940    7.7980   -8.1100 C.3   324  GLU324      0.1567
    133  C         -8.8300    6.6570   -7.1200 C.2   324  GLU324      0.2260
    134  O         -9.8340    6.6600   -6.3990 O.2   324  GLU324     -0.2867
    135  CB        -8.9670    7.3660   -9.5250 C.3   324  GLU324      0.0388
    136  CG        -8.9400    8.5270  -10.5250 C.3   324  GLU324      0.1160
    137  CD        -9.8580    9.6790  -10.1480 C.2   324  GLU324      0.3649
    138  OE1      -10.7950    9.5180   -9.3120 O.co2 324  GLU324     -0.2457
    139  OE2       -9.6640   10.7710  -10.7310 O.co2 324  GLU324     -0.2457
    140  N         -6.7250    7.7840  -23.4350 N.3   376  MET376     -0.1230
    141  CA        -6.9950    8.1330  -22.0390 C.3   376  MET376      0.1702
    142  C         -8.4870    8.1330  -21.7450 C.2   376  MET376      0.2592
    143  O         -8.8880    7.8600  -20.6080 O.2   376  MET376     -0.2718
    144  CB        -6.4020    9.5080  -21.6890 C.3   376  MET376      0.0401
    145  CG        -4.9230    9.4900  -21.3140 C.3   376  MET376      0.0596
    146  SD        -4.5100    8.2490  -20.0690 S.3   376  MET376     -0.1393
    147  CE        -5.4830    8.7970  -18.6730 C.3   376  MET376      0.0692
    148  N         -9.3230    8.4380  -22.7410 N.am  377  GLU377     -0.1979
    149  CA       -10.7590    8.4790  -22.4920 C.3   377  GLU377      0.1602
    150  C        -11.3200    7.1070  -22.1430 C.2   377  GLU377      0.2287
    151  O        -12.4130    7.0380  -21.5730 O.2   377  GLU377     -0.2864
    152  CB       -11.4980    9.0740  -23.6950 C.3   377  GLU377      0.0415
    153  CG       -11.1910   10.5750  -23.8840 C.3   377  GLU377      0.1163
    154  CD       -11.9870   11.2400  -24.9880 C.2   377  GLU377      0.3649
    155  OE1      -12.6660   10.5390  -25.7640 O.co2 377  GLU377     -0.2457
    156  OE2      -11.9170   12.4830  -25.0980 O.co2 377  GLU377     -0.2457
    157  N        -10.3830    5.1430  -17.6520 N.3   380  TYR380     -0.1227
    158  CA       -11.0060    5.4260  -16.3590 C.3   380  TYR380      0.1736
    159  C        -11.9170    4.2530  -16.0030 C.2   380  TYR380      0.2596
    160  O        -13.1430    4.3190  -16.0900 O.2   380  TYR380     -0.2718
    161  CB       -11.7340    6.7700  -16.4170 C.3   380  TYR380      0.0548
    162  CG       -10.7330    7.9200  -16.4410 C.ar  380  TYR380     -0.0200
    163  CD1       -9.9260    8.1590  -17.5570 C.ar  380  TYR380     -0.0009
    164  CD2      -10.5530    8.7330  -15.3220 C.ar  380  TYR380     -0.0009
    165  CE1       -8.9790    9.1780  -17.5650 C.ar  380  TYR380      0.0417
    166  CE2       -9.6110    9.7510  -15.3240 C.ar  380  TYR380      0.0417
    167  CZ        -8.8340    9.9710  -16.4440 C.ar  380  TYR380      0.1957
    168  OH        -7.8900   10.9680  -16.4230 O.3   380  TYR380     -0.2866
    169  N        -11.2860    3.1650  -15.5670 N.am  381  THR381     -0.1939
    170  CA       -11.9400    1.8630  -15.4580 C.3   381  THR381      0.2028
    171  C        -12.2780    1.4930  -14.0180 C.2   381  THR381      0.2642
    172  O        -11.6990    2.0060  -13.0520 O.2   381  THR381     -0.2714
    173  CB       -11.0490    0.7580  -16.0370 C.3   381  THR381      0.1808
    174  OG1       -9.8350    0.6990  -15.2810 O.3   381  THR381     -0.2208
    175  CG2      -10.7460    1.0200  -17.4950 C.3   381  THR381      0.0379
    176  N        -13.2110    0.5440  -13.8880 N.am  382  THR382     -0.1950
    177  CA       -13.4910    0.0060  -12.5630 C.3   382  THR382      0.1897
    178  C        -12.2520   -0.6490  -11.9480 C.2   382  THR382      0.2313
    179  O        -12.0990   -0.6610  -10.7140 O.2   382  THR382     -0.2863
    180  CB       -14.6820   -0.9690  -12.6230 C.3   382  THR382      0.1794
    181  OG1      -14.9960   -1.4000  -11.3030 O.3   382  THR382     -0.2208
    182  CG2      -14.4060   -2.1870  -13.5050 C.3   382  THR382      0.0378
    183  N        -10.3050    2.3920  -10.5430 N.3   385  TYR385     -0.1241
    184  CA       -11.0690    3.0380   -9.4770 C.3   385  TYR385      0.1605
    185  C        -11.3350    2.1040   -8.3010 C.2   385  TYR385      0.2264
    186  O        -11.0010    2.4160   -7.1500 O.2   385  TYR385     -0.2867
    187  CB       -12.4010    3.5460  -10.0340 C.3   385  TYR385      0.0534
    188  CG       -12.2710    4.9130  -10.6490 C.ar  385  TYR385     -0.0201
    189  CD1      -11.5570    5.0910  -11.8220 C.ar  385  TYR385     -0.0009
    190  CD2      -12.8190    6.0270  -10.0350 C.ar  385  TYR385     -0.0009
    191  CE1      -11.4030    6.3420  -12.3900 C.ar  385  TYR385      0.0417
    192  CE2      -12.6750    7.2940  -10.6050 C.ar  385  TYR385      0.0417
    193  CZ       -11.9680    7.4350  -11.7830 C.ar  385  TYR385      0.1957
    194  OH       -11.8100    8.6890  -12.3480 O.3   385  TYR385     -0.2866
    195  N        -16.4610    8.6970  -26.3230 N.3   839  MET839     -0.1245
    196  CA       -16.3070    8.2090  -24.9560 C.3   839  MET839      0.1570
    197  C        -17.5600    7.4690  -24.4960 C.2   839  MET839      0.2261
    198  O        -17.4790    6.3600  -23.9430 O.2   839  MET839     -0.2867
    199  CB       -15.9920    9.3740  -24.0180 C.3   839  MET839      0.0387
    200  CG       -15.6820    8.9330  -22.6140 C.3   839  MET839      0.0595
    201  SD       -15.0390   10.2910  -21.6450 S.3   839  MET839     -0.1393
    202  CE       -14.6880    9.4930  -20.1020 C.3   839  MET839      0.0692
@<TRIPOS>BOND
     1   195   196    1
     2    14    13    1
     3   155   154   ar
     4    12    11    2
     5     1     2    1
     6   156   154   ar
     7   154   153    1
     8   196   197    1
     9   196   199    1
    10     8     6    1
    11   197   198    2
    12    11    10    1
    13    13    10    1
    14    13    15    1
    15     9    10    1
    16     9     3   am
    17    42    41    2
    18     2     3    1
    19     2     5    1
    20   199   200    1
    21     6     5    1
    22     6     7    1
    23    49    48    2
    24   153   152    1
    25    44    43    1
    26   152   149    1
    27     3     4    2
    28   140   141    1
    29    43    45    1
    30    43    40    1
    31    48    47    1
    32    41    46   am
    33    41    40    1
    34    47    46    1
    35   148   149    1
    36   148   142   am
    37   200   201    1
    38    56    55    2
    39   149   150    1
    40    57    55   am
    41    40    39    1
    42   150   151    2
    43   141   142    1
    44   141   144    1
    45    55    54    1
    46   142   143    2
    47   144   145    1
    48   201   202    1
    49   145   146    1
    50    39    36   am
    51    19    18    2
    52    54    51    1
    53   146   147    1
    54    36    37    2
    55    36    35    1
    56    16    17    1
    57    51    50    1
    58    51    52    1
    59    18    17    1
    60    20    17    1
    61    20    21    1
    62    34    35    1
    63    34    27   am
    64    38    35    1
    65    28    27    2
    66    21    22    1
    67    27    26    1
    68    53    52    2
    69    52    58   am
    70    25    26    1
    71    26    29    1
    72   157   158    1
    73    22    24   am
    74    22    23    2
    75   165   163   ar
    76   165   167   ar
    77   163   162   ar
    78   175   173    1
    79    58    59    1
    80    63    62    1
    81   167   168    1
    82   167   166   ar
    83   162   161    1
    84   162   164   ar
    85   161   158    1
    86    29    30    1
    87   158   159    1
    88    59    62    1
    89    59    60    1
    90   160   159    2
    91   173   170    1
    92   173   174    1
    93   159   169   am
    94    30    31    1
    95    62    64    1
    96   169   170    1
    97   170   171    1
    98   166   164   ar
    99    61    60    2
   100    60    65   am
   101    31    32   ar
   102    31    33   ar
   103   171   176   am
   104   171   172    2
   105   176   177    1
   106    65    66    1
   107    80    79    1
   108    80    81    1
   109    79    78    1
   110   182   180    1
   111    78    75    1
   112    66    67    1
   113   180   177    1
   114   180   181    1
   115   177   178    1
   116   191   189   ar
   117   191   193   ar
   118   194   193    1
   119    67    69   am
   120    67    68    2
   121    69    70    1
   122    72    71    2
   123    75    74    1
   124    75    76    1
   125   178   179    2
   126    71    70    1
   127    71    74   am
   128   189   188   ar
   129   193   192   ar
   130    70    73    1
   131    76    77    2
   132    76    82   am
   133   101    99    1
   134   139   137   ar
   135   188   190   ar
   136   188   187    1
   137   192   190   ar
   138   183   184    1
   139   136   137    1
   140   136   135    1
   141    82    83    1
   142    89    88   ar
   143    90    88   ar
   144   137   138   ar
   145   187   184    1
   146    88    87    1
   147    84    83    1
   148    84    85    2
   149    99    98    2
   150    99   100    1
   151   135   132    1
   152   184   185    1
   153    83    86    1
   154    87    86    1
   155    98    97    1
   156   120   118   ar
   157   119   118   ar
   158   118   117    1
   159   185   186    2
   160   132   131    1
   161   132   133    1
   162   130   129   ar
   163   130   128   ar
   164    97    96    1
   165   129   127   ar
   166   117   116    1
   167   111   109   ar
   168   111   110   ar
   169    96    95    1
   170   128   126   ar
   171   133   134    2
   172   109   107   ar
   173   127   126   ar
   174   110   108   ar
   175   126   125    1
   176   116   113    1
   177    95    92    1
   178   107   108   ar
   179   107   106    1
   180   125   122    1
   181   113   112    1
   182   113   114    1
   183   112   104   am
   184   106   103    1
   185    94    93    2
   186    92    93    1
   187    92    91    1
   188   115   114    2
   189   124   123    2
   190   122   123    1
   191   122   121    1
   192   104   105    2
   193   104   103    1
   194   103   102    1
