@<TRIPOS>MOLECULE
tmp/6eeaA01.pdb
 113 109 0 0 0
SMALL
GASTEIGER

@<TRIPOS>ATOM
      1  N          8.5240   -0.2350   10.3250 N.3     2  TRP2       -0.1241
      2  CA         7.9650   -1.2380   11.2080 C.3     2  TRP2        0.1605
      3  C          6.9590   -2.1000   10.4630 C.2     2  TRP2        0.2264
      4  O          6.4160   -1.7180    9.4220 O.2     2  TRP2       -0.2867
      5  CB         7.2930   -0.5950   12.4190 C.3     2  TRP2        0.0550
      6  CG         6.1360    0.2840   12.0660 C.ar    2  TRP2        0.0003
      7  CD1        6.1710    1.6160   11.7610 C.ar    2  TRP2        0.0946
      8  CD2        4.7620   -0.1100   11.9870 C.ar    2  TRP2        0.0152
      9  NE1        4.9020    2.0740   11.5010 N.ar    2  TRP2       -0.2442
     10  CE2        4.0180    1.0330   11.6360 C.ar    2  TRP2        0.0810
     11  CE3        4.0860   -1.3180   12.2010 C.ar    2  TRP2        0.0012
     12  CZ2        2.6340    1.0050   11.4750 C.ar    2  TRP2        0.0191
     13  CZ3        2.7080   -1.3450   12.0450 C.ar    2  TRP2        0.0001
     14  CH2        1.9980   -0.1910   11.6770 C.ar    2  TRP2        0.0015
     15  N         10.0880    3.4560   19.0070 N.3    17  PHE17      -0.1241
     16  CA         8.9400    4.0050   19.7340 C.3    17  PHE17       0.1605
     17  C          9.0650    3.5320   21.1740 C.2    17  PHE17       0.2264
     18  O          8.4320    2.5510   21.5740 O.2    17  PHE17      -0.2867
     19  CB         7.6210    3.5600   19.0920 C.3    17  PHE17       0.0534
     20  CG         7.5230    3.9380   17.6430 C.ar   17  PHE17      -0.0203
     21  CD1        7.1810    5.2300   17.2700 C.ar   17  PHE17      -0.0042
     22  CD2        7.8280    3.0180   16.6600 C.ar   17  PHE17      -0.0042
     23  CE1        7.1320    5.5800   15.9170 C.ar   17  PHE17      -0.0003
     24  CE2        7.7830    3.3670   15.3100 C.ar   17  PHE17      -0.0003
     25  CZ         7.4310    4.6430   14.9490 C.ar   17  PHE17      -0.0000
     26  N        -13.7740    8.4480   12.8280 N.3    88  LEU88      -0.1231
     27  CA       -12.7810    8.7750   11.8070 C.3    88  LEU88       0.1693
     28  C        -12.5490    7.6380   10.8260 C.2    88  LEU88       0.2591
     29  O        -12.5420    7.8440    9.6120 O.2    88  LEU88      -0.2718
     30  CB       -11.4520    9.1290   12.4900 C.3    88  LEU88       0.0284
     31  CG       -10.2600    9.3070   11.5510 C.3    88  LEU88       0.0019
     32  CD1      -10.5150   10.4790   10.6540 C.3    88  LEU88       0.0001
     33  CD2       -8.9800    9.5030   12.3360 C.3    88  LEU88       0.0001
     34  N        -12.3510    6.4270   11.3310 N.am   89  GLN89      -0.1979
     35  CA       -12.0500    5.3000   10.4630 C.3    89  GLN89       0.1601
     36  C        -12.3710    4.0110   11.1920 C.2    89  GLN89       0.2287
     37  O        -12.3830    3.9650   12.4220 O.2    89  GLN89      -0.2864
     38  CB       -10.5770    5.2260   10.0430 C.3    89  GLN89       0.0394
     39  CG        -9.6160    5.4180   11.2010 C.3    89  GLN89       0.0908
     40  CD        -8.8280    4.1620   11.5030 C.2    89  GLN89       0.2608
     41  OE1       -9.2860    3.0590   11.2050 O.2    89  GLN89      -0.2717
     42  NE2       -7.6170    4.3200   12.0110 N.am   89  GLN89      -0.0878
     43  N        -12.3970    3.7950   15.3030 N.3   118  VAL118     -0.1245
     44  CA       -11.5580    4.8090   15.9400 C.3   118  VAL118      0.1561
     45  C        -12.3020    6.1400   15.9560 C.2   118  VAL118      0.2260
     46  O        -12.7510    6.6170   14.9020 O.2   118  VAL118     -0.2867
     47  CB       -10.2220    4.9530   15.1920 C.3   118  VAL118      0.0252
     48  CG1       -9.3550    6.0080   15.8550 C.3   118  VAL118      0.0019
     49  CG2       -9.5040    3.5950   15.0890 C.3   118  VAL118      0.0019
     50  N         -7.8240   15.5580   15.0440 N.3   127  VAL127     -0.1231
     51  CA        -7.3680   14.2800   15.5930 C.3   127  VAL127      0.1692
     52  C         -5.8870   14.3350   15.9610 C.2   127  VAL127      0.2592
     53  O         -5.4460   13.6500   16.8930 O.2   127  VAL127     -0.2718
     54  CB        -7.6650   13.1280   14.6070 C.3   127  VAL127      0.0266
     55  CG1       -6.8440   13.2810   13.3510 C.3   127  VAL127      0.0020
     56  CG2       -7.3740   11.7880   15.2570 C.3   127  VAL127      0.0020
     57  N         -5.0960   15.1410   15.2500 N.am  128  GLY128     -0.1957
     58  CA        -3.6970   15.2960   15.6120 C.3   128  GLY128      0.1869
     59  C         -3.4910   15.8620   17.0030 C.2   128  GLY128      0.2309
     60  O         -2.5330   15.4990   17.6910 O.2   128  GLY128     -0.2863
     61  N         -4.4420   13.0180   19.7340 N.3   131  VAL131     -0.1231
     62  CA        -3.5320   11.9150   20.0460 C.3   131  VAL131      0.1692
     63  C         -2.4980   12.3020   21.0880 C.2   131  VAL131      0.2591
     64  O         -1.7960   11.4180   21.6000 O.2   131  VAL131     -0.2718
     65  CB        -2.8260   11.3610   18.7920 C.3   131  VAL131      0.0266
     66  CG1       -3.8550   10.7620   17.8530 C.3   131  VAL131      0.0020
     67  CG2       -2.0060   12.4340   18.1120 C.3   131  VAL131      0.0020
     68  N         -2.4140   13.5860   21.4420 N.am  132  GLN132     -0.1979
     69  CA        -1.4770   14.0740   22.4410 C.3   132  GLN132      0.1601
     70  C         -2.1220   14.1810   23.8190 C.2   132  GLN132      0.2287
     71  O         -1.5010   14.7050   24.7490 O.2   132  GLN132     -0.2864
     72  CB        -0.9250   15.4330   22.0030 C.3   132  GLN132      0.0394
     73  CG        -0.4320   15.4170   20.5600 C.3   132  GLN132      0.0908
     74  CD         0.1500   16.7430   20.1000 C.2   132  GLN132      0.2608
     75  OE1        0.0580   17.7580   20.7950 O.2   132  GLN132     -0.2717
     76  NE2        0.6800   16.7560   18.8800 N.am  132  GLN132     -0.0878
     77  N         -8.7480    9.8100   22.3020 N.3   137  LEU137     -0.1245
     78  CA        -9.3570    8.8530   21.3890 C.3   137  LEU137      0.1561
     79  C        -10.1990    7.8520   22.1640 C.2   137  LEU137      0.2260
     80  O         -9.9370    7.5720   23.3410 O.2   137  LEU137     -0.2867
     81  CB        -8.3100    8.0630   20.5780 C.3   137  LEU137      0.0270
     82  CG        -7.3330    8.7740   19.6390 C.3   137  LEU137      0.0019
     83  CD1       -6.5400    7.7040   18.8560 C.3   137  LEU137      0.0001
     84  CD2       -8.0010    9.7700   18.7170 C.3   137  LEU137      0.0001
     85  N         -2.8010    3.2830   21.3140 N.3   194  LEU194     -0.1245
     86  CA        -2.8200    2.7470   19.9640 C.3   194  LEU194      0.1561
     87  C         -2.0330    1.4460   19.9510 C.2   194  LEU194      0.2260
     88  O         -1.0800    1.2820   20.7110 O.2   194  LEU194     -0.2867
     89  CB        -2.1910    3.7450   18.9900 C.3   194  LEU194      0.0270
     90  CG        -2.9210    5.0920   18.8790 C.3   194  LEU194      0.0019
     91  CD1       -2.0750    6.0180   18.0300 C.3   194  LEU194      0.0001
     92  CD2       -4.3260    4.9300   18.3000 C.3   194  LEU194      0.0001
     93  N         -0.6590    0.2710   17.1010 N.3   196  THR196     -0.1204
     94  CA         0.3630    0.4280   16.0770 C.3   196  THR196      0.1979
     95  C          1.1540    1.6810   16.3940 C.2   196  THR196      0.2460
     96  O          0.6600    2.5710   17.0950 O.2   196  THR196     -0.2732
     97  CB        -0.2410    0.5790   14.6730 C.3   196  THR196      0.1783
     98  OG1       -1.0910    1.7330   14.6560 O.3   196  THR196     -0.2211
     99  CG2       -1.0460   -0.6560   14.2950 C.3   196  THR196      0.0376
    100  N          2.3870    1.7920   15.8940 N.am  197  PRO197     -0.2718
    101  CA         3.1140    3.0560   16.0340 C.3   197  PRO197      0.1520
    102  C          2.2610    4.2280   15.5820 C.2   197  PRO197      0.2440
    103  O          1.5750    4.1070   14.5510 O.2   197  PRO197     -0.2731
    104  CB         4.3190    2.8570   15.1160 C.3   197  PRO197      0.0310
    105  CG         4.5890    1.4130   15.2210 C.3   197  PRO197      0.0237
    106  CD         3.2190    0.7380   15.2880 C.3   197  PRO197      0.0939
    107  N          2.3030    5.3490   16.3200 N.am  198  PRO198     -0.2727
    108  CA         3.2450    5.6740   17.3990 C.3   198  PRO198      0.1402
    109  C          2.9210    5.1650   18.8110 C.2   198  PRO198      0.2269
    110  O          3.6160    5.5820   19.7460 O.2   198  PRO198     -0.2865
    111  CB         3.2290    7.2100   17.3970 C.3   198  PRO198      0.0296
    112  CG         1.8590    7.5590   16.9980 C.3   198  PRO198      0.0237
    113  CD         1.4710    6.5150   15.9630 C.3   198  PRO198      0.0939
@<TRIPOS>BOND
     1     4     3    2
     2    29    28    2
     3    38    35    1
     4    38    39    1
     5     1     2    1
     6     3     2    1
     7    35    36    1
     8    35    34    1
     9    32    31    1
    10    28    34   am
    11    28    27    1
    12    36    37    2
    13    39    40    1
    14    41    40    2
    15     2     5    1
    16    12    10   ar
    17    12    14   ar
    18     9    10   ar
    19     9     7   ar
    20    40    42   am
    21    31    33    1
    22    31    30    1
    23    10     8   ar
    24    14    13   ar
    25     7     6   ar
    26    27    30    1
    27    27    26    1
    28     8     6   ar
    29     8    11   ar
    30    13    11   ar
    31     6     5    1
    32    55    54    1
    33    99    97    1
    34   103   102    2
    35    54    56    1
    36    54    51    1
    37    98    97    1
    38    97    94    1
    39    46    45    2
    40    25    24   ar
    41    25    23   ar
    42    50    51    1
    43    49    47    1
    44   104   105    1
    45   104   101    1
    46    47    48    1
    47    47    44    1
    48   105   106    1
    49    57    58    1
    50    57    52   am
    51   106   100    1
    52    43    44    1
    53    24    22   ar
    54   102   101    1
    55   102   107   am
    56    51    52    1
    57    58    59    1
    58   100   101    1
    59   100    95   am
    60    23    21   ar
    61    44    45    1
    62    52    53    2
    63   113   107    1
    64   113   112    1
    65    94    95    1
    66    94    93    1
    67   107   108    1
    68    95    96    2
    69    22    20   ar
    70   112   111    1
    71    59    60    2
    72    21    20   ar
    73   111   108    1
    74   108   109    1
    75    20    19    1
    76    66    65    1
    77    91    90    1
    78    67    65    1
    79    92    90    1
    80    84    82    1
    81    65    62    1
    82   109   110    2
    83    83    82    1
    84    90    89    1
    85    76    74   am
    86    89    86    1
    87    15    16    1
    88    19    16    1
    89    82    81    1
    90    16    17    1
    91    61    62    1
    92    87    86    1
    93    87    88    2
    94    86    85    1
    95    62    63    1
    96    74    73    1
    97    74    75    2
    98    73    72    1
    99    81    78    1
   100    63    68   am
   101    63    64    2
   102    17    18    2
   103    78    79    1
   104    78    77    1
   105    68    69    1
   106    72    69    1
   107    79    80    2
   108    69    70    1
   109    70    71    2
