@<TRIPOS>MOLECULE
tmp/6eedA00.pdb
 211 202 0 0 0
SMALL
GASTEIGER

@<TRIPOS>ATOM
      1  N         15.8590   17.1380   24.2630 N.3   110  THR110     -0.1218
      2  CA        14.4860   17.2210   23.7800 C.3   110  THR110      0.1862
      3  C         13.9100   18.5210   24.3310 C.2   110  THR110      0.2287
      4  O         14.2430   18.9400   25.4550 O.2   110  THR110     -0.2866
      5  CB        13.6290   16.0420   24.2260 C.3   110  THR110      0.1770
      6  OG1       13.6930   15.9610   25.6520 O.3   110  THR110     -0.2211
      7  CG2       14.1320   14.7050   23.6180 C.3   110  THR110      0.0375
      8  N         14.3920   20.4300   19.6840 N.3   122  GLN122     -0.1245
      9  CA        13.9420   19.1760   19.0690 C.3   122  GLN122      0.1566
     10  C         12.5650   18.8870   19.6380 C.2   122  GLN122      0.2260
     11  O         12.4600   18.5220   20.8220 O.2   122  GLN122     -0.2867
     12  CB        14.9130   18.0350   19.3720 C.3   122  GLN122      0.0367
     13  CG        14.4390   16.6450   18.9310 C.3   122  GLN122      0.0905
     14  CD        14.0180   16.6070   17.4620 C.2   122  GLN122      0.2608
     15  OE1       14.7180   17.1690   16.5920 O.2   122  GLN122     -0.2717
     16  NE2       12.8910   15.9690   17.1740 N.am  122  GLN122     -0.0878
     17  N          9.8410   16.9770   17.8500 N.3   124  GLU124     -0.1231
     18  CA         9.1850   15.7170   17.5800 C.3   124  GLU124      0.1699
     19  C          9.5860   14.7240   18.6640 C.2   124  GLU124      0.2592
     20  O         10.7580   14.7220   19.0450 O.2   124  GLU124     -0.2718
     21  CB         9.5790   15.1800   16.1920 C.3   124  GLU124      0.0402
     22  CG         8.6700   13.9800   15.8120 C.3   124  GLU124      0.1161
     23  CD         8.9220   13.4140   14.4380 C.2   124  GLU124      0.3649
     24  OE1        9.7970   13.9090   13.7040 O.co2 124  GLU124     -0.2457
     25  OE2        8.2050   12.4500   14.0850 O.co2 124  GLU124     -0.2457
     26  N          8.6750   13.8950   19.1990 N.am  125  ALA125     -0.1966
     27  CA         7.2210   13.9270   18.9460 C.3   125  ALA125      0.1728
     28  C          6.4980   14.8860   19.8620 C.2   125  ALA125      0.2617
     29  O          5.6830   15.6930   19.3950 O.2   125  ALA125     -0.2715
     30  CB         6.6370   12.4820   19.1130 C.3   125  ALA125      0.0334
     31  N          6.8010   14.8250   21.1600 N.am  126  THR126     -0.1937
     32  CA         6.0530   15.5640   22.1740 C.3   126  THR126      0.2028
     33  C          6.9960   16.4280   23.0030 C.2   126  THR126      0.2642
     34  O          6.8510   16.5390   24.2470 O.2   126  THR126     -0.2714
     35  CB         5.2660   14.5990   23.0730 C.3   126  THR126      0.1808
     36  OG1        6.1550   13.5880   23.5740 O.3   126  THR126     -0.2208
     37  CG2        4.1750   13.9200   22.2290 C.3   126  THR126      0.0379
     38  N          7.9680   17.0450   22.3190 N.am  127  GLY127     -0.1954
     39  CA         8.9140   17.9320   22.9890 C.3   127  GLY127      0.1869
     40  C          8.4920   19.4050   22.9860 C.2   127  GLY127      0.2309
     41  O          9.0800   20.2010   23.7440 O.2   127  GLY127     -0.2863
     42  N         20.0280   13.3440   19.3610 N.3   263  ASN263     -0.1225
     43  CA        19.6680   11.9780   19.7560 C.3   263  ASN263      0.1785
     44  C         19.6520   11.0120   18.5800 C.2   263  ASN263      0.2597
     45  O         19.9170    9.8330   18.7550 O.2   263  ASN263     -0.2718
     46  CB        18.3150   11.9540   20.4520 C.3   263  ASN263      0.1169
     47  CG        18.3860   12.5540   21.8470 C.2   263  ASN263      0.2627
     48  OD1       19.4700   12.6110   22.4320 O.2   263  ASN263     -0.2716
     49  ND2       17.2570   13.0310   22.3690 N.am  263  ASN263     -0.0877
     50  N         19.3270   11.5020   17.3850 N.am  264  VAL264     -0.1966
     51  CA        19.1720   10.6050   16.2340 C.3   264  VAL264      0.1727
     52  C         19.8950   11.2030   15.0180 C.2   264  VAL264      0.2617
     53  O         20.9850   11.7530   15.1940 O.2   264  VAL264     -0.2715
     54  CB        17.6800   10.2940   15.9680 C.3   264  VAL264      0.0290
     55  CG1       17.0900    9.4740   17.1540 C.3   264  VAL264      0.0023
     56  CG2       16.8470   11.5560   15.7700 C.3   264  VAL264      0.0023
     57  N         19.3440   11.0750   13.8120 N.am  265  GLY265     -0.1940
     58  CA        20.0590   11.5350   12.6130 C.3   265  GLY265      0.2014
     59  C         19.7630   12.9940   12.2690 C.2   265  GLY265      0.2639
     60  O         20.6880   13.7850   12.2150 O.2   265  GLY265     -0.2714
     61  N         18.5030   13.3020   11.9810 N.am  266  ALA266     -0.1963
     62  CA        18.1380   14.6890   11.6660 C.3   266  ALA266      0.1728
     63  C         16.6320   14.8390   11.7460 C.2   266  ALA266      0.2616
     64  O         15.8890   13.8640   11.9360 O.2   266  ALA266     -0.2715
     65  CB        18.6590   15.1000   10.2750 C.3   266  ALA266      0.0334
     66  N         16.1920   16.0820   11.6120 N.am  267  MET267     -0.1963
     67  CA        14.7980   16.4240   11.8660 C.3   267  MET267      0.1736
     68  C         14.2630   17.4140   10.8360 C.2   267  MET267      0.2616
     69  O         14.9190   18.4000   10.5150 O.2   267  MET267     -0.2715
     70  CB        14.6650   16.9930   13.2880 C.3   267  MET267      0.0427
     71  CG        13.2410   17.4800   13.6240 C.3   267  MET267      0.0599
     72  SD        12.0830   16.0760   13.6600 S.3   267  MET267     -0.1393
     73  CE        10.5910   16.9640   13.1480 C.3   267  MET267      0.0692
     74  N         13.0560   17.1570   10.3220 N.am  268  GLU268     -0.1977
     75  CA        12.5220   17.9120    9.1900 C.3   268  GLU268      0.1602
     76  C         11.7360   19.1900    9.5620 C.2   268  GLU268      0.2287
     77  O         10.7730   19.5390    8.8820 O.2   268  GLU268     -0.2864
     78  CB        11.5930   16.9810    8.3620 C.3   268  GLU268      0.0415
     79  CG        10.2450   16.5960    9.0680 C.3   268  GLU268      0.1163
     80  CD        10.2660   15.3290    9.9120 C.2   268  GLU268      0.3649
     81  OE1       11.3620   14.8850   10.3770 O.co2 268  GLU268     -0.2457
     82  OE2        9.1340   14.7870   10.0980 O.co2 268  GLU268     -0.2457
     83  N         25.8620    8.7050    3.8190 N.3   294  ARG294     -0.1245
     84  CA        25.0280    9.0610    4.9670 C.3   294  ARG294      0.1563
     85  C         24.4240   10.4520    4.8140 C.2   294  ARG294      0.2260
     86  O         23.2350   10.6460    5.0430 O.2   294  ARG294     -0.2867
     87  CB        25.8310    9.0020    6.2620 C.3   294  ARG294      0.0307
     88  CG        25.0620    9.4350    7.5140 C.3   294  ARG294      0.0489
     89  CD        23.9480    8.4960    7.8890 C.3   294  ARG294      0.2205
     90  NE        23.3340    8.9480    9.1300 N.pl3 294  ARG294     -0.0865
     91  CZ        22.2300    8.4250    9.6440 C.cat 294  ARG294      0.5346
     92  NH1       21.6420    7.4070    9.0330 N.pl3 294  ARG294      0.1354
     93  NH2       21.7170    8.9060   10.7740 N.pl3 294  ARG294      0.1354
     94  N         16.3070   12.4830    2.9230 N.3   301  HIS301     -0.1226
     95  CA        15.2070   12.1330    3.7970 C.3   301  HIS301      0.1752
     96  C         14.4890   13.3610    4.3770 C.2   301  HIS301      0.2595
     97  O         13.2640   13.4950    4.2550 O.2   301  HIS301     -0.2718
     98  CB        15.7350   11.2380    4.9160 C.3   301  HIS301      0.0759
     99  CG        14.6740   10.7440    5.8450 C.ar  301  HIS301      0.0818
    100  ND1       14.1250    9.4790    5.7410 N.ar  301  HIS301     -0.2268
    101  CD2       14.0600   11.3270    6.9050 C.ar  301  HIS301      0.1154
    102  CE1       13.2410    9.3050    6.7090 C.ar  301  HIS301      0.1986
    103  NE2       13.1700   10.4220    7.4200 N.ar  301  HIS301     -0.2212
    104  N         15.2440   14.2710    4.9810 N.am  302  GLU302     -0.1979
    105  CA        14.5510   15.4330    5.5710 C.3   302  GLU302      0.1602
    106  C         13.8910   16.2860    4.4950 C.2   302  GLU302      0.2287
    107  O         12.8120   16.8590    4.7260 O.2   302  GLU302     -0.2864
    108  CB        15.5100   16.2900    6.4260 C.3   302  GLU302      0.0415
    109  CG        16.3400   15.4870    7.4650 C.3   302  GLU302      0.1163
    110  CD        15.5180   14.5180    8.3180 C.2   302  GLU302      0.3649
    111  OE1       14.2860   14.7280    8.5510 O.co2 302  GLU302     -0.2457
    112  OE2       16.0890   13.4990    8.7280 O.co2 302  GLU302     -0.2457
    113  N         10.5670   14.8670    3.3670 N.3   305  HIS305     -0.1241
    114  CA         9.4890   15.0890    4.3410 C.3   305  HIS305      0.1621
    115  C          8.6910   16.3590    4.0350 C.2   305  HIS305      0.2264
    116  O          7.5630   16.5070    4.5270 O.2   305  HIS305     -0.2867
    117  CB        10.0320   15.2390    5.7660 C.3   305  HIS305      0.0745
    118  CG        10.1100   13.9860    6.5690 C.ar  305  HIS305      0.0817
    119  ND1        9.0600   13.0930    6.7280 N.ar  305  HIS305     -0.2268
    120  CD2       11.1390   13.4830    7.2790 C.ar  305  HIS305      0.1154
    121  CE1        9.4460   12.1200    7.5300 C.ar  305  HIS305      0.1986
    122  NE2       10.7070   12.3230    7.8720 N.ar  305  HIS305     -0.2212
    123  N          7.1060    8.2470    7.9570 N.3   324  GLU324     -0.1245
    124  CA         8.4840    7.7600    8.0080 C.3   324  GLU324      0.1567
    125  C          8.7560    6.6240    7.0230 C.2   324  GLU324      0.2260
    126  O          9.7480    6.6650    6.3000 O.2   324  GLU324     -0.2867
    127  CB         8.8510    7.3260    9.4200 C.3   324  GLU324      0.0388
    128  CG         8.8980    8.4930   10.4310 C.3   324  GLU324      0.1160
    129  CD         9.8020    9.6220   10.0270 C.2   324  GLU324      0.3649
    130  OE1       10.7120    9.4460    9.2000 O.co2 324  GLU324     -0.2457
    131  OE2        9.6340   10.7240   10.6050 O.co2 324  GLU324     -0.2457
    132  N          6.3840    7.8550   23.6240 N.3   376  MET376     -0.1230
    133  CA         6.5520    8.1890   22.1870 C.3   376  MET376      0.1702
    134  C          8.0110    8.1180   21.7500 C.2   376  MET376      0.2592
    135  O          8.3010    7.8410   20.5750 O.2   376  MET376     -0.2718
    136  CB         6.0090    9.6030   21.8350 C.3   376  MET376      0.0401
    137  CG         4.5520    9.6330   21.3130 C.3   376  MET376      0.0596
    138  SD         4.1670    8.3500   20.0810 S.3   376  MET376     -0.1393
    139  CE         5.1820    8.8830   18.7240 C.3   376  MET376      0.0692
    140  N          8.9410    8.4230   22.6550 N.am  377  GLU377     -0.1979
    141  CA        10.3520    8.3650   22.3060 C.3   377  GLU377      0.1602
    142  C         10.7300    6.9340   21.8850 C.2   377  GLU377      0.2287
    143  O         11.5100    6.7430   20.9450 O.2   377  GLU377     -0.2864
    144  CB        11.2300    8.8820   23.4620 C.3   377  GLU377      0.0415
    145  CG        11.0090   10.4360   23.6400 C.3   377  GLU377      0.1163
    146  CD        11.8510   11.0670   24.7250 C.2   377  GLU377      0.3649
    147  OE1       12.5230   10.3380   25.4580 O.co2 377  GLU377     -0.2457
    148  OE2       11.8520   12.3130   24.8610 O.co2 377  GLU377     -0.2457
    149  N          9.8400    5.2240   17.8630 N.3   380  TYR380     -0.1227
    150  CA        10.6420    5.3550   16.6430 C.3   380  TYR380      0.1736
    151  C         11.5390    4.1530   16.5270 C.2   380  TYR380      0.2596
    152  O         12.5040    4.0540   17.2650 O.2   380  TYR380     -0.2718
    153  CB        11.4570    6.6690   16.6890 C.3   380  TYR380      0.0548
    154  CG        10.5030    7.8480   16.5820 C.ar  380  TYR380     -0.0200
    155  CD1        9.6710    8.2170   17.6630 C.ar  380  TYR380     -0.0009
    156  CD2       10.3820    8.5610   15.3840 C.ar  380  TYR380     -0.0009
    157  CE1        8.7560    9.2680   17.5450 C.ar  380  TYR380      0.0417
    158  CE2        9.4890    9.6480   15.2720 C.ar  380  TYR380      0.0417
    159  CZ         8.6650    9.9680   16.3510 C.ar  380  TYR380      0.1957
    160  OH         7.7360   10.9570   16.2560 O.3   380  TYR380     -0.2866
    161  N         11.1850    3.2220   15.6220 N.am  381  THR381     -0.1939
    162  CA        11.8750    1.9180   15.5360 C.3   381  THR381      0.2028
    163  C         12.2170    1.5290   14.1140 C.2   381  THR381      0.2642
    164  O         11.6210    2.0330   13.1470 O.2   381  THR381     -0.2714
    165  CB        10.9880    0.7780   16.1030 C.3   381  THR381      0.1808
    166  OG1        9.8100    0.6360   15.2910 O.3   381  THR381     -0.2208
    167  CG2       10.6080    1.0250   17.5740 C.3   381  THR381      0.0379
    168  N         13.1470    0.5840   13.9710 N.am  382  THR382     -0.1950
    169  CA        13.4460    0.0620   12.6540 C.3   382  THR382      0.1897
    170  C         12.2250   -0.6130   11.9950 C.2   382  THR382      0.2313
    171  O         12.0690   -0.5870   10.7560 O.2   382  THR382     -0.2863
    172  CB        14.6460   -0.9370   12.6930 C.3   382  THR382      0.1794
    173  OG1       14.9220   -1.3570   11.3580 O.3   382  THR382     -0.2208
    174  CG2       14.4300   -2.1470   13.5740 C.3   382  THR382      0.0378
    175  N         10.2470    2.3380   10.5420 N.3   385  TYR385     -0.1227
    176  CA        11.0150    3.0020    9.4810 C.3   385  TYR385      0.1736
    177  C         11.2860    2.0780    8.2970 C.2   385  TYR385      0.2595
    178  O         10.9280    2.4060    7.1450 O.2   385  TYR385     -0.2718
    179  CB        12.3520    3.5200   10.0360 C.3   385  TYR385      0.0548
    180  CG        12.2040    4.8810   10.6480 C.ar  385  TYR385     -0.0200
    181  CD1       11.5440    5.0380   11.8580 C.ar  385  TYR385     -0.0009
    182  CD2       12.6940    6.0090    9.9860 C.ar  385  TYR385     -0.0009
    183  CE1       11.3430    6.3040   12.4200 C.ar  385  TYR385      0.0417
    184  CE2       12.5000    7.3060   10.5360 C.ar  385  TYR385      0.0417
    185  CZ        11.8360    7.4170   11.7600 C.ar  385  TYR385      0.1957
    186  OH        11.6260    8.6860   12.3300 O.3   385  TYR385     -0.2866
    187  N         11.9780    0.9680    8.5880 N.am  386  ASP386     -0.1974
    188  CA        12.5310    0.1430    7.5290 C.3   386  ASP386      0.1709
    189  C         11.5460   -0.9050    7.0460 C.2   386  ASP386      0.2293
    190  O         11.4220   -1.0700    5.8270 O.2   386  ASP386     -0.2864
    191  CB        13.8280   -0.4670    8.0150 C.3   386  ASP386      0.1436
    192  CG        14.8380    0.6260    8.4070 C.2   386  ASP386      0.3671
    193  OD1       15.0610    1.5450    7.5680 O.co2 386  ASP386     -0.2456
    194  OD2       15.3110    0.5710    9.5620 O.co2 386  ASP386     -0.2456
    195  N         16.4090    8.5580   26.1530 N.3   839  MET839     -0.1245
    196  CA        16.2990    8.0730   24.7860 C.3   839  MET839      0.1570
    197  C         17.6180    7.3680   24.3790 C.2   839  MET839      0.2261
    198  O         17.5990    6.2630   23.8030 O.2   839  MET839     -0.2867
    199  CB        15.9750    9.2160   23.8170 C.3   839  MET839      0.0387
    200  CG        15.6280    8.7310   22.4550 C.3   839  MET839      0.0595
    201  SD        15.0130   10.1090   21.4750 S.3   839  MET839     -0.1393
    202  CE        14.4900    9.2160   20.0290 C.3   839  MET839      0.0692
    203  N         18.6990    3.3660   23.4300 N.3   843  GLN843     -0.1245
    204  CA        19.4980    2.9130   22.2790 C.3   843  GLN843      0.1566
    205  C         20.6070    1.9570   22.6770 C.2   843  GLN843      0.2260
    206  O         20.9280    1.0140   21.9310 O.2   843  GLN843     -0.2867
    207  CB        20.1050    4.1340   21.5440 C.3   843  GLN843      0.0367
    208  CG        19.0370    5.0450   20.9530 C.3   843  GLN843      0.0905
    209  CD        19.6420    6.3390   20.4210 C.2   843  GLN843      0.2608
    210  OE1       20.8360    6.5820   20.6360 O.2   843  GLN843     -0.2717
    211  NE2       18.8210    7.1830   19.7670 N.am  843  GLN843     -0.0878
@<TRIPOS>BOND
     1    94    95    1
     2   113   114    1
     3    95    96    1
     4    95    98    1
     5    83    84    1
     6   115   114    1
     7   115   116    2
     8    97    96    2
     9   114   117    1
    10    96   104   am
    11   106   107    2
    12   106   105    1
    13    85    84    1
    14    85    86    2
    15    98    99    1
    16    84    87    1
    17   104   105    1
    18   105   108    1
    19   100    99   ar
    20   100   102   ar
    21   117   118    1
    22   190   189    2
    23    99   101   ar
    24    87    88    1
    25   126   125    2
    26   108   109    1
    27   118   119   ar
    28   118   120   ar
    29   102   103   ar
    30   119   121   ar
    31   101   103   ar
    32   125   124    1
    33   189   188    1
    34   178   177    2
    35   120   122   ar
    36   109   110    1
    37    88    89    1
    38   188   191    1
    39   188   187    1
    40   121   122   ar
    41   193   192   ar
    42    89    90    1
    43   123   124    1
    44   124   127    1
    45   191   192    1
    46   177   187   am
    47   177   176    1
    48   110   111   ar
    49   110   112   ar
    50    78    79    1
    51    78    75    1
    52   192   194   ar
    53    77    76    2
    54    92    91    1
    55    79    80    1
    56    90    91    2
    57    75    76    1
    58    75    74    1
    59   130   129   ar
    60   127   128    1
    61   176   179    1
    62   176   175    1
    63    91    93    1
    64    80    82   ar
    65    80    81   ar
    66   182   184   ar
    67   182   180   ar
    68   129   128    1
    69   129   131   ar
    70   179   180    1
    71    65    62    1
    72    74    68   am
    73    69    68    2
    74   184   185   ar
    75   180   181   ar
    76   171   170    2
    77    68    67    1
    78   173   172    1
    79    66    63   am
    80    66    67    1
    81    62    63    1
    82    62    61    1
    83    63    64    2
    84   185   186    1
    85   185   183   ar
    86   181   183   ar
    87    67    70    1
    88    61    59   am
    89   170   169    1
    90    60    59    2
    91    59    58    1
    92    58    57    1
    93   169   172    1
    94   169   168    1
    95   172   174    1
    96   164   163    2
    97    73    72    1
    98    70    71    1
    99    71    72    1
   100    24    23   ar
   101    57    52   am
   102   168   163   am
   103    25    23   ar
   104   163   162    1
   105    23    22    1
   106    52    53    2
   107    52    51    1
   108   158   156   ar
   109   158   159   ar
   110   166   165    1
   111   156   154   ar
   112   162   161    1
   113   162   165    1
   114   161   151   am
   115    56    54    1
   116    22    21    1
   117    54    51    1
   118    54    55    1
   119   165   167    1
   120    21    18    1
   121    51    50    1
   122   160   159    1
   123   159   157   ar
   124   151   150    1
   125   151   152    2
   126   154   153    1
   127   154   155   ar
   128    15    14    2
   129   150   153    1
   130   150   149    1
   131    16    14   am
   132    50    44   am
   133    14    13    1
   134   157   155   ar
   135    18    17    1
   136    18    19    1
   137    44    45    2
   138    44    43    1
   139    19    20    2
   140    19    26   am
   141   139   138    1
   142    13    12    1
   143    27    30    1
   144    27    26    1
   145    27    28    1
   146     9    12    1
   147     9    10    1
   148     9     8    1
   149    42    43    1
   150    29    28    2
   151    10    11    2
   152    43    46    1
   153   211   209   am
   154    28    31   am
   155   202   201    1
   156   138   137    1
   157   209   210    2
   158   209   208    1
   159    46    47    1
   160   135   134    2
   161   143   142    2
   162   208   207    1
   163    31    32    1
   164   137   136    1
   165   201   200    1
   166   207   204    1
   167   134   133    1
   168   134   140   am
   169   136   133    1
   170    47    49   am
   171    47    48    2
   172   142   141    1
   173   206   205    2
   174    32    33    1
   175    32    35    1
   176   133   132    1
   177    37    35    1
   178   204   205    1
   179   204   203    1
   180   141   140    1
   181   141   144    1
   182    38    39    1
   183    38    33   am
   184   200   199    1
   185    40    39    1
   186    40    41    2
   187    33    34    2
   188    35    36    1
   189   144   145    1
   190     7     5    1
   191   145   146    1
   192     2     5    1
   193     2     1    1
   194     2     3    1
   195   198   197    2
   196   199   196    1
   197     5     6    1
   198     3     4    2
   199   197   196    1
   200   146   148   ar
   201   146   147   ar
   202   196   195    1
