@<TRIPOS>MOLECULE
tmp/6eeeE00.pdb
 217 206 0 0 0
SMALL
GASTEIGER

@<TRIPOS>ATOM
      1  N        197.0300   57.7620   96.6120 N.3   282  LYS282     -0.1245
      2  CA       195.9810   57.3640   95.6760 C.3   282  LYS282      0.1561
      3  C        194.7260   58.2030   95.9040 C.2   282  LYS282      0.2260
      4  O        194.2500   58.3210   97.0430 O.2   282  LYS282     -0.2867
      5  CB       195.6640   55.8660   95.8260 C.3   282  LYS282      0.0271
      6  CG       194.3840   55.4320   95.1090 C.3   282  LYS282      0.0035
      7  CD       194.1600   53.9260   95.1790 C.3   282  LYS282      0.0206
      8  CE       192.8100   53.5680   94.5690 C.3   282  LYS282      0.1093
      9  NZ       192.4180   52.1430   94.7530 N.3   282  LYS282     -0.1314
     10  N        185.2280   54.7360   93.1060 N.3   287  ASP287     -0.1239
     11  CA       185.6100   53.6220   92.2440 C.3   287  ASP287      0.1674
     12  C        184.4010   52.7100   92.0160 C.2   287  ASP287      0.2266
     13  O        184.0490   51.9010   92.8800 O.2   287  ASP287     -0.2867
     14  CB       186.7560   52.8300   92.8550 C.3   287  ASP287      0.1410
     15  CG       187.3790   51.8500   91.8820 C.2   287  ASP287      0.3668
     16  OD1      187.2180   52.0230   90.6540 O.co2 287  ASP287     -0.2456
     17  OD2      188.0590   50.9140   92.3620 O.co2 287  ASP287     -0.2456
     18  N        181.8960   46.8120   89.9810 N.3   294  LYS294     -0.1245
     19  CA       181.7750   46.1480   91.2770 C.3   294  LYS294      0.1561
     20  C        180.3450   45.6520   91.4800 C.2   294  LYS294      0.2260
     21  O        179.5350   46.3160   92.1210 O.2   294  LYS294     -0.2867
     22  CB       182.1890   47.0960   92.4080 C.3   294  LYS294      0.0271
     23  CG       183.6700   47.5060   92.3690 C.3   294  LYS294      0.0035
     24  CD       183.9920   48.5360   93.4460 C.3   294  LYS294      0.0206
     25  CE       185.4980   48.9050   93.4550 C.3   294  LYS294      0.1093
     26  NZ       186.3670   47.7550   93.7800 N.3   294  LYS294     -0.1314
     27  N        179.7410   41.2220   98.0070 N.3   298  GLY298     -0.1210
     28  CA       180.8840   41.4380   98.8770 C.3   298  GLY298      0.1956
     29  C        181.9000   42.4460   98.3430 C.2   298  GLY298      0.2613
     30  O        182.9160   42.7140   98.9860 O.2   298  GLY298     -0.2717
     31  N        181.6320   43.0180   97.1740 N.am  299  SER299     -0.1938
     32  CA       182.5570   43.9890   96.6030 C.3   299  SER299      0.2055
     33  C        182.2970   45.4100   97.1400 C.2   299  SER299      0.2642
     34  O        183.0770   46.3190   96.8740 O.2   299  SER299     -0.2714
     35  CB       182.4860   43.9720   95.0730 C.3   299  SER299      0.2130
     36  OG       181.1790   44.2290   94.6110 O.3   299  SER299     -0.2179
     37  N        181.2160   45.5770   97.8980 N.am  300  MET300     -0.1976
     38  CA       180.9540   46.7840   98.6910 C.3   300  MET300      0.1605
     39  C        181.1020   48.1030   97.9310 C.2   300  MET300      0.2287
     40  O        181.8300   49.0040   98.3640 O.2   300  MET300     -0.2864
     41  CB       181.8750   46.8150   99.9180 C.3   300  MET300      0.0413
     42  CG       181.5050   45.8260  101.0220 C.3   300  MET300      0.0598
     43  SD       181.8260   46.4780  102.6920 S.3   300  MET300     -0.1393
     44  CE       180.3710   47.4970  102.9670 C.3   300  MET300      0.0692
     45  N        180.9550   51.5290   99.5310 N.3   303  LEU303     -0.1231
     46  CA       182.0840   51.9500  100.3560 C.3   303  LEU303      0.1693
     47  C        183.0950   52.7970   99.5700 C.2   303  LEU303      0.2591
     48  O        183.9380   53.4760  100.1510 O.2   303  LEU303     -0.2718
     49  CB       182.7920   50.7100  100.9280 C.3   303  LEU303      0.0284
     50  CG       184.0330   50.8320  101.8280 C.3   303  LEU303      0.0019
     51  CD1      183.6550   51.3120  103.2520 C.3   303  LEU303      0.0001
     52  CD2      184.8120   49.5040  101.8700 C.3   303  LEU303      0.0001
     53  N        182.9980   52.7580   98.2450 N.am  304  MET304     -0.1979
     54  CA       184.1050   53.1760   97.3890 C.3   304  MET304      0.1605
     55  C        184.3340   54.6840   97.2960 C.2   304  MET304      0.2287
     56  O        185.1380   55.1460   96.4910 O.2   304  MET304     -0.2864
     57  CB       183.9220   52.5820   95.9950 C.3   304  MET304      0.0413
     58  CG       184.1290   51.0710   95.9990 C.3   304  MET304      0.0598
     59  SD       185.7360   50.6280   96.7360 S.3   304  MET304     -0.1393
     60  CE       185.5490   48.8980   97.1540 C.3   304  MET304      0.0692
     61  N        185.8730   55.6940   99.6480 N.3   306  PHE306     -0.1227
     62  CA       187.0180   55.6560  100.5530 C.3   306  PHE306      0.1736
     63  C        188.2910   55.4910   99.7560 C.2   306  PHE306      0.2595
     64  O        189.3720   55.4270  100.3150 O.2   306  PHE306     -0.2718
     65  CB       186.8750   54.5260  101.6000 C.3   306  PHE306      0.0547
     66  CG       187.3680   53.1720  101.1340 C.ar  306  PHE306     -0.0202
     67  CD1      188.2070   52.3970  101.9370 C.ar  306  PHE306     -0.0042
     68  CD2      186.9990   52.6810   99.8900 C.ar  306  PHE306     -0.0042
     69  CE1      188.6450   51.1500  101.5020 C.ar  306  PHE306     -0.0003
     70  CE2      187.4410   51.4640   99.4510 C.ar  306  PHE306     -0.0003
     71  CZ       188.2610   50.6860  100.2560 C.ar  306  PHE306     -0.0000
     72  N        188.1480   55.4370   98.4400 N.am  307  ASP307     -0.1974
     73  CA       189.2700   55.0920   97.5920 C.3   307  ASP307      0.1709
     74  C        190.2220   56.2750   97.3760 C.2   307  ASP307      0.2293
     75  O        191.1050   56.1860   96.5550 O.2   307  ASP307     -0.2864
     76  CB       188.7770   54.5420   96.2470 C.3   307  ASP307      0.1436
     77  CG       189.5310   53.2850   95.7970 C.2   307  ASP307      0.3671
     78  OD1      190.1400   52.5840   96.6350 O.co2 307  ASP307     -0.2456
     79  OD2      189.5160   53.0030   94.5790 O.co2 307  ASP307     -0.2456
     80  N        191.7450   44.6580   83.7200 N.3   365  ASN365     -0.1240
     81  CA       190.5900   44.8390   84.5840 C.3   365  ASN365      0.1653
     82  C        190.5200   46.2970   85.0460 C.2   365  ASN365      0.2266
     83  O        191.4010   46.7570   85.7780 O.2   365  ASN365     -0.2867
     84  CB       190.6750   43.8820   85.7740 C.3   365  ASN365      0.1155
     85  CG       189.4540   43.9330   86.6660 C.2   365  ASN365      0.2627
     86  OD1      188.9660   45.0060   87.0140 O.2   365  ASN365     -0.2716
     87  ND2      188.9590   42.7600   87.0560 N.am  365  ASN365     -0.0877
     88  N        188.8540   47.7830   87.1620 N.3   367  ASP367     -0.1225
     89  CA       188.7930   47.9720   88.6040 C.3   367  ASP367      0.1805
     90  C        190.2050   47.9160   89.2300 C.2   367  ASP367      0.2598
     91  O        190.3660   47.9960   90.4460 O.2   367  ASP367     -0.2718
     92  CB       187.8690   46.9210   89.2380 C.3   367  ASP367      0.1424
     93  CG       187.4190   47.3080   90.6200 C.2   367  ASP367      0.3668
     94  OD1      187.5650   48.4960   90.9690 O.co2 367  ASP367     -0.2456
     95  OD2      186.9090   46.4370   91.3500 O.co2 367  ASP367     -0.2456
     96  N        191.2320   47.7730   88.4010 N.am  368  ALA368     -0.1966
     97  CA       192.5970   47.9440   88.9000 C.3   368  ALA368      0.1728
     98  C        193.1500   49.3110   88.4680 C.2   368  ALA368      0.2616
     99  O        194.2990   49.4260   87.9950 O.2   368  ALA368     -0.2715
    100  CB       193.4960   46.8020   88.4280 C.3   368  ALA368      0.0334
    101  N        192.3340   50.3430   88.6750 N.am  369  GLU369     -0.1963
    102  CA       192.6510   51.6930   88.2200 C.3   369  GLU369      0.1733
    103  C        193.6950   52.4020   89.0940 C.2   369  GLU369      0.2617
    104  O        194.3740   53.3040   88.6210 O.2   369  GLU369     -0.2715
    105  CB       191.3590   52.5430   88.1390 C.3   369  GLU369      0.0429
    106  CG       190.9680   53.2390   89.4360 C.3   369  GLU369      0.1163
    107  CD       190.4580   52.2880   90.5210 C.2   369  GLU369      0.3649
    108  OE1      190.2180   51.1080   90.2050 O.co2 369  GLU369     -0.2457
    109  OE2      190.3140   52.7180   91.6920 O.co2 369  GLU369     -0.2457
    110  N        193.8280   52.0010   90.3540 N.am  370  GLY370     -0.1940
    111  CA       194.7080   52.6990   91.2770 C.3   370  GLY370      0.2014
    112  C        196.1820   52.6420   90.8910 C.2   370  GLY370      0.2638
    113  O        196.9020   53.6530   90.9160 O.2   370  GLY370     -0.2714
    114  N        196.6380   51.4550   90.5190 N.am  371  ARG371     -0.1977
    115  CA       198.0180   51.3000   90.0900 C.3   371  ARG371      0.1597
    116  C        198.2620   52.0390   88.7670 C.2   371  ARG371      0.2287
    117  O        199.3960   52.3850   88.4420 O.2   371  ARG371     -0.2864
    118  CB       198.3710   49.8120   89.9680 C.3   371  ARG371      0.0334
    119  CG       197.8260   49.1330   88.7300 C.3   371  ARG371      0.0492
    120  CD       197.9050   47.6160   88.8630 C.3   371  ARG371      0.2205
    121  NE       197.0320   47.1250   89.9310 N.pl3 371  ARG371     -0.0865
    122  CZ       196.9580   45.8520   90.3020 C.cat 371  ARG371      0.5346
    123  NH1      197.7000   44.9350   89.6930 N.pl3 371  ARG371      0.1354
    124  NH2      196.1540   45.4960   91.2860 N.pl3 371  ARG371      0.1354
    125  N        194.6960   52.7690   99.0800 N.3   394  THR394     -0.1203
    126  CA       193.7080   51.6860   99.2040 C.3   394  THR394      0.1994
    127  C        193.7260   50.8020   97.9520 C.2   394  THR394      0.2618
    128  O        192.8150   50.8340   97.1360 O.2   394  THR394     -0.2717
    129  CB       192.2930   52.2430   99.3910 C.3   394  THR394      0.1784
    130  OG1      191.9770   53.0990   98.2770 O.3   394  THR394     -0.2211
    131  CG2      192.1850   53.0260  100.7050 C.3   394  THR394      0.0376
    132  N        194.7660   50.0060   97.8050 N.am  395  LEU395     -0.1965
    133  CA       195.0750   49.4380   96.5080 C.3   395  LEU395      0.1728
    134  C        194.4190   48.0720   96.2060 C.2   395  LEU395      0.2617
    135  O        193.8340   47.9000   95.1400 O.2   395  LEU395     -0.2715
    136  CB       196.5970   49.3390   96.3660 C.3   395  LEU395      0.0311
    137  CG       197.0780   49.3950   94.9240 C.3   395  LEU395      0.0022
    138  CD1      196.6910   50.7110   94.2840 C.3   395  LEU395      0.0001
    139  CD2      198.5740   49.1990   94.8680 C.3   395  LEU395      0.0001
    140  N        194.5060   47.1110   97.1230 N.am  396  THR396     -0.1937
    141  CA       194.0490   45.7390   96.8280 C.3   396  THR396      0.2028
    142  C        193.2090   45.1200   97.9360 C.2   396  THR396      0.2643
    143  O        193.6100   45.1200   99.1020 O.2   396  THR396     -0.2714
    144  CB       195.2460   44.7740   96.5590 C.3   396  THR396      0.1808
    145  OG1      196.1820   44.8490   97.6450 O.3   396  THR396     -0.2208
    146  CG2      195.9500   45.1260   95.2440 C.3   396  THR396      0.0379
    147  N        192.0600   44.5640   97.5680 N.am  397  GLY397     -0.1939
    148  CA       191.1840   43.9230   98.5370 C.3   397  GLY397      0.2014
    149  C        191.8640   42.7890   99.2950 C.2   397  GLY397      0.2638
    150  O        191.5090   42.4920  100.4360 O.2   397  GLY397     -0.2714
    151  N        192.8700   42.1830   98.6750 N.am  398  ALA398     -0.1977
    152  CA       193.5480   41.0380   99.2670 C.3   398  ALA398      0.1597
    153  C        194.1210   41.3070  100.6670 C.2   398  ALA398      0.2287
    154  O        194.2610   40.3790  101.4730 O.2   398  ALA398     -0.2864
    155  CB       194.6370   40.5540   98.3390 C.3   398  ALA398      0.0319
    156  N        192.7800   42.3670  103.2010 N.3   400  LEU400     -0.1245
    157  CA       191.8660   41.9020  104.2340 C.3   400  LEU400      0.1561
    158  C        192.1330   40.4400  104.5520 C.2   400  LEU400      0.2260
    159  O        191.8240   39.9690  105.6380 O.2   400  LEU400     -0.2867
    160  CB       190.4160   42.0840  103.8020 C.3   400  LEU400      0.0270
    161  CG       189.8800   43.5120  103.8220 C.3   400  LEU400      0.0019
    162  CD1      188.4580   43.5350  103.2760 C.3   400  LEU400      0.0001
    163  CD2      189.9070   44.0450  105.2330 C.3   400  LEU400      0.0001
    164  N        197.4900   43.5460   85.2170 N.3   455  ILE455     -0.1231
    165  CA       197.2140   42.4810   86.1870 C.3   455  ILE455      0.1692
    166  C        197.7220   41.1220   85.7620 C.2   455  ILE455      0.2592
    167  O        198.0410   40.8920   84.6020 O.2   455  ILE455     -0.2718
    168  CB       195.7060   42.3330   86.4580 C.3   455  ILE455      0.0266
    169  CG1      194.9810   42.0560   85.1410 C.3   455  ILE455      0.0019
    170  CG2      195.1660   43.5760   87.1370 C.3   455  ILE455      0.0020
    171  CD1      193.6470   41.3200   85.2970 C.3   455  ILE455      0.0001
    172  N        197.7810   40.2200   86.7280 N.am  456  SER456     -0.1952
    173  CA       198.0820   38.8210   86.4540 C.3   456  SER456      0.1924
    174  C        196.7950   38.0470   86.2140 C.2   456  SER456      0.2314
    175  O        195.8190   38.2240   86.9400 O.2   456  SER456     -0.2863
    176  CB       198.8530   38.1970   87.6140 C.3   456  SER456      0.2116
    177  OG       199.1840   36.8590   87.3190 O.3   456  SER456     -0.2180
    178  N        197.6890   39.3180   94.9960 N.3   462  SER462     -0.1217
    179  CA       197.4050   40.5590   94.3010 C.3   462  SER462      0.1889
    180  C        198.1680   41.7480   94.8460 C.2   462  SER462      0.2288
    181  O        198.6040   42.6050   94.0900 O.2   462  SER462     -0.2866
    182  CB       195.9050   40.8520   94.3670 C.3   462  SER462      0.2089
    183  OG       195.2230   39.9580   93.5150 O.3   462  SER462     -0.2183
    184  N        194.1970   49.4330  101.9770 N.3   485  ALA485     -0.1231
    185  CA       192.8820   48.9710  101.5470 C.3   485  ALA485      0.1694
    186  C        192.0940   48.2750  102.6640 C.2   485  ALA485      0.2592
    187  O        190.8800   48.4510  102.7910 O.2   485  ALA485     -0.2718
    188  CB       193.0270   48.0410  100.3560 C.3   485  ALA485      0.0304
    189  N        192.7890   47.5010  103.4820 N.am  486  GLY486     -0.1957
    190  CA       192.1340   46.7830  104.5510 C.3   486  GLY486      0.1869
    191  C        191.8870   47.6010  105.8040 C.2   486  GLY486      0.2309
    192  O        190.9340   47.3590  106.5240 O.2   486  GLY486     -0.2863
    193  N        189.0260   51.8190  106.6740 N.3   489  TRP489     -0.1241
    194  CA       187.6600   52.0590  107.1480 C.3   489  TRP489      0.1605
    195  C        187.3650   51.2990  108.4350 C.2   489  TRP489      0.2264
    196  O        187.5530   50.0960  108.4870 O.2   489  TRP489     -0.2867
    197  CB       186.6490   51.6660  106.0670 C.3   489  TRP489      0.0550
    198  CG       185.2390   52.0800  106.3830 C.ar  489  TRP489      0.0003
    199  CD1      184.2540   51.2940  106.9030 C.ar  489  TRP489      0.0946
    200  CD2      184.6630   53.3910  106.2190 C.ar  489  TRP489      0.0152
    201  NE1      183.1000   52.0250  107.0650 N.ar  489  TRP489     -0.2442
    202  CE2      183.3240   53.3130  106.6550 C.ar  489  TRP489      0.0810
    203  CE3      185.1510   54.6160  105.7440 C.ar  489  TRP489      0.0012
    204  CZ2      182.4630   54.4150  106.6310 C.ar  489  TRP489      0.0191
    205  CZ3      184.2940   55.7160  105.7230 C.ar  489  TRP489      0.0001
    206  CH2      182.9660   55.6060  106.1660 C.ar  489  TRP489      0.0015
    207  N        184.9170   49.5000  110.2380 N.3   491  PHE491     -0.1241
    208  CA       183.6200   48.8960  109.9230 C.3   491  PHE491      0.1605
    209  C        182.7230   48.8380  111.1400 C.2   491  PHE491      0.2264
    210  O        181.5310   49.0730  111.0450 O.2   491  PHE491     -0.2867
    211  CB       183.8020   47.5010  109.3330 C.3   491  PHE491      0.0534
    212  CG       184.3800   47.5190  107.9530 C.ar  491  PHE491     -0.0203
    213  CD1      185.7570   47.4100  107.7520 C.ar  491  PHE491     -0.0042
    214  CD2      183.5530   47.6970  106.8500 C.ar  491  PHE491     -0.0042
    215  CE1      186.2900   47.4550  106.4780 C.ar  491  PHE491     -0.0003
    216  CE2      184.0860   47.7360  105.5610 C.ar  491  PHE491     -0.0003
    217  CZ       185.4530   47.6190  105.3790 C.ar  491  PHE491     -0.0000
@<TRIPOS>BOND
     1    80    81    1
     2    81    82    1
     3    81    84    1
     4   167   166    2
     5    82    83    2
     6   169   171    1
     7   169   168    1
     8   164   165    1
     9   166   165    1
    10   166   172   am
    11    84    85    1
    12   165   168    1
    13   174   173    1
    14   174   175    2
    15   173   172    1
    16   173   176    1
    17   168   170    1
    18    85    86    2
    19    85    87   am
    20    88    89    1
    21   177   176    1
    22    99    98    2
    23   105   102    1
    24   105   106    1
    25   102   101    1
    26   102   103    1
    27    96    97    1
    28    96    90   am
    29   100    97    1
    30   117   116    2
    31    98   101   am
    32    98    97    1
    33    89    90    1
    34    89    92    1
    35   104   103    2
    36   119   120    1
    37   119   118    1
    38   116   115    1
    39   120   121    1
    40   103   110   am
    41    90    91    2
    42    92    93    1
    43   106   107    1
    44   123   122    1
    45   121   122    2
    46   118   115    1
    47    18    19    1
    48   115   114    1
    49   108   107   ar
    50   122   124    1
    51   110   111    1
    52   114   112   am
    53   107   109   ar
    54    93    94   ar
    55    93    95   ar
    56    16    15   ar
    57   112   113    2
    58   112   111    1
    59    19    20    1
    60    19    22    1
    61    20    21    2
    62    15    17   ar
    63    15    14    1
    64    12    11    1
    65    12    13    2
    66    11    14    1
    67    11    10    1
    68    23    22    1
    69    23    24    1
    70    24    25    1
    71    25    26    1
    72   183   182    1
    73   181   180    2
    74   138   137    1
    75   179   182    1
    76   179   180    1
    77   179   178    1
    78     8     9    1
    79     8     7    1
    80    79    77   ar
    81    36    35    1
    82   139   137    1
    83   137   136    1
    84    35    32    1
    85     6     7    1
    86     6     5    1
    87   135   134    2
    88   146   144    1
    89     2     5    1
    90     2     3    1
    91     2     1    1
    92    77    76    1
    93    77    78   ar
    94     3     4    2
    95    57    58    1
    96    57    54    1
    97    58    59    1
    98   134   133    1
    99   134   140   am
   100    76    73    1
   101   136   133    1
   102    56    55    2
   103   133   132    1
   104    75    74    2
   105   144   141    1
   106   144   145    1
   107    32    33    1
   108    32    31    1
   109    59    60    1
   110   141   140    1
   111   141   142    1
   112    34    33    2
   113   128   127    2
   114    33    37   am
   115    31    29   am
   116    55    54    1
   117    74    73    1
   118    54    53    1
   119   147   142   am
   120   147   148    1
   121    73    72    1
   122   132   127   am
   123    37    38    1
   124    39    40    2
   125    39    38    1
   126   142   143    2
   127   127   126    1
   128    27    28    1
   129    53    47   am
   130   130   129    1
   131   155   152    1
   132    29    28    1
   133    29    30    2
   134    72    63   am
   135   148   149    1
   136   151   152    1
   137   151   149   am
   138    38    41    1
   139   125   126    1
   140   126   129    1
   141   152   153    1
   142   149   150    2
   143   129   131    1
   144    70    68   ar
   145    70    71   ar
   146    45    46    1
   147    47    48    2
   148    47    46    1
   149    61    62    1
   150    63    64    2
   151    63    62    1
   152    68    66   ar
   153    41    42    1
   154    71    69   ar
   155   188   185    1
   156    46    49    1
   157    62    65    1
   158   153   154    2
   159    49    50    1
   160    42    43    1
   161    66    65    1
   162    66    67   ar
   163    69    67   ar
   164   185   184    1
   165   185   186    1
   166    50    52    1
   167    50    51    1
   168   186   187    2
   169   186   189   am
   170    43    44    1
   171   156   157    1
   172   162   161    1
   173   189   190    1
   174   160   161    1
   175   160   157    1
   176   161   163    1
   177   157   158    1
   178   190   191    1
   179   158   159    2
   180   217   216   ar
   181   217   215   ar
   182   216   214   ar
   183   205   203   ar
   184   205   206   ar
   185   203   200   ar
   186   191   192    2
   187   197   198    1
   188   197   194    1
   189   206   204   ar
   190   200   198   ar
   191   200   202   ar
   192   198   199   ar
   193   215   213   ar
   194   204   202   ar
   195   202   201   ar
   196   193   194    1
   197   214   212   ar
   198   199   201   ar
   199   194   195    1
   200   213   212   ar
   201   212   211    1
   202   195   196    2
   203   211   208    1
   204   208   207    1
   205   208   209    1
   206   210   209    2
