@<TRIPOS>MOLECULE
tmp/6eehA00.pdb
 191 185 0 0 0
SMALL
GASTEIGER

@<TRIPOS>ATOM
      1  N          4.9890   -6.4360   10.8730 N.3     4  TYR4       -0.1241
      2  CA         4.6200   -7.5880   11.6910 C.3     4  TYR4        0.1605
      3  C          5.4980   -8.8010   11.4020 C.2     4  TYR4        0.2264
      4  O          5.1300   -9.9280   11.7530 O.2     4  TYR4       -0.2867
      5  CB         3.1420   -7.9270   11.4910 C.3     4  TYR4        0.0534
      6  CG         2.2220   -6.8420   12.0220 C.ar    4  TYR4       -0.0201
      7  CD1        1.8320   -6.8260   13.3580 C.ar    4  TYR4       -0.0009
      8  CD2        1.7710   -5.8290   11.1870 C.ar    4  TYR4       -0.0009
      9  CE1        1.0060   -5.8200   13.8420 C.ar    4  TYR4        0.0417
     10  CE2        0.9340   -4.8320   11.6450 C.ar    4  TYR4        0.0417
     11  CZ         0.5470   -4.8370   12.9680 C.ar    4  TYR4        0.1957
     12  OH        -0.2680   -3.8260   13.4010 O.3     4  TYR4       -0.2866
     13  N         -3.2160    0.4720    3.6970 N.3    59  ASN59      -0.1240
     14  CA        -2.1310    1.3270    4.1570 C.3    59  ASN59       0.1653
     15  C         -0.8520    0.5510    4.4310 C.2    59  ASN59       0.2266
     16  O          0.0850    1.1070    5.0100 O.2    59  ASN59      -0.2867
     17  CB        -2.5450    2.1320    5.4020 C.3    59  ASN59       0.1155
     18  CG        -2.9530    1.2520    6.5680 C.2    59  ASN59       0.2627
     19  OD1       -2.5340    0.1150    6.6650 O.2    59  ASN59      -0.2716
     20  ND2       -3.7710    1.7980    7.4740 N.am   59  ASN59      -0.0877
     21  N         -0.3780   -1.9740    6.4350 N.3    61  HIS61      -0.1226
     22  CA        -0.4650   -2.8280    7.6200 C.3    61  HIS61       0.1752
     23  C         -1.8690   -3.3180    7.9280 C.2    61  HIS61       0.2596
     24  O         -2.0020   -4.3300    8.6300 O.2    61  HIS61      -0.2718
     25  CB         0.1380   -2.1520    8.8610 C.3    61  HIS61       0.0759
     26  CG        -0.3500   -0.7640    9.1350 C.ar   61  HIS61       0.0818
     27  ND1        0.2050    0.3520    8.5410 N.ar   61  HIS61      -0.2268
     28  CD2       -1.3120   -0.3050    9.9720 C.ar   61  HIS61       0.1154
     29  CE1       -0.4070    1.4360    8.9870 C.ar   61  HIS61       0.1986
     30  NE2       -1.3320    1.0660    9.8570 N.ar   61  HIS61      -0.2212
     31  N         -2.9020   -2.6970    7.3720 N.am   62  SER62      -0.1952
     32  CA        -4.2780   -3.1570    7.4680 C.3    62  SER62       0.1924
     33  C         -5.0130   -2.5190    6.2930 C.2    62  SER62       0.2314
     34  O         -4.3800   -1.9200    5.4140 O.2    62  SER62      -0.2863
     35  CB        -4.8890   -2.7900    8.8280 C.3    62  SER62       0.2116
     36  OG        -6.2180   -3.2840    8.8960 O.3    62  SER62      -0.2180
     37  N         -8.3360    0.3090    5.8460 N.3    64  GLN64      -0.1245
     38  CA        -9.1520    1.2470    6.5920 C.3    64  GLN64       0.1566
     39  C        -10.2740    1.7530    5.7070 C.2    64  GLN64       0.2260
     40  O        -10.0830    1.9780    4.5100 O.2    64  GLN64      -0.2867
     41  CB        -8.4000    2.4990    7.0400 C.3    64  GLN64       0.0367
     42  CG        -7.2350    2.3260    7.9580 C.3    64  GLN64       0.0905
     43  CD        -6.6510    3.6780    8.3060 C.2    64  GLN64       0.2608
     44  OE1       -6.9380    4.6730    7.6370 O.2    64  GLN64      -0.2717
     45  NE2       -5.8240    3.7240    9.3430 N.am   64  GLN64      -0.0878
     46  N        -13.7800    8.4280   12.8890 N.3    88  LEU88      -0.1231
     47  CA       -12.7880    8.7820   11.8810 C.3    88  LEU88       0.1693
     48  C        -12.5660    7.6690   10.8730 C.2    88  LEU88       0.2591
     49  O        -12.5640    7.9050    9.6700 O.2    88  LEU88      -0.2718
     50  CB       -11.4530    9.1040   12.5650 C.3    88  LEU88       0.0284
     51  CG       -10.2510    9.2990   11.6360 C.3    88  LEU88       0.0019
     52  CD1      -10.4390   10.5220   10.7750 C.3    88  LEU88       0.0001
     53  CD2       -8.9480    9.3780   12.4260 C.3    88  LEU88       0.0001
     54  N        -12.3660    6.4490   11.3480 N.am   89  GLN89      -0.1979
     55  CA       -12.0540    5.3420   10.4550 C.3    89  GLN89       0.1601
     56  C        -12.3790    4.0470   11.1780 C.2    89  GLN89       0.2287
     57  O        -12.4190    4.0100   12.4020 O.2    89  GLN89      -0.2864
     58  CB       -10.5730    5.3090   10.0490 C.3    89  GLN89       0.0394
     59  CG        -9.6870    5.3900   11.2830 C.3    89  GLN89       0.0908
     60  CD        -8.7590    4.2140   11.3780 C.2    89  GLN89       0.2608
     61  OE1       -9.2290    3.0890   11.2850 O.2    89  GLN89      -0.2717
     62  NE2       -7.4870    4.4400   11.6600 N.am   89  GLN89      -0.0878
     63  N        -10.9060   -0.2380   10.9240 N.3    91  HIS91      -0.1241
     64  CA        -9.9650   -1.1610   10.2930 C.3    91  HIS91       0.1621
     65  C        -10.0240   -2.4740   11.0600 C.2    91  HIS91       0.2264
     66  O        -10.6890   -2.5700   12.0920 O.2    91  HIS91      -0.2867
     67  CB        -8.5340   -0.6230   10.3180 C.3    91  HIS91       0.0745
     68  CG        -8.0580   -0.4070   11.7130 C.ar   91  HIS91       0.0817
     69  ND1       -8.2920    0.7610   12.4030 N.ar   91  HIS91      -0.2268
     70  CD2       -7.4770   -1.2590   12.5920 C.ar   91  HIS91       0.1154
     71  CE1       -7.8260    0.6380   13.6360 C.ar   91  HIS91       0.1986
     72  NE2       -7.3420   -0.5840   13.7810 N.ar   91  HIS91      -0.2212
     73  N         -7.8260   -6.2650   12.3700 N.3    93  HIS93      -0.1241
     74  CA        -6.6390   -7.0820   12.6110 C.3    93  HIS93       0.1621
     75  C         -7.0780   -8.5320   12.4830 C.2    93  HIS93       0.2264
     76  O         -8.1330   -8.8870   13.0000 O.2    93  HIS93      -0.2867
     77  CB        -6.0980   -6.8260   14.0350 C.3    93  HIS93       0.0745
     78  CG        -5.7650   -5.3890   14.3050 C.ar   93  HIS93       0.0817
     79  ND1       -4.5310   -4.8470   14.0160 N.ar   93  HIS93      -0.2268
     80  CD2       -6.5340   -4.3640   14.7470 C.ar   93  HIS93       0.1154
     81  CE1       -4.5350   -3.5590   14.3230 C.ar   93  HIS93       0.1986
     82  NE2       -5.7460   -3.2360   14.7460 N.ar   93  HIS93      -0.2212
     83  N        -11.7620   -2.4530   14.8440 N.3   116  HIS116     -0.1241
     84  CA       -11.5460   -1.2460   15.6440 C.3   116  HIS116      0.1621
     85  C        -12.2170   -0.0700   14.9620 C.2   116  HIS116      0.2264
     86  O        -11.8930    0.2340   13.8120 O.2   116  HIS116     -0.2867
     87  CB       -10.0570   -0.9580   15.8010 C.3   116  HIS116      0.0745
     88  CG        -9.3590   -1.9480   16.6800 C.ar  116  HIS116      0.0817
     89  ND1       -7.9910   -2.1260   16.6800 N.ar  116  HIS116     -0.2268
     90  CD2       -9.8520   -2.7860   17.6230 C.ar  116  HIS116      0.1154
     91  CE1       -7.6780   -3.0520   17.5710 C.ar  116  HIS116      0.1986
     92  NE2       -8.7890   -3.4620   18.1610 N.ar  116  HIS116     -0.2212
     93  N        -12.3910    3.8410   15.3340 N.3   118  VAL118     -0.1245
     94  CA       -11.5350    4.8420   15.9760 C.3   118  VAL118      0.1561
     95  C        -12.2800    6.1750   16.0120 C.2   118  VAL118      0.2260
     96  O        -12.7230    6.6760   14.9700 O.2   118  VAL118     -0.2867
     97  CB       -10.1910    4.9790   15.2400 C.3   118  VAL118      0.0252
     98  CG1       -9.3140    6.0130   15.9320 C.3   118  VAL118      0.0019
     99  CG2       -9.4670    3.6200   15.1440 C.3   118  VAL118      0.0019
    100  N         -7.8760   15.4870   15.0710 N.3   127  VAL127     -0.1231
    101  CA        -7.4390   14.2080   15.6300 C.3   127  VAL127      0.1692
    102  C         -5.9680   14.2660   16.0200 C.2   127  VAL127      0.2592
    103  O         -5.5500   13.6110   16.9810 O.2   127  VAL127     -0.2718
    104  CB        -7.7310   13.0520   14.6570 C.3   127  VAL127      0.0266
    105  CG1       -6.9450   13.2200   13.3670 C.3   127  VAL127      0.0020
    106  CG2       -7.4120   11.7150   15.3370 C.3   127  VAL127      0.0020
    107  N         -5.1690   15.0680   15.3120 N.am  128  GLY128     -0.1957
    108  CA        -3.7690   15.2150   15.6830 C.3   128  GLY128      0.1869
    109  C         -3.5820   15.7580   17.0870 C.2   128  GLY128      0.2309
    110  O         -2.6950   15.3120   17.8250 O.2   128  GLY128     -0.2863
    111  N         -4.4890   13.0050   19.8470 N.3   131  VAL131     -0.1231
    112  CA        -3.5270   11.9330   20.1120 C.3   131  VAL131      0.1692
    113  C         -2.5230   12.3480   21.1890 C.2   131  VAL131      0.2591
    114  O         -1.8570   11.4900   21.7900 O.2   131  VAL131     -0.2718
    115  CB        -2.8530   11.5120   18.7830 C.3   131  VAL131      0.0266
    116  CG1       -1.7630   10.4740   18.9960 C.3   131  VAL131      0.0020
    117  CG2       -3.8890   10.9120   17.8430 C.3   131  VAL131      0.0020
    118  N         -2.4370   13.6400   21.4850 N.am  132  GLN132     -0.1979
    119  CA        -1.5410   14.1650   22.5030 C.3   132  GLN132      0.1601
    120  C         -2.1610   14.1470   23.8980 C.2   132  GLN132      0.2287
    121  O         -1.5000   14.5620   24.8580 O.2   132  GLN132     -0.2864
    122  CB        -1.1610   15.6110   22.1590 C.3   132  GLN132      0.0394
    123  CG        -0.8030   15.8330   20.6990 C.3   132  GLN132      0.0908
    124  CD         0.2790   14.9240   20.1940 C.2   132  GLN132      0.2608
    125  OE1        1.2370   14.6190   20.9030 O.2   132  GLN132     -0.2717
    126  NE2        0.1410   14.4900   18.9420 N.am  132  GLN132     -0.0878
    127  N         -8.7290    9.7790   22.3190 N.3   137  LEU137     -0.1245
    128  CA        -9.3660    8.8340   21.4170 C.3   137  LEU137      0.1561
    129  C        -10.2150    7.8420   22.1920 C.2   137  LEU137      0.2260
    130  O         -9.9480    7.5390   23.3590 O.2   137  LEU137     -0.2867
    131  CB        -8.3360    8.0260   20.5850 C.3   137  LEU137      0.0270
    132  CG        -7.3810    8.7370   19.6250 C.3   137  LEU137      0.0019
    133  CD1       -6.6210    7.7090   18.7610 C.3   137  LEU137      0.0001
    134  CD2       -8.0870    9.7450   18.7760 C.3   137  LEU137      0.0001
    135  N        -11.6460    3.9390   21.1670 N.3   139  VAL139     -0.1245
    136  CA       -11.6850    2.9180   20.1360 C.3   139  VAL139      0.1561
    137  C        -12.6570    1.8610   20.6060 C.2   139  VAL139      0.2260
    138  O        -12.5670    1.3960   21.7500 O.2   139  VAL139     -0.2867
    139  CB       -10.3030    2.3150   19.8350 C.3   139  VAL139      0.0252
    140  CG1      -10.4370    1.2890   18.7030 C.3   139  VAL139      0.0019
    141  CG2       -9.3170    3.4180   19.4130 C.3   139  VAL139      0.0019
    142  N         -2.7900    3.3120   21.3800 N.3   194  LEU194     -0.1231
    143  CA        -2.8290    2.7480   20.0340 C.3   194  LEU194      0.1693
    144  C         -2.0490    1.4440   20.0360 C.2   194  LEU194      0.2593
    145  O         -1.0900    1.2850   20.7890 O.2   194  LEU194     -0.2718
    146  CB        -2.2020    3.7170   19.0290 C.3   194  LEU194      0.0284
    147  CG        -2.8840    5.0860   18.9480 C.3   194  LEU194      0.0019
    148  CD1       -2.0440    5.9560   18.0520 C.3   194  LEU194      0.0001
    149  CD2       -4.2820    4.9570   18.4250 C.3   194  LEU194      0.0001
    150  N         -2.4540    0.4940   19.1880 N.am  195  THR195     -0.1939
    151  CA        -1.7290   -0.7720   19.1250 C.3   195  THR195      0.2028
    152  C         -0.7730   -0.8220   17.9450 C.2   195  THR195      0.2643
    153  O         -0.1380   -1.8590   17.7070 O.2   195  THR195     -0.2714
    154  CB        -2.6780   -1.9600   19.0510 C.3   195  THR195      0.1808
    155  OG1       -3.3750   -1.9390   17.8050 O.3   195  THR195     -0.2208
    156  CG2       -3.6880   -1.9530   20.2180 C.3   195  THR195      0.0379
    157  N         -0.6930    0.2490   17.1740 N.am  196  THR196     -0.1937
    158  CA         0.3470    0.3930   16.1700 C.3   196  THR196      0.2013
    159  C          1.1670    1.6340   16.4940 C.2   196  THR196      0.2484
    160  O          0.6830    2.5450   17.1720 O.2   196  THR196     -0.2729
    161  CB        -0.2530    0.5400   14.7640 C.3   196  THR196      0.1807
    162  OG1       -1.1420    1.6640   14.7540 O.3   196  THR196     -0.2208
    163  CG2       -1.0200   -0.7170   14.3640 C.3   196  THR196      0.0379
    164  N          2.4130    1.7100   16.0120 N.am  197  PRO197     -0.2715
    165  CA         3.1490    2.9710   16.1190 C.3   197  PRO197      0.1521
    166  C          2.2900    4.1440   15.6580 C.2   197  PRO197      0.2440
    167  O          1.5740    4.0340   14.6430 O.2   197  PRO197     -0.2731
    168  CB         4.3500    2.7470   15.1950 C.3   197  PRO197      0.0310
    169  CG         4.5950    1.2720   15.2910 C.3   197  PRO197      0.0237
    170  CD         3.1890    0.6690   15.3180 C.3   197  PRO197      0.0939
    171  N          2.3520    5.2680   16.3790 N.am  198  PRO198     -0.2727
    172  CA         3.3000    5.6210   17.4460 C.3   198  PRO198      0.1402
    173  C          2.9770    5.1200   18.8700 C.2   198  PRO198      0.2269
    174  O          3.6790    5.4990   19.8080 O.2   198  PRO198     -0.2865
    175  CB         3.2610    7.1490   17.4300 C.3   198  PRO198      0.0296
    176  CG         1.8520    7.4630   17.0390 C.3   198  PRO198      0.0237
    177  CD         1.5030    6.4120   15.9890 C.3   198  PRO198      0.0939
    178  N        -10.2640    2.4890   25.7560 N.3   205  TRP205     -0.1241
    179  CA       -10.7280    1.3030   25.0540 C.3   205  TRP205      0.1605
    180  C        -12.1100    0.9010   25.5400 C.2   205  TRP205      0.2264
    181  O        -12.3800    0.8780   26.7410 O.2   205  TRP205     -0.2867
    182  CB        -9.7450    0.1350   25.2440 C.3   205  TRP205      0.0550
    183  CG        -8.6030    0.2540   24.2870 C.ar  205  TRP205      0.0003
    184  CD1       -7.3760    0.8160   24.5120 C.ar  205  TRP205      0.0946
    185  CD2       -8.6070   -0.1830   22.9240 C.ar  205  TRP205      0.0152
    186  NE1       -6.6230    0.7660   23.3550 N.ar  205  TRP205     -0.2442
    187  CE2       -7.3590    0.1580   22.3690 C.ar  205  TRP205      0.0810
    188  CE3       -9.5680   -0.8120   22.1110 C.ar  205  TRP205      0.0012
    189  CZ2       -7.0290   -0.1210   21.0420 C.ar  205  TRP205      0.0191
    190  CZ3       -9.2420   -1.0870   20.7940 C.ar  205  TRP205      0.0001
    191  CH2       -7.9810   -0.7350   20.2720 C.ar  205  TRP205      0.0015
@<TRIPOS>BOND
     1    13    14    1
     2    14    15    1
     3    14    17    1
     4    15    16    2
     5    40    39    2
     6    17    18    1
     7    34    33    2
     8    39    38    1
     9    37    38    1
    10    33    32    1
    11    21    22    1
    12    18    19    2
    13    18    20   am
    14    38    41    1
    15    41    42    1
    16    31    32    1
    17    31    23   am
    18    32    35    1
    19    22    23    1
    20    22    25    1
    21    44    43    2
    22    23    24    2
    23    42    43    1
    24    43    45   am
    25    27    29   ar
    26    27    26   ar
    27    35    36    1
    28    25    26    1
    29    29    30   ar
    30    26    28   ar
    31    49    48    2
    32    30    28   ar
    33    58    55    1
    34    58    59    1
    35    64    67    1
    36    64    63    1
    37    64    65    1
    38    67    68    1
    39    55    56    1
    40    55    54    1
    41    52    51    1
    42     1     2    1
    43    48    54   am
    44    48    47    1
    45    65    66    2
    46    56    57    2
    47     8    10   ar
    48     8     6   ar
    49    59    60    1
    50    61    60    2
    51    60    62   am
    52     3     2    1
    53     3     4    2
    54     5     2    1
    55     5     6    1
    56    51    53    1
    57    51    50    1
    58    10    11   ar
    59    68    69   ar
    60    68    70   ar
    61    47    50    1
    62    47    46    1
    63     6     7   ar
    64    73    74    1
    65    69    71   ar
    66    75    74    1
    67    75    76    2
    68    70    72   ar
    69    74    77    1
    70    11    12    1
    71    11     9   ar
    72     7     9   ar
    73   105   104    1
    74    71    72   ar
    75    86    85    2
    76    79    78   ar
    77    79    81   ar
    78    77    78    1
    79    78    80   ar
    80    81    82   ar
    81   163   161    1
    82   167   166    2
    83   104   106    1
    84   104   101    1
    85    82    80   ar
    86   162   161    1
    87   161   158    1
    88    83    84    1
    89    85    84    1
    90    96    95    2
    91   100   101    1
    92    99    97    1
    93   168   169    1
    94   168   165    1
    95    97    98    1
    96    97    94    1
    97   169   170    1
    98   107   108    1
    99   107   102   am
   100   170   164    1
   101    93    94    1
   102   101   102    1
   103    84    87    1
   104   166   165    1
   105   166   171   am
   106   108   109    1
   107    87    88    1
   108    94    95    1
   109   177   171    1
   110   177   176    1
   111   164   165    1
   112   164   159   am
   113   102   103    2
   114   158   159    1
   115   158   157    1
   116   171   172    1
   117   159   160    2
   118    89    88   ar
   119    89    91   ar
   120    88    90   ar
   121   176   175    1
   122   109   110    2
   123   157   152   am
   124   175   172    1
   125   172   173    1
   126    91    92   ar
   127    90    92   ar
   128   153   152    2
   129   155   154    1
   130   117   115    1
   131   152   151    1
   132   148   147    1
   133   149   147    1
   134   140   139    1
   135   133   132    1
   136   134   132    1
   137   115   116    1
   138   115   112    1
   139   173   174    2
   140   126   124   am
   141   147   146    1
   142   146   143    1
   143   154   151    1
   144   154   156    1
   145   151   150    1
   146   150   144   am
   147   141   139    1
   148   132   131    1
   149   139   136    1
   150   111   112    1
   151   143   144    1
   152   143   142    1
   153   144   145    2
   154   112   113    1
   155   136   137    1
   156   136   135    1
   157   124   123    1
   158   124   125    2
   159   191   190   ar
   160   191   189   ar
   161   131   128    1
   162   137   138    2
   163   123   122    1
   164   190   188   ar
   165   189   187   ar
   166   113   118   am
   167   113   114    2
   168   128   129    1
   169   128   127    1
   170   118   119    1
   171   188   185   ar
   172   122   119    1
   173   129   130    2
   174   187   185   ar
   175   187   186   ar
   176   119   120    1
   177   185   183   ar
   178   186   184   ar
   179   120   121    2
   180   183   184   ar
   181   183   182    1
   182   179   182    1
   183   179   180    1
   184   179   178    1
   185   180   181    2
