@<TRIPOS>MOLECULE
tmp/6eehA01.pdb
 92 92 0 0 0
SMALL
GASTEIGER

@<TRIPOS>ATOM
      1  N         10.5680    0.4140    7.4250 N.3     1  HIS1       -0.1226
      2  CA         9.7220    0.6870    8.5850 C.3     1  HIS1        0.1752
      3  C          9.3810   -0.4800    9.4820 C.2     1  HIS1        0.2596
      4  O          9.9190   -1.5830    9.3860 O.2     1  HIS1       -0.2718
      5  CB         8.3830    1.2930    8.1680 C.3     1  HIS1        0.0759
      6  CG         8.4130    2.7690    7.9580 C.ar    1  HIS1        0.0818
      7  ND1        7.3260    3.4680    7.4790 N.ar    1  HIS1       -0.2268
      8  CD2        9.3820    3.6860    8.1810 C.ar    1  HIS1        0.1154
      9  CE1        7.6240    4.7520    7.4130 C.ar    1  HIS1        0.1986
     10  NE2        8.8670    4.9110    7.8290 N.ar    1  HIS1       -0.2212
     11  N          8.4310   -0.1960   10.3560 N.am    2  TRP2       -0.1976
     12  CA         7.9060   -1.2100   11.2460 C.3     2  TRP2        0.1640
     13  C          6.9020   -2.0780   10.5040 C.2     2  TRP2        0.2290
     14  O          6.3240   -1.6860    9.4860 O.2     2  TRP2       -0.2864
     15  CB         7.2300   -0.5800   12.4640 C.3     2  TRP2        0.0576
     16  CG         6.0380    0.2700   12.1290 C.ar    2  TRP2        0.0006
     17  CD1        6.0380    1.6100   11.8220 C.ar    2  TRP2        0.0946
     18  CD2        4.6700   -0.1530   12.0660 C.ar    2  TRP2        0.0152
     19  NE1        4.7580    2.0360   11.5710 N.ar    2  TRP2       -0.2442
     20  CE2        3.8980    0.9750   11.7130 C.ar    2  TRP2        0.0810
     21  CE3        4.0200   -1.3750   12.2850 C.ar    2  TRP2        0.0012
     22  CZ2        2.5090    0.9200   11.5720 C.ar    2  TRP2        0.0191
     23  CZ3        2.6300   -1.4280   12.1470 C.ar    2  TRP2        0.0001
     24  CH2        1.8930   -0.2850   11.7920 C.ar    2  TRP2        0.0015
     25  N         10.0400    3.4910   19.0390 N.3    17  PHE17      -0.1241
     26  CA         8.9170    4.0370   19.8050 C.3    17  PHE17       0.1605
     27  C          9.0440    3.5330   21.2340 C.2    17  PHE17       0.2264
     28  O          8.3940    2.5550   21.6240 O.2    17  PHE17      -0.2867
     29  CB         7.5860    3.6260   19.1750 C.3    17  PHE17       0.0534
     30  CG         7.4880    4.0170   17.7280 C.ar   17  PHE17      -0.0203
     31  CD1        7.1340    5.3090   17.3610 C.ar   17  PHE17      -0.0042
     32  CD2        7.8180    3.1090   16.7390 C.ar   17  PHE17      -0.0042
     33  CE1        7.0830    5.6630   16.0270 C.ar   17  PHE17      -0.0003
     34  CE2        7.7610    3.4630   15.4000 C.ar   17  PHE17      -0.0003
     35  CZ         7.3960    4.7400   15.0540 C.ar   17  PHE17      -0.0000
     36  N         -0.3780   -1.9740    6.4350 N.3    61  HIS61      -0.1241
     37  CA        -0.4650   -2.8280    7.6200 C.3    61  HIS61       0.1621
     38  C         -1.8690   -3.3180    7.9280 C.2    61  HIS61       0.2264
     39  O         -2.0020   -4.3300    8.6300 O.2    61  HIS61      -0.2867
     40  CB         0.1380   -2.1520    8.8610 C.3    61  HIS61       0.0745
     41  CG        -0.3500   -0.7640    9.1350 C.ar   61  HIS61       0.0817
     42  ND1        0.2050    0.3520    8.5410 N.ar   61  HIS61      -0.2268
     43  CD2       -1.3120   -0.3050    9.9720 C.ar   61  HIS61       0.1154
     44  CE1       -0.4070    1.4360    8.9870 C.ar   61  HIS61       0.1986
     45  NE2       -1.3320    1.0660    9.8570 N.ar   61  HIS61      -0.2212
     46  N        -12.5540    5.2100    5.7640 N.3    66  THR66      -0.1218
     47  CA       -12.4690    6.5290    6.3770 C.3    66  THR66       0.1862
     48  C        -13.8230    7.2210    6.2940 C.2    66  THR66       0.2287
     49  O        -14.6260    6.9340    5.4040 O.2    66  THR66      -0.2866
     50  CB       -11.4020    7.3880    5.6930 C.3    66  THR66       0.1770
     51  OG1      -11.7020    7.4840    4.2910 O.3    66  THR66      -0.2211
     52  CG2      -10.0370    6.7540    5.8560 C.3    66  THR66       0.0375
     53  N        -13.7800    8.4280   12.8890 N.3    88  LEU88      -0.1245
     54  CA       -12.7880    8.7820   11.8810 C.3    88  LEU88       0.1561
     55  C        -12.5660    7.6690   10.8730 C.2    88  LEU88       0.2260
     56  O        -12.5640    7.9050    9.6700 O.2    88  LEU88      -0.2867
     57  CB       -11.4530    9.1040   12.5650 C.3    88  LEU88       0.0270
     58  CG       -10.2510    9.2990   11.6360 C.3    88  LEU88       0.0019
     59  CD1      -10.4390   10.5220   10.7750 C.3    88  LEU88       0.0001
     60  CD2       -8.9480    9.3780   12.4260 C.3    88  LEU88       0.0001
     61  N         -7.8760   15.4870   15.0710 N.3   127  VAL127     -0.1231
     62  CA        -7.4390   14.2080   15.6300 C.3   127  VAL127      0.1692
     63  C         -5.9680   14.2660   16.0200 C.2   127  VAL127      0.2592
     64  O         -5.5500   13.6110   16.9810 O.2   127  VAL127     -0.2718
     65  CB        -7.7310   13.0520   14.6570 C.3   127  VAL127      0.0266
     66  CG1       -6.9450   13.2200   13.3670 C.3   127  VAL127      0.0020
     67  CG2       -7.4120   11.7150   15.3370 C.3   127  VAL127      0.0020
     68  N         -5.1690   15.0680   15.3120 N.am  128  GLY128     -0.1957
     69  CA        -3.7690   15.2150   15.6830 C.3   128  GLY128      0.1869
     70  C         -3.5820   15.7580   17.0870 C.2   128  GLY128      0.2309
     71  O         -2.6950   15.3120   17.8250 O.2   128  GLY128     -0.2863
     72  N         -0.6930    0.2490   17.1740 N.3   196  THR196     -0.1204
     73  CA         0.3470    0.3930   16.1700 C.3   196  THR196      0.1979
     74  C          1.1670    1.6340   16.4940 C.2   196  THR196      0.2460
     75  O          0.6830    2.5450   17.1720 O.2   196  THR196     -0.2732
     76  CB        -0.2530    0.5400   14.7640 C.3   196  THR196      0.1783
     77  OG1       -1.1420    1.6640   14.7540 O.3   196  THR196     -0.2211
     78  CG2       -1.0200   -0.7170   14.3640 C.3   196  THR196      0.0376
     79  N          2.4130    1.7100   16.0120 N.am  197  PRO197     -0.2718
     80  CA         3.1490    2.9710   16.1190 C.3   197  PRO197      0.1520
     81  C          2.2900    4.1440   15.6580 C.2   197  PRO197      0.2440
     82  O          1.5740    4.0340   14.6430 O.2   197  PRO197     -0.2731
     83  CB         4.3500    2.7470   15.1950 C.3   197  PRO197      0.0310
     84  CG         4.5950    1.2720   15.2910 C.3   197  PRO197      0.0237
     85  CD         3.1890    0.6690   15.3180 C.3   197  PRO197      0.0939
     86  N          2.3520    5.2680   16.3790 N.am  198  PRO198     -0.2727
     87  CA         3.3000    5.6210   17.4460 C.3   198  PRO198      0.1402
     88  C          2.9770    5.1200   18.8700 C.2   198  PRO198      0.2269
     89  O          3.6790    5.4990   19.8080 O.2   198  PRO198     -0.2865
     90  CB         3.2610    7.1490   17.4300 C.3   198  PRO198      0.0296
     91  CG         1.8520    7.4630   17.0390 C.3   198  PRO198      0.0237
     92  CD         1.5030    6.4120   15.9890 C.3   198  PRO198      0.0939
@<TRIPOS>BOND
     1    51    50    1
     2    49    48    2
     3    50    52    1
     4    50    47    1
     5    46    47    1
     6    48    47    1
     7    36    37    1
     8     9     7   ar
     9     9    10   ar
    10     1     2    1
    11     7     6   ar
    12    37    38    1
    13    37    40    1
    14    10     8   ar
    15    38    39    2
    16     6     5    1
    17     6     8   ar
    18     5     2    1
    19    42    44   ar
    20    42    41   ar
    21     2     3    1
    22    40    41    1
    23    44    45   ar
    24    41    43   ar
    25     4     3    2
    26     3    11   am
    27    14    13    2
    28    56    55    2
    29    45    43   ar
    30    11    12    1
    31    13    12    1
    32    59    58    1
    33    55    54    1
    34    12    15    1
    35    19    20   ar
    36    19    17   ar
    37    22    20   ar
    38    22    24   ar
    39    58    60    1
    40    58    57    1
    41    20    18   ar
    42    24    23   ar
    43    17    16   ar
    44    54    57    1
    45    54    53    1
    46    18    16   ar
    47    18    21   ar
    48    16    15    1
    49    23    21   ar
    50    66    65    1
    51    78    76    1
    52    82    81    2
    53    65    67    1
    54    65    62    1
    55    77    76    1
    56    76    73    1
    57    35    34   ar
    58    35    33   ar
    59    61    62    1
    60    83    84    1
    61    83    80    1
    62    84    85    1
    63    68    69    1
    64    68    63   am
    65    85    79    1
    66    34    32   ar
    67    62    63    1
    68    81    80    1
    69    81    86   am
    70    69    70    1
    71    92    86    1
    72    92    91    1
    73    79    80    1
    74    79    74   am
    75    63    64    2
    76    33    31   ar
    77    73    74    1
    78    73    72    1
    79    86    87    1
    80    74    75    2
    81    32    30   ar
    82    91    90    1
    83    70    71    2
    84    31    30   ar
    85    90    87    1
    86    87    88    1
    87    30    29    1
    88    88    89    2
    89    25    26    1
    90    29    26    1
    91    26    27    1
    92    27    28    2
