@<TRIPOS>MOLECULE
tmp/6eehA02.pdb
 75 71 0 0 0
SMALL
GASTEIGER

@<TRIPOS>ATOM
      1  N         10.0400    3.4910   19.0390 N.3    17  PHE17      -0.1241
      2  CA         8.9170    4.0370   19.8050 C.3    17  PHE17       0.1605
      3  C          9.0440    3.5330   21.2340 C.2    17  PHE17       0.2264
      4  O          8.3940    2.5550   21.6240 O.2    17  PHE17      -0.2867
      5  CB         7.5860    3.6260   19.1750 C.3    17  PHE17       0.0534
      6  CG         7.4880    4.0170   17.7280 C.ar   17  PHE17      -0.0203
      7  CD1        7.1340    5.3090   17.3610 C.ar   17  PHE17      -0.0042
      8  CD2        7.8180    3.1090   16.7390 C.ar   17  PHE17      -0.0042
      9  CE1        7.0830    5.6630   16.0270 C.ar   17  PHE17      -0.0003
     10  CE2        7.7610    3.4630   15.4000 C.ar   17  PHE17      -0.0003
     11  CZ         7.3960    4.7400   15.0540 C.ar   17  PHE17      -0.0000
     12  N          7.8350    4.3050   23.9430 N.3    19  ILE19      -0.1245
     13  CA         6.6160    4.1790   24.7300 C.3    19  ILE19       0.1561
     14  C          6.0110    2.7800   24.6150 C.2    19  ILE19       0.2260
     15  O          5.0990    2.4390   25.3750 O.2    19  ILE19      -0.2867
     16  CB         5.6110    5.2750   24.3130 C.3    19  ILE19       0.0252
     17  CG1        4.5540    5.4740   25.4050 C.3    19  ILE19       0.0019
     18  CG2        4.9590    4.9160   22.9830 C.3    19  ILE19       0.0019
     19  CD1        3.7040    6.7040   25.2250 C.3    19  ILE19       0.0001
     20  N         -8.9850   18.6900   16.3670 N.3   126  ASP126     -0.1225
     21  CA        -8.6490   17.7700   15.2920 C.3   126  ASP126      0.1805
     22  C         -7.9560   16.5470   15.8800 C.2   126  ASP126      0.2598
     23  O         -7.5180   16.5430   17.0350 O.2   126  ASP126     -0.2718
     24  CB        -7.7750   18.3880   14.1730 C.3   126  ASP126      0.1424
     25  CG        -6.4190   18.9290   14.6580 C.2   126  ASP126      0.3668
     26  OD1       -6.2960   20.1360   14.9590 O.co2 126  ASP126     -0.2456
     27  OD2       -5.4830   18.1040   14.8340 O.co2 126  ASP126     -0.2456
     28  N         -7.8760   15.4870   15.0710 N.am  127  VAL127     -0.1966
     29  CA        -7.4390   14.2080   15.6300 C.3   127  VAL127      0.1727
     30  C         -5.9680   14.2660   16.0200 C.2   127  VAL127      0.2617
     31  O         -5.5500   13.6110   16.9810 O.2   127  VAL127     -0.2715
     32  CB        -7.7310   13.0520   14.6570 C.3   127  VAL127      0.0290
     33  CG1       -6.9450   13.2200   13.3670 C.3   127  VAL127      0.0023
     34  CG2       -7.4120   11.7150   15.3370 C.3   127  VAL127      0.0023
     35  N         -5.1690   15.0680   15.3120 N.am  128  GLY128     -0.1940
     36  CA        -3.7690   15.2150   15.6830 C.3   128  GLY128      0.2014
     37  C         -3.5820   15.7580   17.0870 C.2   128  GLY128      0.2638
     38  O         -2.6950   15.3120   17.8250 O.2   128  GLY128     -0.2714
     39  N         -4.3940   16.7430   17.4760 N.am  129  LYS129     -0.1977
     40  CA        -4.2940   17.2420   18.8450 C.3   129  LYS129      0.1596
     41  C         -4.7690   16.1950   19.8400 C.2   129  LYS129      0.2287
     42  O         -4.2650   16.1280   20.9640 O.2   129  LYS129     -0.2864
     43  CB        -5.1200   18.5070   19.0250 C.3   129  LYS129      0.0298
     44  CG        -4.3860   19.7900   18.7040 C.3   129  LYS129      0.0038
     45  CD        -4.1570   19.8220   17.2560 C.3   129  LYS129      0.0206
     46  CE        -3.5180   21.0820   16.7770 C.3   129  LYS129      0.1093
     47  NZ        -3.4630   20.8530   15.3370 N.3   129  LYS129     -0.1314
     48  N         -4.4890   13.0050   19.8470 N.3   131  VAL131     -0.1231
     49  CA        -3.5270   11.9330   20.1120 C.3   131  VAL131      0.1692
     50  C         -2.5230   12.3480   21.1890 C.2   131  VAL131      0.2591
     51  O         -1.8570   11.4900   21.7900 O.2   131  VAL131     -0.2718
     52  CB        -2.8530   11.5120   18.7830 C.3   131  VAL131      0.0266
     53  CG1       -1.7630   10.4740   18.9960 C.3   131  VAL131      0.0020
     54  CG2       -3.8890   10.9120   17.8430 C.3   131  VAL131      0.0020
     55  N         -2.4370   13.6400   21.4850 N.am  132  GLN132     -0.1979
     56  CA        -1.5410   14.1650   22.5030 C.3   132  GLN132      0.1601
     57  C         -2.1610   14.1470   23.8980 C.2   132  GLN132      0.2287
     58  O         -1.5000   14.5620   24.8580 O.2   132  GLN132     -0.2864
     59  CB        -1.1610   15.6110   22.1590 C.3   132  GLN132      0.0394
     60  CG        -0.8030   15.8330   20.6990 C.3   132  GLN132      0.0908
     61  CD         0.2790   14.9240   20.1940 C.2   132  GLN132      0.2608
     62  OE1        1.2370   14.6190   20.9030 O.2   132  GLN132     -0.2717
     63  NE2        0.1410   14.4900   18.9420 N.am  132  GLN132     -0.0878
     64  N          2.3520    5.2680   16.3790 N.3   198  PRO198     -0.2116
     65  CA         3.3000    5.6210   17.4460 C.3   198  PRO198      0.1372
     66  C          2.9770    5.1200   18.8700 C.2   198  PRO198      0.2244
     67  O          3.6790    5.4990   19.8080 O.2   198  PRO198     -0.2868
     68  CB         3.2610    7.1490   17.4300 C.3   198  PRO198      0.0268
     69  CG         1.8520    7.4630   17.0390 C.3   198  PRO198      0.0207
     70  CD         1.5030    6.4120   15.9890 C.3   198  PRO198      0.0892
     71  N          0.7220    5.7320   20.9810 N.3   200  ALA200     -0.1245
     72  CA         0.4390    6.8240   21.9040 C.3   200  ALA200      0.1562
     73  C         -0.5730    6.3970   22.9640 C.2   200  ALA200      0.2260
     74  O         -1.5640    5.7110   22.6770 O.2   200  ALA200     -0.2867
     75  CB        -0.0760    8.0430   21.1360 C.3   200  ALA200      0.0290
@<TRIPOS>BOND
     1    33    32    1
     2    24    25    1
     3    24    21    1
     4    32    34    1
     5    32    29    1
     6    25    27   ar
     7    25    26   ar
     8    11    10   ar
     9    11     9   ar
    10    28    29    1
    11    28    22   am
    12    21    22    1
    13    21    20    1
    14    35    36    1
    15    35    30   am
    16    47    46    1
    17    10     8   ar
    18    29    30    1
    19    36    37    1
    20    22    23    2
    21    70    64    1
    22    70    69    1
    23    30    31    2
    24     9     7   ar
    25    64    65    1
    26     8     6   ar
    27    46    45    1
    28    69    68    1
    29    37    39   am
    30    37    38    2
    31    45    44    1
    32     7     6   ar
    33    68    65    1
    34    65    66    1
    35    39    40    1
    36     6     5    1
    37    54    52    1
    38    44    43    1
    39    52    53    1
    40    52    49    1
    41    40    43    1
    42    40    41    1
    43    66    67    2
    44    63    61   am
    45     1     2    1
    46     5     2    1
    47     2     3    1
    48    41    42    2
    49    48    49    1
    50    49    50    1
    51    61    60    1
    52    61    62    2
    53    60    59    1
    54    71    72    1
    55    75    72    1
    56    50    55   am
    57    50    51    2
    58     3     4    2
    59    55    56    1
    60    72    73    1
    61    59    56    1
    62    56    57    1
    63    74    73    2
    64    18    16    1
    65    57    58    2
    66    12    13    1
    67    16    13    1
    68    16    17    1
    69    14    13    1
    70    14    15    2
    71    19    17    1
