@<TRIPOS>MOLECULE
tmp/6eeiB00.pdb
 97 98 0 0 0
SMALL
GASTEIGER

@<TRIPOS>ATOM
      1  N        -11.9680    4.4160   -6.2100 N.3    75  TRP75      -0.1241
      2  CA       -12.4400    3.9450   -7.5070 C.3    75  TRP75       0.1605
      3  C        -13.3280    2.7130   -7.3980 C.2    75  TRP75       0.2264
      4  O        -14.1370    2.4640   -8.3010 O.2    75  TRP75      -0.2867
      5  CB       -11.2470    3.6320   -8.4150 C.3    75  TRP75       0.0550
      6  CG       -10.6410    4.8480   -9.0300 C.ar   75  TRP75       0.0003
      7  CD1       -9.8160    5.7520   -8.4230 C.ar   75  TRP75       0.0946
      8  CD2      -10.8280    5.3110  -10.3730 C.ar   75  TRP75       0.0152
      9  NE1       -9.4740    6.7480   -9.3080 N.ar   75  TRP75      -0.2442
     10  CE2      -10.0840    6.5020  -10.5110 C.ar   75  TRP75       0.0810
     11  CE3      -11.5570    4.8390  -11.4690 C.ar   75  TRP75       0.0012
     12  CZ2      -10.0500    7.2280  -11.7010 C.ar   75  TRP75       0.0191
     13  CZ3      -11.5140    5.5560  -12.6570 C.ar   75  TRP75       0.0001
     14  CH2      -10.7730    6.7430  -12.7580 C.ar   75  TRP75       0.0015
     15  N        -15.8980    9.3440  -14.5880 N.3    83  TYR83      -0.1227
     16  CA       -15.1010    8.9490  -15.7430 C.3    83  TYR83       0.1736
     17  C        -15.5970    7.6140  -16.2850 C.2    83  TYR83       0.2595
     18  O        -16.7450    7.5120  -16.7200 O.2    83  TYR83      -0.2718
     19  CB       -13.6160    8.8950  -15.3730 C.3    83  TYR83       0.0548
     20  CG       -13.1680   10.1580  -14.6620 C.ar   83  TYR83      -0.0200
     21  CD1      -13.1380   11.3760  -15.3330 C.ar   83  TYR83      -0.0009
     22  CD2      -12.7830   10.1350  -13.3300 C.ar   83  TYR83      -0.0009
     23  CE1      -12.7500   12.5400  -14.6940 C.ar   83  TYR83       0.0417
     24  CE2      -12.3850   11.2960  -12.6830 C.ar   83  TYR83       0.0417
     25  CZ       -12.3690   12.4930  -13.3730 C.ar   83  TYR83       0.1957
     26  OH       -11.9740   13.6490  -12.7440 O.3    83  TYR83      -0.2866
     27  N        -14.7480    6.5990  -16.2770 N.am   84  TYR84      -0.1963
     28  CA       -15.1610    5.2310  -16.5470 C.3    84  TYR84       0.1756
     29  C        -14.6190    4.3290  -15.4530 C.2    84  TYR84       0.2461
     30  O        -13.6170    4.6550  -14.8090 O.2    84  TYR84      -0.2730
     31  CB       -14.6720    4.7450  -17.9190 C.3    84  TYR84       0.0574
     32  CG       -15.5910    5.1230  -19.0600 C.ar   84  TYR84      -0.0198
     33  CD1      -16.9680    5.1100  -18.8930 C.ar   84  TYR84      -0.0009
     34  CD2      -15.0860    5.4870  -20.3080 C.ar   84  TYR84      -0.0009
     35  CE1      -17.8180    5.4520  -19.9230 C.ar   84  TYR84       0.0417
     36  CE2      -15.9390    5.8370  -21.3530 C.ar   84  TYR84       0.0417
     37  CZ       -17.3020    5.8130  -21.1500 C.ar   84  TYR84       0.1957
     38  OH       -18.1720    6.1520  -22.1650 O.3    84  TYR84      -0.2866
     39  N        -15.2560    3.1810  -15.2250 N.am   85  PRO85      -0.2716
     40  CA       -14.7770    2.2760  -14.1760 C.3    85  PRO85       0.1536
     41  C        -13.3490    1.8250  -14.4460 C.2    85  PRO85       0.2599
     42  O        -12.8810    1.8020  -15.5860 O.2    85  PRO85      -0.2715
     43  CB       -15.7530    1.0920  -14.2490 C.3    85  PRO85       0.0310
     44  CG       -16.2470    1.1110  -15.6590 C.3    85  PRO85       0.0237
     45  CD       -16.3470    2.5850  -16.0120 C.3    85  PRO85       0.0939
     46  N        -12.6490    1.4800  -13.3680 N.am   86  SER86      -0.1950
     47  CA       -11.3470    0.7990  -13.4240 C.3    86  SER86       0.1924
     48  C        -11.4960   -0.4170  -12.5110 C.2    86  SER86       0.2314
     49  O        -11.1200   -0.3740  -11.3360 O.2    86  SER86      -0.2863
     50  CB       -10.1910    1.7180  -12.9930 C.3    86  SER86       0.2116
     51  OG        -8.9440    1.0690  -13.2030 O.3    86  SER86      -0.2180
     52  N        -10.4870   10.4190  -27.7820 N.3   186  HIS186     -0.1241
     53  CA        -9.7110   10.6160  -26.5680 C.3   186  HIS186      0.1621
     54  C         -8.4120   11.3610  -26.8730 C.2   186  HIS186      0.2264
     55  O         -7.8400   11.2460  -27.9610 O.2   186  HIS186     -0.2867
     56  CB        -9.4000    9.2630  -25.9260 C.3   186  HIS186      0.0745
     57  CG        -8.8260    9.3680  -24.5500 C.ar  186  HIS186      0.0817
     58  ND1       -7.4690    9.4120  -24.3140 N.ar  186  HIS186     -0.2268
     59  CD2       -9.4210    9.4270  -23.3350 C.ar  186  HIS186      0.1154
     60  CE1       -7.2520    9.5040  -23.0140 C.ar  186  HIS186      0.1986
     61  NE2       -8.4200    9.5140  -22.3970 N.ar  186  HIS186     -0.2212
     62  N        -15.4450    8.8330  -24.5410 N.3   245  THR245     -0.1218
     63  CA       -15.4020    9.0700  -23.1060 C.3   245  THR245      0.1862
     64  C        -16.5090   10.0160  -22.6650 C.2   245  THR245      0.2287
     65  O        -17.0780    9.8340  -21.5820 O.2   245  THR245     -0.2866
     66  CB       -14.0220    9.5880  -22.6950 C.3   245  THR245      0.1770
     67  OG1      -13.7510   10.8380  -23.3390 O.3   245  THR245     -0.2211
     68  CG2      -12.9620    8.5850  -23.0890 C.3   245  THR245      0.0375
     69  N        -10.0760   -2.1020  -23.3550 N.3   299  ASN299     -0.1240
     70  CA        -9.4360   -2.0490  -22.0410 C.3   299  ASN299      0.1653
     71  C        -10.0790   -3.0840  -21.1260 C.2   299  ASN299      0.2266
     72  O        -11.2050   -2.8980  -20.6620 O.2   299  ASN299     -0.2867
     73  CB        -9.5280   -0.6500  -21.4410 C.3   299  ASN299      0.1155
     74  CG        -8.3170    0.1960  -21.7660 C.2   299  ASN299      0.2627
     75  OD1       -7.4150   -0.2470  -22.4680 O.2   299  ASN299     -0.2716
     76  ND2       -8.3050    1.4310  -21.2800 N.am  299  ASN299     -0.0877
     77  N         -9.0630   -3.5870  -18.2100 N.3   301  HIS301     -0.1241
     78  CA        -8.9970   -3.0210  -16.8680 C.3   301  HIS301      0.1621
     79  C         -9.9990   -1.8920  -16.6620 C.2   301  HIS301      0.2264
     80  O         -9.9860   -1.2260  -15.6290 O.2   301  HIS301     -0.2867
     81  CB        -7.5730   -2.5440  -16.5410 C.3   301  HIS301      0.0745
     82  CG        -7.0880   -1.3900  -17.3710 C.ar  301  HIS301      0.0817
     83  ND1       -6.0030   -1.4930  -18.2190 N.ar  301  HIS301     -0.2268
     84  CD2       -7.5090   -0.1040  -17.4530 C.ar  301  HIS301      0.1154
     85  CE1       -5.7910   -0.3260  -18.8040 C.ar  301  HIS301      0.1986
     86  NE2       -6.6900    0.5340  -18.3560 N.ar  301  HIS301     -0.2212
     87  N         -6.1100   -3.1480  -13.1960 N.3   307  PHE307     -0.1241
     88  CA        -5.0960   -2.3860  -13.9220 C.3   307  PHE307      0.1605
     89  C         -3.6990   -2.9340  -13.6320 C.2   307  PHE307      0.2264
     90  O         -3.3660   -3.2410  -12.4850 O.2   307  PHE307     -0.2867
     91  CB        -5.2050   -0.9070  -13.5090 C.3   307  PHE307      0.0534
     92  CG        -4.3930    0.0300  -14.3540 C.ar  307  PHE307     -0.0203
     93  CD1       -4.9800    0.7250  -15.3980 C.ar  307  PHE307     -0.0042
     94  CD2       -3.0480    0.2230  -14.1030 C.ar  307  PHE307     -0.0042
     95  CE1       -4.2320    1.5980  -16.1840 C.ar  307  PHE307     -0.0003
     96  CE2       -2.2940    1.0930  -14.8860 C.ar  307  PHE307     -0.0003
     97  CZ        -2.8860    1.7730  -15.9260 C.ar  307  PHE307     -0.0000
@<TRIPOS>BOND
     1    55    54    2
     2    52    53    1
     3    54    53    1
     4    53    56    1
     5    56    57    1
     6    57    58   ar
     7    57    59   ar
     8    62    63    1
     9    58    60   ar
    10    69    70    1
    11    67    66    1
    12    59    61   ar
    13    63    66    1
    14    63    64    1
    15    68    66    1
    16    60    61   ar
    17    64    65    2
    18    75    74    2
    19    38    37    1
    20    70    73    1
    21    70    71    1
    22    74    73    1
    23    74    76   am
    24    36    37   ar
    25    36    34   ar
    26    37    35   ar
    27    71    72    2
    28    34    32   ar
    29    35    33   ar
    30    32    33   ar
    31    32    31    1
    32    85    86   ar
    33    85    83   ar
    34    86    84   ar
    35    83    82   ar
    36    77    78    1
    37    31    28    1
    38    84    82   ar
    39    82    81    1
    40    78    79    1
    41    78    81    1
    42    18    17    2
    43    79    80    2
    44    28    27    1
    45    28    29    1
    46    17    27   am
    47    17    16    1
    48    95    97   ar
    49    95    93   ar
    50    45    44    1
    51    45    39    1
    52    97    96   ar
    53    16    19    1
    54    16    15    1
    55    44    43    1
    56    42    41    2
    57    29    39   am
    58    29    30    2
    59    93    92   ar
    60    19    20    1
    61    21    23   ar
    62    21    20   ar
    63    39    40    1
    64    96    94   ar
    65    23    25   ar
    66    20    22   ar
    67    41    40    1
    68    41    46   am
    69    92    94   ar
    70    92    91    1
    71    43    40    1
    72    88    89    1
    73    88    91    1
    74    88    87    1
    75    89    90    2
    76    47    46    1
    77    47    50    1
    78    47    48    1
    79    25    26    1
    80    25    24   ar
    81    22    24   ar
    82    51    50    1
    83    14    13   ar
    84    14    12   ar
    85    13    11   ar
    86    48    49    2
    87    12    10   ar
    88    11     8   ar
    89    10     8   ar
    90    10     9   ar
    91     8     6   ar
    92     9     7   ar
    93     6     7   ar
    94     6     5    1
    95     5     2    1
    96     4     3    2
    97     2     3    1
    98     2     1    1
