@<TRIPOS>MOLECULE
tmp/6eemB00.pdb
 93 93 0 0 0
SMALL
GASTEIGER

@<TRIPOS>ATOM
      1  N         -5.7750   22.2340   -0.3480 N.3    74  TRP74      -0.1241
      2  CA        -6.9500   23.0700   -0.5550 C.3    74  TRP74       0.1605
      3  C         -8.2230   22.2470   -0.6880 C.2    74  TRP74       0.2264
      4  O         -9.3170   22.7470   -0.4030 O.2    74  TRP74      -0.2867
      5  CB        -6.7540   23.9200   -1.8050 C.3    74  TRP74       0.0550
      6  CG        -5.8640   25.1150   -1.6360 C.ar   74  TRP74       0.0003
      7  CD1       -4.4960   25.1310   -1.5820 C.ar   74  TRP74       0.0946
      8  CD2       -6.2850   26.4800   -1.5400 C.ar   74  TRP74       0.0152
      9  NE1       -4.0430   26.4250   -1.4470 N.ar   74  TRP74      -0.2442
     10  CE2       -5.1230   27.2700   -1.4210 C.ar   74  TRP74       0.0810
     11  CE3       -7.5340   27.1100   -1.5350 C.ar   74  TRP74       0.0012
     12  CZ2       -5.1770   28.6550   -1.2960 C.ar   74  TRP74       0.0191
     13  CZ3       -7.5850   28.4820   -1.4100 C.ar   74  TRP74       0.0001
     14  CH2       -6.4160   29.2400   -1.2920 C.ar   74  TRP74       0.0015
     15  N         -9.0510   30.8720    3.7600 N.3    82  TYR82      -0.1227
     16  CA        -9.3590   31.8200    2.6920 C.3    82  TYR82       0.1736
     17  C        -10.7710   31.5970    2.1610 C.2    82  TYR82       0.2595
     18  O        -11.7480   31.7660    2.8950 O.2    82  TYR82      -0.2718
     19  CB        -8.3250   31.7130    1.5600 C.3    82  TYR82       0.0548
     20  CG        -6.9040   32.0320    1.9920 C.ar   82  TYR82      -0.0200
     21  CD1       -6.4990   33.3450    2.1940 C.ar   82  TYR82      -0.0009
     22  CD2       -5.9690   31.0190    2.2030 C.ar   82  TYR82      -0.0009
     23  CE1       -5.2090   33.6460    2.6030 C.ar   82  TYR82       0.0417
     24  CE2       -4.6710   31.3100    2.6050 C.ar   82  TYR82       0.0417
     25  CZ        -4.2990   32.6290    2.8060 C.ar   82  TYR82       0.1957
     26  OH        -3.0130   32.9410    3.2050 O.3    82  TYR82      -0.2866
     27  N        -10.8800   31.2290    0.8920 N.am   83  PHE83      -0.1963
     28  CA       -12.1010   30.7440    0.2720 C.3    83  PHE83       0.1756
     29  C        -11.8050   29.4030   -0.3830 C.2    83  PHE83       0.2461
     30  O        -10.6430   29.0720   -0.6370 O.2    83  PHE83      -0.2730
     31  CB       -12.6430   31.7440   -0.7610 C.3    83  PHE83       0.0574
     32  CG       -13.2700   32.9630   -0.1500 C.ar   83  PHE83      -0.0200
     33  CD1      -14.1830   32.8430    0.8870 C.ar   83  PHE83      -0.0042
     34  CD2      -12.9390   34.2320   -0.5960 C.ar   83  PHE83      -0.0042
     35  CE1      -14.7650   33.9750    1.4670 C.ar   83  PHE83      -0.0003
     36  CE2      -13.5150   35.3660   -0.0220 C.ar   83  PHE83      -0.0003
     37  CZ       -14.4300   35.2340    1.0110 C.ar   83  PHE83      -0.0000
     38  N        -12.8260   28.5980   -0.6500 N.am   84  PRO84      -0.2716
     39  CA       -12.5690   27.2530   -1.1730 C.3    84  PRO84       0.1536
     40  C        -12.0120   27.2890   -2.5850 C.2    84  PRO84       0.2599
     41  O        -12.3260   28.1760   -3.3820 O.2    84  PRO84      -0.2715
     42  CB       -13.9490   26.5880   -1.1410 C.3    84  PRO84       0.0310
     43  CG       -14.9140   27.7140   -1.1670 C.3    84  PRO84       0.0237
     44  CD       -14.2620   28.8630   -0.4620 C.3    84  PRO84       0.0939
     45  N        -11.1500   26.3130   -2.8770 N.am   85  SER85      -0.1950
     46  CA       -10.7460   25.9950   -4.2460 C.3    85  SER85       0.1924
     47  C        -11.7160   24.9320   -4.7450 C.2    85  SER85       0.2314
     48  O        -11.4720   23.7310   -4.6230 O.2    85  SER85      -0.2863
     49  CB        -9.3010   25.5200   -4.2990 C.3    85  SER85       0.2116
     50  OG        -8.8800   25.3540   -5.6390 O.3    85  SER85      -0.2180
     51  N        -10.7800   43.9220   -1.9120 N.3   187  HIS187     -0.1241
     52  CA        -9.6590   43.0270   -2.1420 C.3   187  HIS187      0.1621
     53  C         -8.5490   43.7430   -2.9050 C.2   187  HIS187      0.2264
     54  O         -8.7970   44.6240   -3.7340 O.2   187  HIS187     -0.2867
     55  CB       -10.1350   41.7910   -2.9030 C.3   187  HIS187      0.0745
     56  CG        -9.0770   40.7540   -3.1020 C.ar  187  HIS187      0.0817
     57  ND1       -8.4610   40.5450   -4.3190 N.ar  187  HIS187     -0.2268
     58  CD2       -8.5290   39.8610   -2.2440 C.ar  187  HIS187      0.1154
     59  CE1       -7.5770   39.5720   -4.1990 C.ar  187  HIS187      0.1986
     60  NE2       -7.5990   39.1390   -2.9500 N.ar  187  HIS187     -0.2212
     61  N        -13.3320   39.4820    1.4130 N.3   246  THR246     -0.1218
     62  CA       -12.4520   38.4010    1.8450 C.3   246  THR246      0.1862
     63  C        -12.4190   38.2830    3.3630 C.2   246  THR246      0.2287
     64  O        -12.4370   37.1710    3.9080 O.2   246  THR246     -0.2866
     65  CB       -11.0370   38.6170    1.3100 C.3   246  THR246      0.1770
     66  OG1      -11.0830   38.7990   -0.1050 O.3   246  THR246     -0.2211
     67  CG2      -10.1920   37.4090    1.5900 C.3   246  THR246      0.0375
     68  N        -15.8840   34.3180   -9.3750 N.3   300  ASN300     -0.1240
     69  CA       -14.8580   33.2890   -9.5650 C.3   300  ASN300      0.1653
     70  C        -15.5300   31.9310   -9.4450 C.2   300  ASN300      0.2266
     71  O        -15.8110   31.4580   -8.3410 O.2   300  ASN300     -0.2867
     72  CB       -13.7280   33.4300   -8.5540 C.3   300  ASN300      0.1155
     73  CG       -12.7690   34.5280   -8.9170 C.2   300  ASN300      0.2627
     74  OD1      -12.9440   35.2040   -9.9310 O.2   300  ASN300     -0.2716
     75  ND2      -11.7510   34.7290   -8.0880 N.am  300  ASN300     -0.0877
     76  N        -14.2150   29.2240   -9.7670 N.3   302  HIS302     -0.1241
     77  CA       -13.3220   28.2910   -9.0840 C.3   302  HIS302      0.1621
     78  C        -13.3070   28.4700   -7.5610 C.2   302  HIS302      0.2264
     79  O        -12.6500   27.7020   -6.8540 O.2   302  HIS302     -0.2867
     80  CB       -11.8940   28.4120   -9.6270 C.3   302  HIS302      0.0745
     81  CG       -11.3690   29.8170   -9.6770 C.ar  302  HIS302      0.0817
     82  ND1      -11.4870   30.6170  -10.7940 N.ar  302  HIS302     -0.2268
     83  CD2      -10.6980   30.5530   -8.7590 C.ar  302  HIS302      0.1154
     84  CE1      -10.9220   31.7870  -10.5580 C.ar  302  HIS302      0.1986
     85  NE2      -10.4340   31.7740   -9.3310 N.ar  302  HIS302     -0.2212
     86  N         -9.5720   25.3260  -10.9350 N.3   308  LEU308     -0.1245
     87  CA        -8.8170   26.5220  -11.2890 C.3   308  LEU308      0.1561
     88  C         -8.4270   26.4790  -12.7590 C.2   308  LEU308      0.2260
     89  O         -7.9420   25.4500  -13.2400 O.2   308  LEU308     -0.2867
     90  CB        -7.5650   26.6040  -10.4170 C.3   308  LEU308      0.0270
     91  CG        -7.1310   27.9240   -9.7870 C.3   308  LEU308      0.0019
     92  CD1       -8.2780   28.5490   -9.0150 C.3   308  LEU308      0.0001
     93  CD2       -5.9350   27.6810   -8.8750 C.3   308  LEU308      0.0001
@<TRIPOS>BOND
     1    89    88    2
     2    88    87    1
     3    87    86    1
     4    87    90    1
     5    82    84   ar
     6    82    81   ar
     7    84    85   ar
     8    90    91    1
     9    74    73    2
    10    91    92    1
    11    91    93    1
    12    76    77    1
    13    81    80    1
    14    81    83   ar
    15    80    77    1
    16    69    70    1
    17    69    68    1
    18    69    72    1
    19    70    71    2
    20    85    83   ar
    21    77    78    1
    22    73    72    1
    23    73    75   am
    24    78    79    2
    25    50    49    1
    26    47    48    2
    27    47    46    1
    28    57    59   ar
    29    57    56   ar
    30    49    46    1
    31    46    45    1
    32    59    60   ar
    33    54    53    2
    34    41    40    2
    35    56    55    1
    36    56    58   ar
    37    60    58   ar
    38    53    52    1
    39    55    52    1
    40    45    40   am
    41    40    39    1
    42    52    51    1
    43     5     6    1
    44     5     2    1
    45     6     7   ar
    46     6     8   ar
    47     7     9   ar
    48     8    11   ar
    49     8    10   ar
    50    11    13   ar
    51     9    10   ar
    52    10    12   ar
    53    13    14   ar
    54    12    14   ar
    55    39    42    1
    56    39    38    1
    57    43    42    1
    58    43    44    1
    59    31    32    1
    60    31    28    1
    61     3     2    1
    62     3     4    2
    63    38    44    1
    64    38    29   am
    65    30    29    2
    66    34    32   ar
    67    34    36   ar
    68     2     1    1
    69    29    28    1
    70    32    33   ar
    71    66    65    1
    72    36    37   ar
    73    28    27    1
    74    33    35   ar
    75    27    17   am
    76    37    35   ar
    77    65    67    1
    78    65    62    1
    79    61    62    1
    80    19    20    1
    81    19    16    1
    82    62    63    1
    83    20    21   ar
    84    20    22   ar
    85    17    16    1
    86    17    18    2
    87    21    23   ar
    88    22    24   ar
    89    23    25   ar
    90    24    25   ar
    91    16    15    1
    92    25    26    1
    93    63    64    2
