@<TRIPOS>MOLECULE
tmp/6eeoA00.pdb
 188 182 0 0 0
SMALL
GASTEIGER

@<TRIPOS>ATOM
      1  N          4.9920   -6.5380   10.8840 N.3     4  TYR4       -0.1241
      2  CA         4.6290   -7.6660   11.7340 C.3     4  TYR4        0.1605
      3  C          5.5110   -8.8580   11.4500 C.2     4  TYR4        0.2264
      4  O          5.1460  -10.0000   11.7600 O.2     4  TYR4       -0.2867
      5  CB         3.1600   -8.0360   11.5500 C.3     4  TYR4        0.0534
      6  CG         2.2550   -6.9460   12.0340 C.ar    4  TYR4       -0.0201
      7  CD1        1.8530   -6.9050   13.3650 C.ar    4  TYR4       -0.0009
      8  CD2        1.8200   -5.9470   11.1790 C.ar    4  TYR4       -0.0009
      9  CE1        1.0370   -5.8980   13.8270 C.ar    4  TYR4        0.0417
     10  CE2        0.9980   -4.9310   11.6240 C.ar    4  TYR4        0.0417
     11  CZ         0.6090   -4.9140   12.9460 C.ar    4  TYR4        0.1957
     12  OH        -0.2180   -3.9170   13.3780 O.3     4  TYR4       -0.2866
     13  N         -3.1900    0.3970    3.6300 N.3    59  ASN59      -0.1240
     14  CA        -2.0900    1.2240    4.1110 C.3    59  ASN59       0.1653
     15  C         -0.8190    0.4310    4.3930 C.2    59  ASN59       0.2266
     16  O          0.1010    0.9640    5.0140 O.2    59  ASN59      -0.2867
     17  CB        -2.5040    1.9960    5.3690 C.3    59  ASN59       0.1155
     18  CG        -2.9360    1.0810    6.4970 C.2    59  ASN59       0.2627
     19  OD1       -2.4560   -0.0330    6.6080 O.2    59  ASN59      -0.2716
     20  ND2       -3.8030    1.5760    7.3760 N.am   59  ASN59      -0.0877
     21  N         -0.2240   -2.0800    6.4920 N.3    61  HIS61      -0.1230
     22  CA        -0.4610   -2.9490    7.6450 C.3    61  HIS61       0.1707
     23  C         -1.8690   -3.4820    7.7990 C.2    61  HIS61       0.2593
     24  O         -2.0320   -4.4970    8.4880 O.2    61  HIS61      -0.2718
     25  CB        -0.1520   -2.3030    9.0050 C.3    61  HIS61       0.0473
     26  CG        -0.2430   -0.8140    9.0720 C.3    61  HIS61       0.0937
     27  ND1       -0.6920   -0.0430    8.0220 N.3    61  HIS61      -0.1997
     28  CD2       -0.3980   -0.0380   10.1780 C.3    61  HIS61       0.1077
     29  CE1       -0.7390    1.2140    8.4270 C.3    61  HIS61       0.1782
     30  NE2       -0.6460    1.2350    9.7420 N.3    61  HIS61      -0.1983
     31  N         -2.8860   -2.7820    7.3240 N.am   62  SER62      -0.1952
     32  CA        -4.2570   -3.2350    7.4300 C.3    62  SER62       0.1924
     33  C         -5.0120   -2.5860    6.2730 C.2    62  SER62       0.2314
     34  O         -4.3950   -1.9840    5.3910 O.2    62  SER62      -0.2863
     35  CB        -4.8290   -2.8690    8.7980 C.3    62  SER62       0.2116
     36  OG        -6.1800   -3.3090    8.8690 O.3    62  SER62      -0.2180
     37  N         -8.3880    0.1910    5.8030 N.3    64  GLN64      -0.1245
     38  CA        -9.2380    1.0730    6.5870 C.3    64  GLN64       0.1566
     39  C        -10.3100    1.6790    5.6970 C.2    64  GLN64       0.2260
     40  O        -10.0920    1.9310    4.5080 O.2    64  GLN64      -0.2867
     41  CB        -8.4480    2.2020    7.2880 C.3    64  GLN64       0.0367
     42  CG        -7.6810    3.1280    6.3750 C.3    64  GLN64       0.0905
     43  CD        -6.9950    4.2580    7.1280 C.2    64  GLN64       0.2608
     44  OE1       -6.2250    4.0230    8.0550 O.2    64  GLN64      -0.2717
     45  NE2       -7.2310    5.4920    6.6900 N.am   64  GLN64      -0.0878
     46  N        -13.7240    8.3770   12.8340 N.3    88  LEU88      -0.1231
     47  CA       -12.7070    8.7180   11.8410 C.3    88  LEU88       0.1693
     48  C        -12.5160    7.6080   10.8200 C.2    88  LEU88       0.2591
     49  O        -12.4870    7.8420    9.6200 O.2    88  LEU88      -0.2718
     50  CB       -11.3660    8.9590   12.5480 C.3    88  LEU88       0.0284
     51  CG       -10.1410    9.1900   11.6520 C.3    88  LEU88       0.0019
     52  CD1      -10.2840   10.4890   10.9030 C.3    88  LEU88       0.0001
     53  CD2       -8.8570    9.1550   12.4680 C.3    88  LEU88       0.0001
     54  N        -12.3620    6.3820   11.2890 N.am   89  GLN89      -0.1979
     55  CA       -12.0750    5.2670   10.4060 C.3    89  GLN89       0.1601
     56  C        -12.4030    3.9700   11.1390 C.2    89  GLN89       0.2287
     57  O        -12.4970    3.9380   12.3650 O.2    89  GLN89      -0.2864
     58  CB       -10.6030    5.2000   10.0010 C.3    89  GLN89       0.0394
     59  CG        -9.7410    5.2530   11.2530 C.3    89  GLN89       0.0908
     60  CD        -8.7590    4.1390   11.2430 C.2    89  GLN89       0.2608
     61  OE1       -9.2000    2.9950   11.2220 O.2    89  GLN89      -0.2717
     62  NE2       -7.4670    4.4190   11.3090 N.am   89  GLN89      -0.0878
     63  N        -10.9100   -0.3120   10.8910 N.3    91  HIS91      -0.1241
     64  CA        -9.9660   -1.2380   10.2670 C.3    91  HIS91       0.1621
     65  C        -10.0330   -2.5470   11.0300 C.2    91  HIS91       0.2264
     66  O        -10.7180   -2.6490   12.0540 O.2    91  HIS91      -0.2867
     67  CB        -8.5320   -0.7040   10.3010 C.3    91  HIS91       0.0745
     68  CG        -8.0550   -0.4550   11.6920 C.ar   91  HIS91       0.0817
     69  ND1       -8.3000    0.7210   12.3700 N.ar   91  HIS91      -0.2268
     70  CD2       -7.4700   -1.2880   12.5830 C.ar   91  HIS91       0.1154
     71  CE1       -7.8320    0.6170   13.6040 C.ar   91  HIS91       0.1986
     72  NE2       -7.3170   -0.5900   13.7560 N.ar   91  HIS91      -0.2212
     73  N         -7.8220   -6.3220   12.3440 N.3    93  HIS93      -0.1241
     74  CA        -6.6500   -7.1490   12.6050 C.3    93  HIS93       0.1621
     75  C         -7.0910   -8.5980   12.4580 C.2    93  HIS93       0.2264
     76  O         -8.1640   -8.9600   12.9360 O.2    93  HIS93      -0.2867
     77  CB        -6.1590   -6.9020   14.0320 C.3    93  HIS93       0.0745
     78  CG        -5.7940   -5.4720   14.2970 C.ar   93  HIS93       0.0817
     79  ND1       -4.5540   -4.9490   13.9950 N.ar   93  HIS93      -0.2268
     80  CD2       -6.5490   -4.4270   14.7150 C.ar   93  HIS93       0.1154
     81  CE1       -4.5340   -3.6630   14.2970 C.ar   93  HIS93       0.1986
     82  NE2       -5.7390   -3.3170   14.7190 N.ar   93  HIS93      -0.2212
     83  N        -11.7900   -2.5060   14.8390 N.3   116  HIS116     -0.1241
     84  CA       -11.5440   -1.2940   15.6230 C.3   116  HIS116      0.1621
     85  C        -12.2040   -0.1180   14.9250 C.2   116  HIS116      0.2264
     86  O        -11.8530    0.1980   13.7830 O.2   116  HIS116     -0.2867
     87  CB       -10.0470   -1.0290   15.7580 C.3   116  HIS116      0.0745
     88  CG        -9.3430   -2.0250   16.6210 C.ar  116  HIS116      0.0817
     89  ND1       -7.9700   -2.1950   16.6140 N.ar  116  HIS116     -0.2268
     90  CD2       -9.8230   -2.8650   17.5610 C.ar  116  HIS116      0.1154
     91  CE1       -7.6420   -3.1140   17.5060 C.ar  116  HIS116      0.1986
     92  NE2       -8.7470   -3.5330   18.0980 N.ar  116  HIS116     -0.2212
     93  N        -12.3750    3.7730   15.2500 N.3   118  VAL118     -0.1245
     94  CA       -11.5210    4.7790   15.8860 C.3   118  VAL118      0.1561
     95  C        -12.2640    6.1080   15.9160 C.2   118  VAL118      0.2260
     96  O        -12.7260    6.5890   14.8700 O.2   118  VAL118     -0.2867
     97  CB       -10.1920    4.9270   15.1310 C.3   118  VAL118      0.0252
     98  CG1       -9.3260    6.0080   15.7880 C.3   118  VAL118      0.0019
     99  CG2       -9.4710    3.5770   15.0420 C.3   118  VAL118      0.0019
    100  N         -7.7420   15.5360   14.9200 N.3   127  VAL127     -0.1231
    101  CA        -7.3070   14.2570   15.4790 C.3   127  VAL127      0.1692
    102  C         -5.8340   14.3040   15.8640 C.2   127  VAL127      0.2592
    103  O         -5.4020   13.5850   16.7770 O.2   127  VAL127     -0.2718
    104  CB        -7.6010   13.1070   14.5010 C.3   127  VAL127      0.0266
    105  CG1       -6.7940   13.2710   13.2420 C.3   127  VAL127      0.0020
    106  CG2       -7.3160   11.7620   15.1710 C.3   127  VAL127      0.0020
    107  N         -5.0390   15.1400   15.1850 N.am  128  GLY128     -0.1957
    108  CA        -3.6330   15.2640   15.5340 C.3   128  GLY128      0.1869
    109  C         -3.4260   15.8300   16.9240 C.2   128  GLY128      0.2309
    110  O         -2.4830   15.4540   17.6240 O.2   128  GLY128     -0.2863
    111  N         -4.4150   12.9560   19.6700 N.3   131  VAL131     -0.1245
    112  CA        -3.5060   11.8500   19.9790 C.3   131  VAL131      0.1561
    113  C         -2.4560   12.2510   21.0020 C.2   131  VAL131      0.2260
    114  O         -1.7550   11.3830   21.5510 O.2   131  VAL131     -0.2867
    115  CB        -2.8150   11.2960   18.7120 C.3   131  VAL131      0.0252
    116  CG1       -3.8460   10.7610   17.7390 C.3   131  VAL131      0.0019
    117  CG2       -1.9390   12.3390   18.0670 C.3   131  VAL131      0.0019
    118  N         -8.6650    9.7470   22.2290 N.3   137  LEU137     -0.1245
    119  CA        -9.2880    8.7840   21.3380 C.3   137  LEU137      0.1561
    120  C        -10.1250    7.7900   22.1330 C.2   137  LEU137      0.2260
    121  O         -9.8620    7.5270   23.3060 O.2   137  LEU137     -0.2867
    122  CB        -8.2430    8.0040   20.5030 C.3   137  LEU137      0.0270
    123  CG        -7.3220    8.7660   19.5470 C.3   137  LEU137      0.0019
    124  CD1       -6.4400    7.7900   18.7340 C.3   137  LEU137      0.0001
    125  CD2       -8.0450    9.7190   18.6690 C.3   137  LEU137      0.0001
    126  N        -11.6270    3.9020   21.1250 N.3   139  VAL139     -0.1245
    127  CA       -11.6470    2.8880   20.0880 C.3   139  VAL139      0.1561
    128  C        -12.6150    1.8230   20.5480 C.2   139  VAL139      0.2260
    129  O        -12.5110    1.3300   21.6790 O.2   139  VAL139     -0.2867
    130  CB       -10.2590    2.2970   19.8140 C.3   139  VAL139      0.0252
    131  CG1      -10.3790    1.2310   18.7050 C.3   139  VAL139      0.0019
    132  CG2       -9.3200    3.3840   19.3410 C.3   139  VAL139      0.0019
    133  N         -3.6110    2.3490   24.7450 N.3   193  SER193     -0.1202
    134  CA        -2.8100    3.0140   23.7210 C.3   193  SER193      0.2020
    135  C         -3.2660    2.5900   22.3250 C.2   193  SER193      0.2619
    136  O         -4.0800    1.6740   22.1590 O.2   193  SER193     -0.2717
    137  CB        -1.3290    2.6440   23.8690 C.3   193  SER193      0.2103
    138  OG        -1.1550    1.2720   23.5300 O.3   193  SER193     -0.2182
    139  N         -2.7240    3.2640   21.3070 N.am  194  LEU194     -0.1965
    140  CA        -2.7730    2.6940   19.9650 C.3   194  LEU194      0.1728
    141  C         -2.0020    1.3790   19.9640 C.2   194  LEU194      0.2617
    142  O         -1.0130    1.2240   20.6800 O.2   194  LEU194     -0.2715
    143  CB        -2.1390    3.6580   18.9540 C.3   194  LEU194      0.0311
    144  CG        -2.8090    5.0290   18.8410 C.3   194  LEU194      0.0022
    145  CD1       -1.9900    5.9150   17.9000 C.3   194  LEU194      0.0001
    146  CD2       -4.2600    4.8940   18.4030 C.3   194  LEU194      0.0001
    147  N         -2.4290    0.4240   19.1280 N.am  195  THR195     -0.1937
    148  CA        -1.6900   -0.8340   19.0660 C.3   195  THR195      0.2028
    149  C         -0.7320   -0.8960   17.8830 C.2   195  THR195      0.2643
    150  O         -0.1090   -1.9410   17.6580 O.2   195  THR195     -0.2714
    151  CB        -2.6270   -2.0400   19.0010 C.3   195  THR195      0.1808
    152  OG1       -3.3460   -2.0310   17.7640 O.3   195  THR195     -0.2208
    153  CG2       -3.6060   -2.0450   20.1950 C.3   195  THR195      0.0379
    154  N         -0.6270    0.1720   17.1070 N.am  196  THR196     -0.1937
    155  CA         0.3890    0.3120   16.0750 C.3   196  THR196      0.2013
    156  C          1.2100    1.5500   16.3950 C.2   196  THR196      0.2484
    157  O          0.7260    2.4560   17.0750 O.2   196  THR196     -0.2729
    158  CB        -0.2470    0.4830   14.6910 C.3   196  THR196      0.1807
    159  OG1       -1.1050    1.6300   14.7290 O.3   196  THR196     -0.2208
    160  CG2       -1.0660   -0.7490   14.3070 C.3   196  THR196      0.0379
    161  N          2.4560    1.6300   15.9170 N.am  197  PRO197     -0.2715
    162  CA         3.1750    2.8990   16.0390 C.3   197  PRO197      0.1521
    163  C          2.3050    4.0770   15.5810 C.2   197  PRO197      0.2440
    164  O          1.5700    3.9500   14.5800 O.2   197  PRO197     -0.2731
    165  CB         4.3890    2.6860   15.1340 C.3   197  PRO197      0.0310
    166  CG         4.6500    1.2260   15.2470 C.3   197  PRO197      0.0237
    167  CD         3.2760    0.5700   15.3120 C.3   197  PRO197      0.0939
    168  N          2.3700    5.2090   16.2980 N.am  198  PRO198     -0.2727
    169  CA         3.3480    5.5310   17.3500 C.3   198  PRO198      0.1402
    170  C          3.0240    5.0530   18.7710 C.2   198  PRO198      0.2269
    171  O          3.7190    5.4850   19.6990 O.2   198  PRO198     -0.2865
    172  CB         3.3670    7.0690   17.3300 C.3   198  PRO198      0.0296
    173  CG         1.9860    7.4540   16.9150 C.3   198  PRO198      0.0237
    174  CD         1.5100    6.3610   15.9670 C.3   198  PRO198      0.0939
    175  N        -10.2020    2.4670   25.6960 N.3   205  TRP205     -0.1241
    176  CA       -10.6820    1.2880   24.9980 C.3   205  TRP205      0.1605
    177  C        -12.0570    0.8910   25.4940 C.2   205  TRP205      0.2264
    178  O        -12.3320    0.8950   26.6980 O.2   205  TRP205     -0.2867
    179  CB        -9.7170    0.1100   25.1540 C.3   205  TRP205      0.0550
    180  CG        -8.5820    0.2190   24.2190 C.ar  205  TRP205      0.0003
    181  CD1       -7.3540    0.7700   24.4490 C.ar  205  TRP205      0.0946
    182  CD2       -8.5840   -0.2200   22.8590 C.ar  205  TRP205      0.0152
    183  NE1       -6.5990    0.7190   23.2950 N.ar  205  TRP205     -0.2442
    184  CE2       -7.3320    0.1070   22.3120 C.ar  205  TRP205      0.0810
    185  CE3       -9.5450   -0.8440   22.0480 C.ar  205  TRP205      0.0012
    186  CZ2       -6.9910   -0.2000   20.9930 C.ar  205  TRP205      0.0191
    187  CZ3       -9.2090   -1.1540   20.7400 C.ar  205  TRP205      0.0001
    188  CH2       -7.9410   -0.8250   20.2260 C.ar  205  TRP205      0.0015
@<TRIPOS>BOND
     1    13    14    1
     2    14    15    1
     3    14    17    1
     4    15    16    2
     5    40    39    2
     6    17    18    1
     7    34    33    2
     8    39    38    1
     9    37    38    1
    10    33    32    1
    11    42    43    1
    12    42    41    1
    13    21    22    1
    14    18    19    2
    15    18    20   am
    16    38    41    1
    17    45    43   am
    18    43    44    2
    19    31    32    1
    20    31    23   am
    21    32    35    1
    22    22    23    1
    23    22    25    1
    24    23    24    2
    25    27    29    1
    26    27    26    1
    27    29    30    1
    28    35    36    1
    29    25    26    1
    30    26    28    1
    31    49    48    2
    32    30    28    1
    33    58    55    1
    34    58    59    1
    35    64    67    1
    36    64    63    1
    37    64    65    1
    38    67    68    1
    39    55    56    1
    40    55    54    1
    41    48    54   am
    42    48    47    1
    43     1     2    1
    44    52    51    1
    45    65    66    2
    46    56    57    2
    47     8    10   ar
    48     8     6   ar
    49    61    60    2
    50    60    59    1
    51    60    62   am
    52     3     2    1
    53     3     4    2
    54     5     2    1
    55     5     6    1
    56    10    11   ar
    57    51    53    1
    58    51    50    1
    59    68    69   ar
    60    68    70   ar
    61    47    50    1
    62    47    46    1
    63     6     7   ar
    64    73    74    1
    65    69    71   ar
    66    75    74    1
    67    75    76    2
    68    70    72   ar
    69    74    77    1
    70    11    12    1
    71    11     9   ar
    72   105   104    1
    73     7     9   ar
    74    71    72   ar
    75    86    85    2
    76    79    78   ar
    77    79    81   ar
    78    77    78    1
    79    78    80   ar
    80    81    82   ar
    81   160   158    1
    82   104   106    1
    83   104   101    1
    84   164   163    2
    85   158   159    1
    86   158   155    1
    87    80    82   ar
    88    83    84    1
    89    96    95    2
    90   100   101    1
    91    85    84    1
    92    99    97    1
    93    97    98    1
    94    97    94    1
    95   165   166    1
    96   165   162    1
    97   107   108    1
    98   107   102   am
    99   166   167    1
   100    93    94    1
   101   167   161    1
   102   101   102    1
   103   108   109    1
   104   163   162    1
   105   163   168   am
   106    84    87    1
   107    87    88    1
   108   102   103    2
   109    94    95    1
   110   161   162    1
   111   161   156   am
   112   174   168    1
   113   174   173    1
   114   155   156    1
   115   155   154    1
   116   168   169    1
   117   156   157    2
   118    89    88   ar
   119    89    91   ar
   120    88    90   ar
   121   173   172    1
   122   109   110    2
   123   154   149   am
   124   172   169    1
   125   169   170    1
   126    91    92   ar
   127    90    92   ar
   128   150   149    2
   129   116   115    1
   130   152   151    1
   131   149   148    1
   132   145   144    1
   133   117   115    1
   134   146   144    1
   135   125   123    1
   136   131   130    1
   137   115   112    1
   138   124   123    1
   139   170   171    2
   140   144   143    1
   141   143   140    1
   142   151   148    1
   143   151   153    1
   144   148   147    1
   145   147   141   am
   146   132   130    1
   147   123   122    1
   148   111   112    1
   149   130   127    1
   150   141   140    1
   151   141   142    2
   152   140   139    1
   153   112   113    1
   154   127   128    1
   155   127   126    1
   156   188   187   ar
   157   188   186   ar
   158   122   119    1
   159   128   129    2
   160   187   185   ar
   161   186   184   ar
   162   113   114    2
   163   139   135   am
   164   119   120    1
   165   119   118    1
   166   185   182   ar
   167   120   121    2
   168   136   135    2
   169   184   182   ar
   170   184   183   ar
   171   135   134    1
   172   182   180   ar
   173   183   181   ar
   174   138   137    1
   175   134   137    1
   176   134   133    1
   177   180   181   ar
   178   180   179    1
   179   176   179    1
   180   176   177    1
   181   176   175    1
   182   177   178    2
