@<TRIPOS>MOLECULE
tmp/6eevA00.pdb
 100 92 0 0 0
SMALL
GASTEIGER

@<TRIPOS>ATOM
      1  N         24.0720   31.0750   29.1850 N.3    81  GLU81      -0.1245
      2  CA        24.4210   29.9830   28.2810 C.3    81  GLU81       0.1567
      3  C         24.3870   30.4290   26.8260 C.2    81  GLU81       0.2260
      4  O         23.3750   30.9850   26.3720 O.2    81  GLU81      -0.2867
      5  CB        23.4360   28.8310   28.4720 C.3    81  GLU81       0.0388
      6  CG        23.7310   27.6320   27.5640 C.3    81  GLU81       0.1160
      7  CD        22.7610   26.4710   27.7320 C.2    81  GLU81       0.3649
      8  OE1       21.8500   26.5340   28.5880 O.co2  81  GLU81      -0.2457
      9  OE2       22.9280   25.4770   26.9980 O.co2  81  GLU81      -0.2457
     10  N         23.9880   30.2040   22.7040 N.3    83  SER83      -0.1202
     11  CA        23.0750   29.6070   21.7270 C.3    83  SER83       0.2020
     12  C         21.5960   29.7890   22.0660 C.2    83  SER83       0.2618
     13  O         20.7550   29.7410   21.1620 O.2    83  SER83      -0.2717
     14  CB        23.4160   28.1430   21.4130 C.3    83  SER83       0.2103
     15  OG        22.8720   27.2590   22.3840 O.3    83  SER83      -0.2182
     16  N         21.2750   30.0350   23.3430 N.am   84  VAL84      -0.1979
     17  CA        19.8800   30.0670   23.7890 C.3    84  VAL84       0.1595
     18  C         19.1220   31.2300   23.1470 C.2    84  VAL84       0.2287
     19  O         18.0530   31.0450   22.5450 O.2    84  VAL84      -0.2864
     20  CB        19.8120   30.1230   25.3280 C.3    84  VAL84       0.0276
     21  CG1       18.3880   30.4460   25.7950 C.3    84  VAL84       0.0022
     22  CG2       20.3210   28.8140   25.9520 C.3    84  VAL84       0.0022
     23  N         15.5110   11.1400   28.1330 N.3   259  ARG259     -0.1245
     24  CA        15.4640   12.1750   27.1060 C.3   259  ARG259      0.1563
     25  C         14.5260   13.3050   27.5050 C.2   259  ARG259      0.2260
     26  O         14.8360   14.4810   27.2700 O.2   259  ARG259     -0.2867
     27  CB        15.0460   11.5660   25.7630 C.3   259  ARG259      0.0307
     28  CG        14.8310   12.5800   24.6540 C.3   259  ARG259      0.0489
     29  CD        16.0900   13.3910   24.3640 C.3   259  ARG259      0.2205
     30  NE        15.7570   14.5640   23.5620 N.pl3 259  ARG259     -0.0865
     31  CZ        16.4600   15.6930   23.5360 C.cat 259  ARG259      0.5346
     32  NH1       17.5770   15.8100   24.2500 N.pl3 259  ARG259      0.1354
     33  NH2       16.0440   16.7110   22.7850 N.pl3 259  ARG259      0.1354
     34  N         16.0980   16.2210   29.4100 N.3   262  THR262     -0.1203
     35  CA        16.9030   17.1320   28.6010 C.3   262  THR262      0.1994
     36  C         16.0160   17.9820   27.7090 C.2   262  THR262      0.2617
     37  O         16.2370   19.1920   27.5520 O.2   262  THR262     -0.2717
     38  CB        17.8270   16.2810   27.7350 C.3   262  THR262      0.1784
     39  OG1       18.3790   15.2280   28.5360 O.3   262  THR262     -0.2211
     40  CG2       18.9540   17.1200   27.1280 C.3   262  THR262      0.0376
     41  N         15.0080   17.3460   27.1210 N.am  263  HIS263     -0.1975
     42  CA        14.0070   18.0230   26.3110 C.3   263  HIS263      0.1656
     43  C         13.3260   19.1380   27.1060 C.2   263  HIS263      0.2291
     44  O         13.2500   20.2870   26.6500 O.2   263  HIS263     -0.2864
     45  CB        13.0310   16.9210   25.8770 C.3   263  HIS263      0.0771
     46  CG        11.8290   17.3750   25.1160 C.ar  263  HIS263      0.0820
     47  ND1       11.7100   17.2030   23.7510 N.ar  263  HIS263     -0.2267
     48  CD2       10.6460   17.8820   25.5370 C.ar  263  HIS263      0.1154
     49  CE1       10.5170   17.6190   23.3620 C.ar  263  HIS263      0.1986
     50  NE2        9.8520   18.0340   24.4260 N.ar  263  HIS263     -0.2212
     51  N         14.4380   20.4890   29.9650 N.3   265  LYS265     -0.1231
     52  CA        15.4800   21.4610   30.2950 C.3   265  LYS265      0.1693
     53  C         15.5920   22.5220   29.2060 C.2   265  LYS265      0.2592
     54  O         15.7170   23.7210   29.5010 O.2   265  LYS265     -0.2718
     55  CB        16.8160   20.7260   30.4840 C.3   265  LYS265      0.0285
     56  CG        17.9360   21.5510   31.1340 C.3   265  LYS265      0.0035
     57  CD        18.6430   22.4890   30.1620 C.3   265  LYS265      0.0206
     58  CE        19.9850   22.9490   30.7230 C.3   265  LYS265      0.1093
     59  NZ        20.6220   23.9940   29.8630 N.3   265  LYS265     -0.1314
     60  N         15.5480   22.0990   27.9400 N.am  266  GLY266     -0.1957
     61  CA        15.6040   23.0510   26.8430 C.3   266  GLY266      0.1869
     62  C         14.4450   24.0320   26.8530 C.2   266  GLY266      0.2309
     63  O         14.6150   25.2090   26.5320 O.2   266  GLY266     -0.2863
     64  N         15.3180   26.6110   29.3980 N.3   269  ASN269     -0.1240
     65  CA        16.2880   27.5740   28.8740 C.3   269  ASN269      0.1653
     66  C         15.5940   28.7890   28.2700 C.2   269  ASN269      0.2266
     67  O         16.1680   29.8790   28.2590 O.2   269  ASN269     -0.2867
     68  CB        17.1420   26.9510   27.7610 C.3   269  ASN269      0.1155
     69  CG        18.3010   26.1080   28.2790 C.2   269  ASN269      0.2627
     70  OD1       18.6420   26.1160   29.4670 O.2   269  ASN269     -0.2716
     71  ND2       18.9140   25.3660   27.3670 N.am  269  ASN269     -0.0877
     72  N         12.3250   24.9120   22.6330 N.3   363  ASN363     -0.1240
     73  CA        12.2680   23.4710   22.4170 C.3   363  ASN363      0.1653
     74  C         12.3970   23.1460   20.9340 C.2   363  ASN363      0.2266
     75  O         13.1810   22.2770   20.5510 O.2   363  ASN363     -0.2867
     76  CB        10.9550   22.9470   23.0100 C.3   363  ASN363      0.1155
     77  CG        10.7790   21.4420   22.8900 C.2   363  ASN363      0.2627
     78  OD1        9.6740   20.9770   22.6050 O.2   363  ASN363     -0.2716
     79  ND2       11.8350   20.6750   23.1610 N.am  363  ASN363     -0.0877
     80  N         15.9850   23.4120   19.7170 N.3   366  ALA366     -0.1231
     81  CA        16.8250   22.2880   20.1180 C.3   366  ALA366      0.1694
     82  C         16.5250   21.0460   19.2880 C.2   366  ALA366      0.2591
     83  O         17.4480   20.3690   18.8240 O.2   366  ALA366     -0.2718
     84  CB        16.6340   21.9930   21.6050 C.3   366  ALA366      0.0304
     85  N         15.2420   20.7350   19.0800 N.am  367  LEU367     -0.1980
     86  CA        14.8830   19.5360   18.3290 C.3   367  LEU367      0.1596
     87  C         15.2890   19.6600   16.8690 C.2   367  LEU367      0.2287
     88  O         15.8180   18.7090   16.2800 O.2   367  LEU367     -0.2864
     89  CB        13.3820   19.2850   18.4360 C.3   367  LEU367      0.0297
     90  CG        12.9150   18.3950   19.5920 C.3   367  LEU367      0.0022
     91  CD1       13.6270   18.6740   20.9100 C.3   367  LEU367      0.0001
     92  CD2       11.4070   18.5280   19.7270 C.3   367  LEU367      0.0001
     93  N         19.1860   19.3460   16.7460 N.3   370  LEU370     -0.1245
     94  CA        19.6730   18.0000   17.0370 C.3   370  LEU370      0.1561
     95  C         19.3180   17.0230   15.9290 C.2   370  LEU370      0.2260
     96  O         20.0840   16.0910   15.6590 O.2   370  LEU370     -0.2867
     97  CB        19.0760   17.5020   18.3570 C.3   370  LEU370      0.0270
     98  CG        19.5970   18.1120   19.6610 C.3   370  LEU370      0.0019
     99  CD1       18.7030   17.7120   20.8380 C.3   370  LEU370      0.0001
    100  CD2       21.0510   17.6990   19.9110 C.3   370  LEU370      0.0001
@<TRIPOS>BOND
     1    96    95    2
     2    95    94    1
     3    88    87    2
     4    93    94    1
     5    87    86    1
     6    94    97    1
     7    86    89    1
     8    86    85    1
     9    97    98    1
    10    89    90    1
    11    83    82    2
    12    85    82   am
    13    82    81    1
    14    90    92    1
    15    90    91    1
    16    98   100    1
    17    98    99    1
    18    80    81    1
    19    81    84    1
    20    75    74    2
    21    74    73    1
    22    13    12    2
    23    14    11    1
    24    14    15    1
    25    11    12    1
    26    11    10    1
    27    12    16   am
    28    73    72    1
    29    73    76    1
    30    19    18    2
    31    78    77    2
    32    33    31    1
    33    77    76    1
    34    77    79   am
    35    18    17    1
    36    16    17    1
    37    49    47   ar
    38    49    50   ar
    39    31    30    2
    40    31    32    1
    41    30    29    1
    42    47    46   ar
    43    17    20    1
    44    29    28    1
    45    50    48   ar
    46    28    27    1
    47    46    48   ar
    48    46    45    1
    49    20    21    1
    50    20    22    1
    51    27    24    1
    52    45    42    1
    53    42    43    1
    54    42    41    1
    55     4     3    2
    56    63    62    2
    57    44    43    2
    58     3     2    1
    59    61    62    1
    60    61    60    1
    61     9     7   ar
    62    24    25    1
    63    24    23    1
    64    41    36   am
    65    40    38    1
    66    26    25    2
    67    71    69   am
    68    37    36    2
    69     6     7    1
    70     6     5    1
    71    36    35    1
    72     7     8   ar
    73    38    39    1
    74    38    35    1
    75    68    69    1
    76    68    65    1
    77    60    53   am
    78    67    66    2
    79    66    65    1
    80    69    70    2
    81     2     5    1
    82     2     1    1
    83    35    34    1
    84    65    64    1
    85    53    54    2
    86    53    52    1
    87    59    58    1
    88    51    52    1
    89    57    58    1
    90    57    56    1
    91    52    55    1
    92    55    56    1
