@<TRIPOS>MOLECULE
tmp/6eevA02.pdb
 79 72 0 0 0
SMALL
GASTEIGER

@<TRIPOS>ATOM
      1  N         -0.3720   36.0900   19.7080 N.3    69  ASN69      -0.1240
      2  CA        -1.7510   36.5190   19.4810 C.3    69  ASN69       0.1653
      3  C         -1.8190   37.8000   18.6550 C.2    69  ASN69       0.2266
      4  O         -2.5830   38.7230   18.9550 O.2    69  ASN69      -0.2867
      5  CB        -2.5250   36.6380   20.7930 C.3    69  ASN69       0.1155
      6  CG        -2.7600   35.3000   21.4310 C.2    69  ASN69       0.2627
      7  OD1       -2.4650   34.2740   20.8310 O.2    69  ASN69      -0.2716
      8  ND2       -3.2900   35.2950   22.6490 N.am   69  ASN69      -0.0877
      9  N         -1.7960   31.7600   21.8300 N.3   103  THR103     -0.1203
     10  CA        -1.7050   31.4430   23.2470 C.3   103  THR103      0.1994
     11  C         -3.0450   31.6610   23.9360 C.2   103  THR103      0.2619
     12  O         -3.9090   32.4080   23.4630 O.2   103  THR103     -0.2717
     13  CB        -0.6230   32.2790   23.9650 C.3   103  THR103      0.1784
     14  OG1       -0.9530   33.6700   23.8850 O.3   103  THR103     -0.2211
     15  CG2        0.7450   32.0570   23.3420 C.3   103  THR103      0.0376
     16  N         -3.1900   31.0080   25.0820 N.am  104  SER104     -0.1937
     17  CA        -4.3240   31.2200   25.9630 C.3   104  SER104      0.2055
     18  C         -3.8930   30.8720   27.3800 C.2   104  SER104      0.2643
     19  O         -2.8200   30.3060   27.6090 O.2   104  SER104     -0.2714
     20  CB        -5.5360   30.3790   25.5410 C.3   104  SER104      0.2130
     21  OG        -5.3080   29.0040   25.7920 O.3   104  SER104     -0.2179
     22  N         -4.7490   31.2040   28.3370 N.am  105  SER105     -0.1949
     23  CA        -4.4800   30.8430   29.7140 C.3   105  SER105      0.1924
     24  C         -5.7900   30.6570   30.4590 C.2   105  SER105      0.2314
     25  O         -6.8470   31.1400   30.0440 O.2   105  SER105     -0.2863
     26  CB        -3.5590   31.8520   30.4210 C.3   105  SER105      0.2116
     27  OG        -4.0230   33.1710   30.2770 O.3   105  SER105     -0.2180
     28  N         -7.8030   31.2610   34.2240 N.3   107  LEU107     -0.1245
     29  CA        -7.7810   32.3200   35.2090 C.3   107  LEU107      0.1561
     30  C         -6.5480   32.1400   36.0930 C.2   107  LEU107      0.2260
     31  O         -5.9850   31.0420   36.1720 O.2   107  LEU107     -0.2867
     32  CB        -9.0560   32.2740   36.0490 C.3   107  LEU107      0.0270
     33  CG       -10.3130   32.7760   35.3340 C.3   107  LEU107      0.0019
     34  CD1      -11.5340   32.4850   36.1830 C.3   107  LEU107      0.0001
     35  CD2      -10.2100   34.2650   35.0470 C.3   107  LEU107      0.0001
     36  N         -5.0970   37.6230   40.4360 N.3   180  ARG180     -0.1245
     37  CA        -4.9950   38.7460   39.4990 C.3   180  ARG180      0.1563
     38  C         -3.5760   38.8200   38.9460 C.2   180  ARG180      0.2260
     39  O         -3.1110   37.8380   38.3410 O.2   180  ARG180     -0.2867
     40  CB        -5.5440   40.0260   40.1450 C.3   180  ARG180      0.0307
     41  CG        -7.0560   40.0210   40.3840 C.3   180  ARG180      0.0489
     42  CD        -7.8210   40.1340   39.0740 C.3   180  ARG180      0.2205
     43  NE        -8.2020   38.8310   38.5310 N.pl3 180  ARG180     -0.0865
     44  CZ        -8.5360   38.6200   37.2610 C.cat 180  ARG180      0.5346
     45  NH1       -8.8720   37.4000   36.8540 N.pl3 180  ARG180      0.1354
     46  NH2       -8.5290   39.6300   36.3950 N.pl3 180  ARG180      0.1354
     47  N         -0.9480   42.1080   31.6960 N.3   347  SER347     -0.1217
     48  CA        -1.4180   41.2530   32.7730 C.3   347  SER347      0.1889
     49  C         -0.3530   40.2050   33.0460 C.2   347  SER347      0.2288
     50  O          0.5200   39.9490   32.2120 O.2   347  SER347     -0.2866
     51  CB        -2.7320   40.5560   32.4050 C.3   347  SER347      0.2089
     52  OG        -2.5360   39.5950   31.3780 O.3   347  SER347     -0.2183
     53  N         -1.1610   37.1130   33.2300 N.3   349  GLN349     -0.1231
     54  CA        -1.5320   36.0530   32.2910 C.3   349  GLN349      0.1698
     55  C         -0.7830   36.2090   30.9740 C.2   349  GLN349      0.2592
     56  O         -0.2820   35.2280   30.4110 O.2   349  GLN349     -0.2718
     57  CB        -3.0380   36.0950   32.0120 C.3   349  GLN349      0.0381
     58  CG        -3.9370   35.3200   32.9590 C.3   349  GLN349      0.0905
     59  CD        -5.4180   35.5870   32.6720 C.2   349  GLN349      0.2608
     60  OE1       -5.9010   36.7130   32.8240 O.2   349  GLN349     -0.2717
     61  NE2       -6.1340   34.5560   32.2370 N.am  349  GLN349     -0.0878
     62  N         -0.6930   37.4400   30.4710 N.am  350  GLN350     -0.1979
     63  CA        -0.0050   37.6750   29.2070 C.3   350  GLN350      0.1601
     64  C          1.4790   37.3510   29.3180 C.2   350  GLN350      0.2287
     65  O          2.0650   36.7700   28.3940 O.2   350  GLN350     -0.2864
     66  CB        -0.2040   39.1180   28.7610 C.3   350  GLN350      0.0394
     67  CG         0.4560   39.4150   27.4390 C.3   350  GLN350      0.0908
     68  CD         0.3340   40.8630   27.0510 C.2   350  GLN350      0.2608
     69  OE1        0.3560   41.7520   27.9050 O.2   350  GLN350     -0.2717
     70  NE2        0.2090   41.1140   25.7550 N.am  350  GLN350     -0.0878
     71  N          1.7620   33.6620   29.0650 N.3   353  GLU353     -0.1245
     72  CA         1.5710   33.1930   27.6970 C.3   353  GLU353      0.1567
     73  C          2.8070   33.4420   26.8480 C.2   353  GLU353      0.2260
     74  O          3.2110   32.5780   26.0580 O.2   353  GLU353     -0.2867
     75  CB         0.3400   33.8610   27.0840 C.3   353  GLU353      0.0388
     76  CG        -0.9350   33.3370   27.7060 C.3   353  GLU353      0.1160
     77  CD        -2.1790   34.0820   27.2800 C.2   353  GLU353      0.3649
     78  OE1       -2.2630   34.5300   26.1190 O.co2 353  GLU353     -0.2457
     79  OE2       -3.0840   34.2080   28.1210 O.co2 353  GLU353     -0.2457
@<TRIPOS>BOND
     1     3     4    2
     2     3     2    1
     3     2     1    1
     4     2     5    1
     5     5     6    1
     6     7     6    2
     7     6     8   am
     8     9    10    1
     9    10    11    1
    10    10    13    1
    11    15    13    1
    12    12    11    2
    13    14    13    1
    14    11    16   am
    15    16    17    1
    16    20    21    1
    17    20    17    1
    18    70    68   am
    19    17    18    1
    20    74    73    2
    21    78    77   ar
    22    73    72    1
    23    68    67    1
    24    68    69    2
    25    75    72    1
    26    75    76    1
    27    77    76    1
    28    77    79   ar
    29    18    19    2
    30    18    22   am
    31    67    66    1
    32    72    71    1
    33    22    23    1
    34    65    64    2
    35    66    63    1
    36    63    64    1
    37    63    62    1
    38    23    26    1
    39    23    24    1
    40    25    24    2
    41    27    26    1
    42    56    55    2
    43    62    55   am
    44    55    54    1
    45    52    51    1
    46    47    48    1
    47    57    54    1
    48    57    58    1
    49    50    49    2
    50    61    59   am
    51    54    53    1
    52    51    48    1
    53    59    60    2
    54    59    58    1
    55    48    49    1
    56    28    29    1
    57    35    33    1
    58    29    32    1
    59    29    30    1
    60    33    32    1
    61    33    34    1
    62    30    31    2
    63    46    44    1
    64    45    44    1
    65    44    43    2
    66    39    38    2
    67    43    42    1
    68    38    37    1
    69    42    41    1
    70    37    40    1
    71    37    36    1
    72    40    41    1
