@<TRIPOS>MOLECULE
tmp/6ef0K02.pdb
 164 155 0 0 0
SMALL
GASTEIGER

@<TRIPOS>ATOM
      1  N        178.2410  140.4000  178.8160 N.3    17  ASP17      -0.1225
      2  CA       177.0260  140.4290  178.0220 C.3    17  ASP17       0.1805
      3  C        177.2910  140.9470  176.6170 C.2    17  ASP17       0.2598
      4  O        176.3570  141.0620  175.8200 O.2    17  ASP17      -0.2718
      5  CB       175.9820  141.2930  178.7320 C.3    17  ASP17       0.1424
      6  CG       174.5700  141.0810  178.2040 C.2    17  ASP17       0.3668
      7  OD1      174.3760  140.2440  177.2970 O.co2  17  ASP17      -0.2456
      8  OD2      173.6420  141.7400  178.7190 O.co2  17  ASP17      -0.2456
      9  N        178.5440  141.2700  176.3080 N.am   18  VAL18      -0.1966
     10  CA       178.9800  141.6270  174.9730 C.3    18  VAL18       0.1727
     11  C        180.1610  140.7320  174.6330 C.2    18  VAL18       0.2616
     12  O        180.7420  140.0770  175.4990 O.2    18  VAL18      -0.2715
     13  CB       179.3590  143.1180  174.8910 C.3    18  VAL18       0.0290
     14  CG1      180.5630  143.4100  175.7490 C.3    18  VAL18       0.0023
     15  CG2      179.5920  143.5610  173.4750 C.3    18  VAL18       0.0023
     16  N        180.5080  140.6990  173.3550 N.am   19  GLY19      -0.1955
     17  CA       181.6430  139.9080  172.9340 C.3    19  GLY19       0.1869
     18  C        182.0680  140.3020  171.5460 C.2    19  GLY19       0.2309
     19  O        181.3800  141.0390  170.8390 O.2    19  GLY19      -0.2863
     20  N        185.0910  142.0060  168.9790 N.3    21  LEU21      -0.1245
     21  CA       185.7270  143.3160  168.9730 C.3    21  LEU21       0.1561
     22  C        186.7730  143.4080  170.0750 C.2    21  LEU21       0.2260
     23  O        187.0440  144.4810  170.6180 O.2    21  LEU21      -0.2867
     24  CB       184.6940  144.4370  169.1080 C.3    21  LEU21       0.0270
     25  CG       183.8350  144.7440  167.8950 C.3    21  LEU21       0.0019
     26  CD1      182.9090  143.5890  167.5770 C.3    21  LEU21       0.0001
     27  CD2      183.0460  145.9940  168.2000 C.3    21  LEU21       0.0001
     28  N        176.7090  152.0880  160.5600 N.3    59  PRO59      -0.2102
     29  CA       175.6930  152.2170  161.6010 C.3    59  PRO59       0.1504
     30  C        175.4800  150.9130  162.3440 C.2    59  PRO59       0.2576
     31  O        175.3190  149.8480  161.7440 O.2    59  PRO59      -0.2718
     32  CB       174.4520  152.6420  160.8220 C.3    59  PRO59       0.0282
     33  CG       174.6990  152.1890  159.4650 C.3    59  PRO59       0.0208
     34  CD       176.1430  152.3340  159.2320 C.3    59  PRO59       0.0893
     35  N        175.5020  151.0160  163.6610 N.am   60  GLY60      -0.1943
     36  CA       175.4430  149.8480  164.5100 C.3    60  GLY60       0.2014
     37  C        176.8110  149.3690  164.8640 C.2    60  GLY60       0.2640
     38  O        177.6960  150.1610  165.1660 O.2    60  GLY60      -0.2714
     39  N        176.9750  148.0580  164.8570 N.am   61  THR61      -0.1936
     40  CA       178.2360  147.4190  165.1630 C.3    61  THR61       0.2028
     41  C        178.7130  147.7590  166.5720 C.2    61  THR61       0.2643
     42  O        179.8980  147.6490  166.8800 O.2    61  THR61      -0.2714
     43  CB       179.2690  147.8240  164.1250 C.3    61  THR61       0.1808
     44  OG1      178.6450  147.8440  162.8400 O.3    61  THR61      -0.2208
     45  CG2      180.3660  146.8290  164.0690 C.3    61  THR61       0.0379
     46  N        177.8060  148.1800  167.4460 N.am   62  GLY62      -0.1939
     47  CA       178.1900  148.5130  168.7930 C.3    62  GLY62       0.2014
     48  C        178.9330  149.8120  168.9290 C.2    62  GLY62       0.2639
     49  O        179.5760  150.0410  169.9560 O.2    62  GLY62      -0.2714
     50  N        178.8330  150.6910  167.9310 N.am   63  LYS63      -0.1963
     51  CA       179.5010  151.9830  168.0080 C.3    63  LYS63       0.1728
     52  C        179.0340  152.7760  169.2150 C.2    63  LYS63       0.2617
     53  O        179.7820  153.6070  169.7360 O.2    63  LYS63      -0.2715
     54  CB       179.2550  152.7730  166.7240 C.3    63  LYS63       0.0311
     55  CG       177.7930  153.1050  166.3970 C.3    63  LYS63       0.0038
     56  CD       177.7140  154.0440  165.1820 C.3    63  LYS63       0.0206
     57  CE       176.2700  154.4410  164.8710 C.3    63  LYS63       0.1093
     58  NZ       175.6230  155.1270  166.0120 N.3    63  LYS63      -0.1314
     59  N        177.8220  152.5090  169.6880 N.am   64  THR64      -0.1937
     60  CA       177.2110  153.2680  170.7570 C.3    64  THR64       0.2028
     61  C        177.1920  152.5180  172.0770 C.2    64  THR64       0.2642
     62  O        177.0270  153.1460  173.1250 O.2    64  THR64      -0.2714
     63  CB       175.7870  153.6410  170.3440 C.3    64  THR64       0.1808
     64  OG1      175.8320  154.3450  169.1050 O.3    64  THR64      -0.2208
     65  CG2      175.1500  154.5320  171.3420 C.3    64  THR64       0.0379
     66  N        177.4030  151.2090  172.0580 N.am   65  MET65      -0.1976
     67  CA       177.1280  150.3880  173.2240 C.3    65  MET65       0.1605
     68  C        178.3460  150.1250  174.0810 C.2    65  MET65       0.2287
     69  O        178.2070  149.9180  175.2860 O.2    65  MET65      -0.2864
     70  CB       176.5680  149.0430  172.7800 C.3    65  MET65       0.0413
     71  CG       177.6030  148.1230  172.1710 C.3    65  MET65       0.0598
     72  SD       176.8810  146.6340  171.5030 S.3    65  MET65      -0.1393
     73  CE       176.4760  145.8280  173.0440 C.3    65  MET65       0.0692
     74  N        178.8570  151.1440  177.3660 N.3    68  LYS68      -0.1245
     75  CA       177.8310  150.9570  178.3710 C.3    68  LYS68       0.1561
     76  C        178.3040  150.0340  179.4800 C.2    68  LYS68       0.2260
     77  O        177.9620  150.2460  180.6480 O.2    68  LYS68      -0.2867
     78  CB       176.5590  150.4470  177.6980 C.3    68  LYS68       0.0271
     79  CG       176.0020  151.4460  176.6950 C.3    68  LYS68       0.0035
     80  CD       174.7700  150.9610  175.9820 C.3    68  LYS68       0.0206
     81  CE       173.5670  150.9590  176.8730 C.3    68  LYS68       0.1093
     82  NZ       172.3450  150.7000  176.1040 N.3    68  LYS68      -0.1314
     83  N        177.1790  160.6990  171.9130 N.3   116  ASP116     -0.1225
     84  CA       176.6700  159.6180  171.0910 C.3   116  ASP116      0.1805
     85  C        176.7820  159.9560  169.6180 C.2   116  ASP116      0.2597
     86  O        176.9260  159.0540  168.7870 O.2   116  ASP116     -0.2718
     87  CB       175.2180  159.3270  171.4520 C.3   116  ASP116      0.1424
     88  CG       174.7160  158.0110  170.8750 C.2   116  ASP116      0.3668
     89  OD1      175.4780  157.3190  170.1670 O.co2 116  ASP116     -0.2456
     90  OD2      173.5470  157.6630  171.1410 O.co2 116  ASP116     -0.2456
     91  N        176.7220  161.2340  169.2690 N.am  117  GLU117     -0.1979
     92  CA       176.8260  161.5960  167.8690 C.3   117  GLU117      0.1602
     93  C        177.2450  163.0460  167.7420 C.2   117  GLU117      0.2287
     94  O        176.7720  163.9060  168.4860 O.2   117  GLU117     -0.2864
     95  CB       175.5090  161.3320  167.1590 C.3   117  GLU117      0.0415
     96  CG       175.5920  161.5180  165.6920 C.3   117  GLU117      0.1163
     97  CD       174.3880  160.9540  164.9700 C.2   117  GLU117      0.3649
     98  OE1      173.4950  160.4030  165.6440 O.co2 117  GLU117     -0.2457
     99  OE2      174.3300  161.0620  163.7270 O.co2 117  GLU117     -0.2457
    100  N        181.5790  159.8360  168.4670 N.3   161  ALA161     -0.1231
    101  CA       180.8920  158.7140  167.8510 C.3   161  ALA161      0.1694
    102  C        180.2250  159.1860  166.5720 C.2   161  ALA161      0.2593
    103  O        179.6740  160.2870  166.5450 O.2   161  ALA161     -0.2718
    104  CB       179.8610  158.1310  168.7920 C.3   161  ALA161      0.0304
    105  N        180.2630  158.3860  165.5100 N.am  162  THR162     -0.1939
    106  CA       179.7210  158.8050  164.2250 C.3   162  THR162      0.2028
    107  C        179.1910  157.6060  163.4550 C.2   162  THR162      0.2642
    108  O        179.2850  156.4570  163.8910 O.2   162  THR162     -0.2714
    109  CB       180.7640  159.4890  163.3450 C.3   162  THR162      0.1808
    110  OG1      181.7560  158.5320  162.9640 O.3   162  THR162     -0.2208
    111  CG2      181.4320  160.6130  164.0510 C.3   162  THR162      0.0379
    112  N        178.6210  157.9090  162.2920 N.am  163  ASN163     -0.1971
    113  CA       178.4080  156.9680  161.2100 C.3   163  ASN163      0.1688
    114  C        179.3860  157.1720  160.0690 C.2   163  ASN163      0.2292
    115  O        179.3480  156.4150  159.0960 O.2   163  ASN163     -0.2864
    116  CB       176.9880  157.1140  160.6560 C.3   163  ASN163      0.1181
    117  CG       175.9290  156.7590  161.6640 C.2   163  ASN163      0.2629
    118  OD1      175.1980  157.6220  162.1460 O.2   163  ASN163     -0.2716
    119  ND2      175.8130  155.4760  161.9610 N.am  163  ASN163     -0.0877
    120  N        179.8770  134.9900  169.0490 N.3   196  ILE196     -0.1245
    121  CA       179.0100  136.0560  169.5150 C.3   196  ILE196      0.1561
    122  C        177.5510  135.7180  169.2740 C.2   196  ILE196      0.2260
    123  O        176.6750  136.1840  170.0090 O.2   196  ILE196     -0.2867
    124  CB       179.4330  137.3730  168.8570 C.3   196  ILE196      0.0252
    125  CG1      179.1870  137.3430  167.3670 C.3   196  ILE196      0.0019
    126  CG2      180.9020  137.6220  169.1220 C.3   196  ILE196      0.0019
    127  CD1      177.9630  138.0380  166.9920 C.3   196  ILE196      0.0001
    128  N        177.3530  133.8340  172.2620 N.3   199  THR199     -0.1203
    129  CA       177.2910  134.7730  173.3660 C.3   199  THR199      0.1994
    130  C        175.8750  135.2790  173.5480 C.2   199  THR199      0.2617
    131  O        175.3070  135.2120  174.6420 O.2   199  THR199     -0.2717
    132  CB       178.2310  135.9320  173.0990 C.3   199  THR199      0.1784
    133  OG1      179.5580  135.4330  172.8960 O.3   199  THR199     -0.2211
    134  CG2      178.2230  136.8730  174.2530 C.3   199  THR199      0.0376
    135  N        175.2850  135.7790  172.4660 N.am  200  ILE200     -0.1979
    136  CA       173.9130  136.2620  172.5120 C.3   200  ILE200      0.1595
    137  C        172.9650  135.1150  172.8030 C.2   200  ILE200      0.2287
    138  O        171.9190  135.3050  173.4310 O.2   200  ILE200     -0.2864
    139  CB       173.5420  136.9480  171.1870 C.3   200  ILE200      0.0276
    140  CG1      174.4540  138.1410  170.8990 C.3   200  ILE200      0.0022
    141  CG2      172.1080  137.4080  171.2460 C.3   200  ILE200      0.0022
    142  CD1      174.4620  138.5540  169.4490 C.3   200  ILE200      0.0001
    143  N        176.3770  143.2900  162.6560 N.3   224  GLY224     -0.1210
    144  CA       176.4330  142.9440  164.0600 C.3   224  GLY224      0.1956
    145  C        175.1690  143.2000  164.8440 C.2   224  GLY224      0.2611
    146  O        174.9560  142.5840  165.8890 O.2   224  GLY224     -0.2717
    147  N        174.3300  144.1070  164.3620 N.am  225  ALA225     -0.1979
    148  CA       173.0880  144.4220  165.0490 C.3   225  ALA225      0.1597
    149  C        171.9290  143.6070  164.5130 C.2   225  ALA225      0.2287
    150  O        171.0520  143.1930  165.2770 O.2   225  ALA225     -0.2864
    151  CB       172.7660  145.8990  164.9010 C.3   225  ALA225      0.0319
    152  N        171.8970  140.6600  163.5050 N.3   227  ILE227     -0.1231
    153  CA       171.9480  139.2570  163.8700 C.3   227  ILE227      0.1692
    154  C        171.1590  138.9920  165.1260 C.2   227  ILE227      0.2591
    155  O        170.6460  137.8880  165.3250 O.2   227  ILE227     -0.2718
    156  CB       173.4070  138.8250  164.0130 C.3   227  ILE227      0.0266
    157  CG1      174.1190  139.6330  165.0870 C.3   227  ILE227      0.0019
    158  CG2      174.0960  138.9990  162.7050 C.3   227  ILE227      0.0020
    159  CD1      175.4680  139.1630  165.3580 C.3   227  ILE227      0.0001
    160  N        171.0490  139.9840  165.9960 N.am  228  ALA228     -0.1980
    161  CA       170.1360  139.8450  167.1120 C.3   228  ALA228      0.1597
    162  C        168.7220  139.6250  166.6170 C.2   228  ALA228      0.2287
    163  O        167.9550  138.8830  167.2350 O.2   228  ALA228     -0.2864
    164  CB       170.2030  141.0770  167.9920 C.3   228  ALA228      0.0319
@<TRIPOS>BOND
     1   115   114    2
     2    34    33    1
     3    34    28    1
     4    33    32    1
     5   114   113    1
     6    28    29    1
     7   116   113    1
     8   116   117    1
     9    32    29    1
    10   113   112    1
    11    29    30    1
    12   117   119   am
    13   117   118    2
    14    31    30    2
    15   112   107   am
    16    30    35   am
    17   143   144    1
    18   158   156    1
    19    44    43    1
    20   110   109    1
    21   109   111    1
    22   109   106    1
    23   107   108    2
    24   107   106    1
    25   152   153    1
    26    35    36    1
    27    99    97   ar
    28   153   156    1
    29   153   154    1
    30   156   157    1
    31   144   145    1
    32    45    43    1
    33    43    40    1
    34   106   105    1
    35   147   145   am
    36   147   148    1
    37    36    37    1
    38   149   148    1
    39   149   150    2
    40   145   146    2
    41    39    37   am
    42    39    40    1
    43    37    38    2
    44    57    56    1
    45    57    58    1
    46   151   148    1
    47    97    98   ar
    48    97    96    1
    49   157   159    1
    50   154   155    2
    51   154   160   am
    52    40    41    1
    53    56    55    1
    54   105   102   am
    55    96    95    1
    56   160   161    1
    57    55    54    1
    58   103   102    2
    59   102   101    1
    60    41    42    2
    61    41    46   am
    62   162   161    1
    63   162   163    2
    64    54    51    1
    65   127   125    1
    66   161   164    1
    67    95    92    1
    68   125   124    1
    69    46    47    1
    70    26    25    1
    71    93    92    1
    72    93    94    2
    73   101   100    1
    74   101   104    1
    75    92    91    1
    76    25    27    1
    77    25    24    1
    78    50    51    1
    79    50    48   am
    80    51    52    1
    81    86    85    2
    82    47    48    1
    83   124   126    1
    84   124   121    1
    85    48    49    2
    86    21    20    1
    87    21    24    1
    88    21    22    1
    89   120   121    1
    90    64    63    1
    91    52    59   am
    92    52    53    2
    93    91    85   am
    94   122   121    1
    95   122   123    2
    96   142   140    1
    97    85    84    1
    98    59    60    1
    99    22    23    2
   100    89    88   ar
   101    63    60    1
   102    63    65    1
   103    60    61    1
   104    19    18    2
   105    88    90   ar
   106    88    87    1
   107   140   139    1
   108    84    87    1
   109    84    83    1
   110   139   141    1
   111   139   136    1
   112    72    71    1
   113    72    73    1
   114    18    17    1
   115    66    61   am
   116    66    67    1
   117    61    62    2
   118    71    70    1
   119   128   129    1
   120   135   136    1
   121   135   130   am
   122   136   137    1
   123    70    67    1
   124   137   138    2
   125   133   132    1
   126    17    16    1
   127   132   129    1
   128   132   134    1
   129    67    68    1
   130    16    11   am
   131   129   130    1
   132    15    13    1
   133   130   131    2
   134    68    69    2
   135    11    10    1
   136    11    12    2
   137    13    10    1
   138    13    14    1
   139    10     9    1
   140     4     3    2
   141    80    79    1
   142    80    81    1
   143    82    81    1
   144     9     3   am
   145     3     2    1
   146    79    78    1
   147     7     6   ar
   148    74    75    1
   149    78    75    1
   150     2     5    1
   151     2     1    1
   152     6     8   ar
   153     6     5    1
   154    75    76    1
   155    76    77    2
