@<TRIPOS>MOLECULE
tmp/6ef0H00.pdb
 145 138 0 0 0
SMALL
GASTEIGER

@<TRIPOS>ATOM
      1  N        155.1210  225.8050  139.0190 N.3    10  ASP10      -0.1225
      2  CA       156.1650  225.1970  139.8300 C.3    10  ASP10       0.1805
      3  C        156.6220  223.8720  139.2490 C.2    10  ASP10       0.2598
      4  O        157.7530  223.4440  139.5060 O.2    10  ASP10      -0.2718
      5  CB       155.6760  224.9750  141.2530 C.3    10  ASP10       0.1424
      6  CG       156.7500  224.3950  142.1420 C.2    10  ASP10       0.3668
      7  OD1      157.6770  225.1370  142.5230 O.co2  10  ASP10      -0.2456
      8  OD2      156.6770  223.1860  142.4430 O.co2  10  ASP10      -0.2456
      9  N        155.7670  223.2130  138.4760 N.am   11  VAL11      -0.1966
     10  CA       156.0160  221.8640  137.9970 C.3    11  VAL11       0.1727
     11  C        156.3480  221.9190  136.5190 C.2    11  VAL11       0.2617
     12  O        155.6120  222.5220  135.7300 O.2    11  VAL11      -0.2715
     13  CB       154.8060  220.9570  138.2380 C.3    11  VAL11       0.0290
     14  CG1      155.1260  219.5460  137.7760 C.3    11  VAL11       0.0023
     15  CG2      154.4130  221.0150  139.6810 C.3    11  VAL11       0.0023
     16  N        157.4490  221.2790  136.1490 N.am   12  GLY12      -0.1940
     17  CA       157.7630  221.0200  134.7610 C.3    12  GLY12       0.2014
     18  C        157.3130  219.6180  134.4170 C.2    12  GLY12       0.2639
     19  O        156.1150  219.3610  134.2710 O.2    12  GLY12      -0.2714
     20  N        158.2710  218.7080  134.2950 N.am   13  GLY13      -0.1954
     21  CA       157.9940  217.2950  134.3050 C.3    13  GLY13       0.1869
     22  C        157.0310  216.8100  133.2280 C.2    13  GLY13       0.2309
     23  O        156.6410  217.5230  132.3060 O.2    13  GLY13      -0.2863
     24  N        160.7070  207.1440  144.4410 N.3    52  PRO52      -0.2102
     25  CA       160.8100  208.1390  145.5140 C.3    52  PRO52       0.1504
     26  C        161.0990  209.5240  144.9630 C.2    52  PRO52       0.2576
     27  O        162.0630  209.7290  144.2240 O.2    52  PRO52      -0.2718
     28  CB       161.9690  207.6160  146.3600 C.3    52  PRO52       0.0282
     29  CG       162.8320  206.9480  145.3780 C.3    52  PRO52       0.0208
     30  CD       161.9320  206.3380  144.3470 C.3    52  PRO52       0.0893
     31  N        160.2410  210.4680  145.3170 N.am   53  GLY53      -0.1943
     32  CA       160.4850  211.8580  145.0150 C.3    53  GLY53       0.2014
     33  C        160.4030  212.1520  143.5400 C.2    53  GLY53       0.2640
     34  O        161.2000  212.9400  143.0210 O.2    53  GLY53      -0.2714
     35  N        159.4630  211.5160  142.8470 N.am   54  THR54      -0.1936
     36  CA       159.1420  211.8370  141.4650 C.3    54  THR54       0.2028
     37  C        157.9950  212.8400  141.3840 C.2    54  THR54       0.2643
     38  O        157.2420  212.8670  140.4060 O.2    54  THR54      -0.2714
     39  CB       158.8230  210.5430  140.7140 C.3    54  THR54       0.1808
     40  OG1      159.8500  209.5880  140.9880 O.3    54  THR54      -0.2208
     41  CG2      158.8020  210.7360  139.2140 C.3    54  THR54       0.0379
     42  N        157.8410  213.6730  142.4100 N.am   55  GLY55      -0.1939
     43  CA       156.7360  214.6010  142.4780 C.3    55  GLY55       0.2014
     44  C        155.4100  213.9830  142.8370 C.2    55  GLY55       0.2639
     45  O        154.3830  214.6620  142.7370 O.2    55  GLY55      -0.2714
     46  N        155.3980  212.7080  143.2330 N.am   56  LYS56      -0.1963
     47  CA       154.1680  212.0830  143.6990 C.3    56  LYS56       0.1728
     48  C        153.5560  212.8880  144.8330 C.2    56  LYS56       0.2617
     49  O        152.3390  213.0920  144.8840 O.2    56  LYS56      -0.2715
     50  CB       154.4510  210.6490  144.1440 C.3    56  LYS56       0.0311
     51  CG       155.3800  210.5100  145.3420 C.3    56  LYS56       0.0038
     52  CD       155.4730  209.0400  145.6720 C.3    56  LYS56       0.0206
     53  CE       156.7380  208.6950  146.4660 C.3    56  LYS56       0.1093
     54  NZ       156.7740  209.3500  147.7550 N.3    56  LYS56      -0.1314
     55  N        154.3970  213.3740  145.7420 N.am   57  THR57      -0.1937
     56  CA       153.9420  214.3280  146.7410 C.3    57  THR57       0.2028
     57  C        153.5360  215.6330  146.0840 C.2    57  THR57       0.2642
     58  O        152.3990  216.0950  146.2220 O.2    57  THR57      -0.2714
     59  CB       155.0520  214.5870  147.7430 C.3    57  THR57       0.1808
     60  OG1      155.4240  213.3630  148.3850 O.3    57  THR57      -0.2208
     61  CG2      154.6210  215.5830  148.7520 C.3    57  THR57       0.0379
     62  N        154.4730  216.2320  145.3530 N.am   58  LEU58      -0.1977
     63  CA       154.2860  217.5730  144.8180 C.3    58  LEU58       0.1596
     64  C        153.0750  217.6570  143.9030 C.2    58  LEU58       0.2287
     65  O        152.4760  218.7290  143.7650 O.2    58  LEU58      -0.2864
     66  CB       155.5480  217.9940  144.0670 C.3    58  LEU58       0.0297
     67  CG       155.6060  219.4130  143.5100 C.3    58  LEU58       0.0022
     68  CD1      155.5270  220.4240  144.6210 C.3    58  LEU58       0.0001
     69  CD2      156.8800  219.6130  142.7340 C.3    58  LEU58       0.0001
     70  N        149.9690  218.2230  145.8670 N.3    61  ARG61      -0.1245
     71  CA       150.1930  219.5380  146.4340 C.3    61  ARG61       0.1563
     72  C        149.9880  220.6190  145.3930 C.2    61  ARG61       0.2260
     73  O        149.6080  221.7440  145.7300 O.2    61  ARG61      -0.2867
     74  CB       151.5990  219.5990  147.0020 C.3    61  ARG61       0.0307
     75  CG       151.8020  218.6400  148.1420 C.3    61  ARG61       0.0489
     76  CD       153.2210  218.6550  148.6490 C.3    61  ARG61       0.2205
     77  NE       153.5680  219.9050  149.3200 N.pl3  61  ARG61      -0.0865
     78  CZ       154.7850  220.2140  149.7590 C.cat  61  ARG61       0.5346
     79  NH1      155.8040  219.3800  149.6090 N.pl3  61  ARG61       0.1354
     80  NH2      154.9860  221.3730  150.3610 N.pl3  61  ARG61       0.1354
     81  N        151.2140  209.4400  153.6360 N.3   109  ASP109     -0.1239
     82  CA       152.3370  208.8300  152.9450 C.3   109  ASP109      0.1674
     83  C        152.8990  207.7240  153.8250 C.2   109  ASP109      0.2266
     84  O        152.2850  207.3210  154.8160 O.2   109  ASP109     -0.2867
     85  CB       153.3900  209.9000  152.6300 C.3   109  ASP109      0.1410
     86  CG       152.8710  210.9750  151.7030 C.2   109  ASP109      0.3668
     87  OD1      151.9870  210.6760  150.8770 O.co2 109  ASP109     -0.2456
     88  OD2      153.3450  212.1260  151.8050 O.co2 109  ASP109     -0.2456
     89  N        160.5360  211.9930  133.7700 N.3   180  PRO180     -0.2116
     90  CA       160.0950  212.6370  132.5340 C.3   180  PRO180      0.1372
     91  C        161.1070  212.4900  131.4050 C.2   180  PRO180      0.2244
     92  O        162.2420  212.0540  131.5970 O.2   180  PRO180     -0.2868
     93  CB       159.9780  214.1100  132.9300 C.3   180  PRO180      0.0268
     94  CG       160.0150  214.1270  134.3930 C.3   180  PRO180      0.0207
     95  CD       160.9020  213.0180  134.7590 C.3   180  PRO180      0.0892
     96  N        160.3550  217.5240  130.3890 N.3   184  GLY184     -0.1225
     97  CA       160.1740  217.5930  131.8200 C.3   184  GLY184      0.1811
     98  C        161.4740  217.8960  132.5230 C.2   184  GLY184      0.2280
     99  O        161.4800  218.5140  133.5900 O.2   184  GLY184     -0.2866
    100  N        162.6130  222.8200  134.4190 N.3   188  ILE188     -0.1245
    101  CA       162.8460  222.6620  135.8460 C.3   188  ILE188      0.1561
    102  C        164.1430  223.3560  136.2130 C.2   188  ILE188      0.2260
    103  O        164.3220  223.8350  137.3340 O.2   188  ILE188     -0.2867
    104  CB       162.8470  221.1730  136.2120 C.3   188  ILE188      0.0252
    105  CG1      163.9060  220.4060  135.4290 C.3   188  ILE188      0.0019
    106  CG2      161.4900  220.5980  135.9010 C.3   188  ILE188      0.0019
    107  CD1      164.0430  218.9950  135.8880 C.3   188  ILE188      0.0001
    108  N        163.1420  226.7930  136.8320 N.3   191  ILE191     -0.1231
    109  CA       162.7540  227.1720  138.1790 C.3   191  ILE191      0.1692
    110  C        163.8590  226.8900  139.1870 C.2   191  ILE191      0.2592
    111  O        164.1050  227.7050  140.0820 O.2   191  ILE191     -0.2718
    112  CB       161.4280  226.4960  138.5980 C.3   191  ILE191      0.0266
    113  CG1      161.5260  224.9790  138.6490 C.3   191  ILE191      0.0019
    114  CG2      160.3190  226.8770  137.6300 C.3   191  ILE191      0.0020
    115  CD1      161.8010  224.4270  140.0150 C.3   191  ILE191      0.0001
    116  N        164.5400  225.7490  139.0720 N.am  192  HIS192     -0.1976
    117  CA       165.4850  225.3660  140.1150 C.3   192  HIS192      0.1656
    118  C        166.6890  226.2890  140.1280 C.2   192  HIS192      0.2291
    119  O        166.9400  226.9950  141.1100 O.2   192  HIS192     -0.2864
    120  CB       165.9530  223.9290  139.9260 C.3   192  HIS192      0.0771
    121  CG       164.9590  222.8950  140.3540 C.ar  192  HIS192      0.0820
    122  ND1      164.6330  222.6880  141.6790 N.ar  192  HIS192     -0.2267
    123  CD2      164.2760  221.9650  139.6480 C.ar  192  HIS192      0.1154
    124  CE1      163.7550  221.7070  141.7660 C.ar  192  HIS192      0.1986
    125  NE2      163.5190  221.2540  140.5480 N.ar  192  HIS192     -0.2212
    126  N        163.6890  214.1030  139.6660 N.3   216  GLY216     -0.1210
    127  CA       163.8370  215.5410  139.6570 C.3   216  GLY216      0.1956
    128  C        164.6240  216.1080  140.8140 C.2   216  GLY216      0.2611
    129  O        165.5230  216.9260  140.6210 O.2   216  GLY216     -0.2717
    130  N        164.3070  215.6720  142.0280 N.am  217  ALA217     -0.1979
    131  CA       164.7910  216.3630  143.2140 C.3   217  ALA217      0.1597
    132  C        166.3050  216.3410  143.3630 C.2   217  ALA217      0.2287
    133  O        166.8340  217.0950  144.1820 O.2   217  ALA217     -0.2864
    134  CB       164.1460  215.7600  144.4510 C.3   217  ALA217      0.0319
    135  N        168.0970  219.6130  142.0650 N.3   220  ARG220     -0.1245
    136  CA       168.3190  220.5600  143.1470 C.3   220  ARG220      0.1563
    137  C        169.7440  220.4680  143.6770 C.2   220  ARG220      0.2260
    138  O        170.3760  221.4900  143.9660 O.2   220  ARG220     -0.2867
    139  CB       167.3000  220.2820  144.2500 C.3   220  ARG220      0.0307
    140  CG       167.3160  221.2060  145.4470 C.3   220  ARG220      0.0489
    141  CD       166.1760  220.8450  146.3850 C.3   220  ARG220      0.2205
    142  NE       166.2990  219.4840  146.9100 N.pl3 220  ARG220     -0.0865
    143  CZ       165.3310  218.8130  147.5370 C.cat 220  ARG220      0.5346
    144  NH1      164.1300  219.3460  147.7270 N.pl3 220  ARG220      0.1354
    145  NH2      165.5630  217.5820  147.9720 N.pl3 220  ARG220      0.1354
@<TRIPOS>BOND
     1    96    97    1
     2    91    92    2
     3    91    90    1
     4    97    98    1
     5    23    22    2
     6    98    99    2
     7    90    93    1
     8    90    89    1
     9    93    94    1
    10    22    21    1
    11    89    95    1
    12    19    18    2
    13    20    21    1
    14    20    18   am
    15    94    95    1
    16    18    17    1
    17   100   101    1
    18    17    16    1
    19   105   107    1
    20   105   104    1
    21    12    11    2
    22   101   104    1
    23   101   102    1
    24   106   104    1
    25    16    11   am
    26   102   103    2
    27    11    10    1
    28   108   109    1
    29   114   112    1
    30    14    13    1
    31    10    13    1
    32    10     9    1
    33   109   112    1
    34   109   110    1
    35    13    15    1
    36     9     3   am
    37   112   113    1
    38   113   115    1
    39     1     2    1
    40   116   110   am
    41   116   117    1
    42   110   111    2
    43    41    39    1
    44     3     4    2
    45     3     2    1
    46   123   121   ar
    47   123   125   ar
    48   127   126    1
    49   127   128    1
    50     2     5    1
    51   120   117    1
    52   120   121    1
    53   117   118    1
    54   118   119    2
    55   121   122   ar
    56    38    37    2
    57   125   124   ar
    58   129   128    2
    59    39    40    1
    60    39    36    1
    61   128   130   am
    62     5     6    1
    63    37    36    1
    64    37    42   am
    65    36    35    1
    66   122   124   ar
    67   130   131    1
    68   135   136    1
    69     6     8   ar
    70     6     7   ar
    71    42    43    1
    72    43    44    1
    73    69    67    1
    74    45    44    2
    75    44    46   am
    76    35    33   am
    77    34    33    2
    78   136   137    1
    79   136   139    1
    80   131   132    1
    81   131   134    1
    82    46    47    1
    83   132   133    2
    84    67    66    1
    85    67    68    1
    86    33    32    1
    87   137   138    2
    88    47    50    1
    89    47    48    1
    90    65    64    2
    91    64    63    1
    92    66    63    1
    93    50    51    1
    94    27    26    2
    95   139   140    1
    96    30    24    1
    97    30    29    1
    98    24    25    1
    99    63    62    1
   100    48    49    2
   101    48    55   am
   102    26    31   am
   103    26    25    1
   104    32    31    1
   105    51    52    1
   106    62    57   am
   107    29    28    1
   108    72    73    2
   109    72    71    1
   110   140   141    1
   111    25    28    1
   112    52    53    1
   113    55    56    1
   114    70    71    1
   115    57    58    2
   116    57    56    1
   117   141   142    1
   118    71    74    1
   119    53    54    1
   120    56    59    1
   121   142   143    2
   122    74    75    1
   123   143   144    1
   124   143   145    1
   125    59    60    1
   126    59    61    1
   127    75    76    1
   128    76    77    1
   129    77    78    2
   130    79    78    1
   131    78    80    1
   132    87    86   ar
   133    86    88   ar
   134    86    85    1
   135    85    82    1
   136    82    81    1
   137    82    83    1
   138    83    84    2
