@<TRIPOS>MOLECULE
tmp/6ef1M00.pdb
 159 153 0 0 0
SMALL
GASTEIGER

@<TRIPOS>ATOM
      1  N        120.1700  184.7550  142.8860 N.3     9  SER9       -0.1202
      2  CA       120.1640  185.5850  141.6900 C.3     9  SER9        0.2020
      3  C        120.1860  184.6870  140.4610 C.2     9  SER9        0.2618
      4  O        119.9870  183.4730  140.5400 O.2     9  SER9       -0.2717
      5  CB       121.3520  186.5400  141.6830 C.3     9  SER9        0.2103
      6  OG       121.3440  187.3400  140.5130 O.3     9  SER9       -0.2182
      7  N        120.4210  185.2880  139.3000 N.am   10  ASP10      -0.1973
      8  CA       120.6510  184.5040  138.0980 C.3    10  ASP10       0.1709
      9  C        121.8760  183.6220  138.2960 C.2    10  ASP10       0.2293
     10  O        122.9180  184.0880  138.7670 O.2    10  ASP10      -0.2864
     11  CB       120.8370  185.4310  136.8990 C.3    10  ASP10       0.1436
     12  CG       119.5500  186.1230  136.4890 C.2    10  ASP10       0.3671
     13  OD1      118.4660  185.5270  136.6620 O.co2  10  ASP10      -0.2456
     14  OD2      119.6210  187.2690  135.9990 O.co2  10  ASP10      -0.2456
     15  N        138.7120  177.9400  144.1230 N.3    50  GLY50      -0.1210
     16  CA       138.8490  178.6030  142.8520 C.3    50  GLY50       0.1940
     17  C        139.2180  180.0550  143.0690 C.2    50  GLY50       0.2454
     18  O        139.0660  180.5890  144.1710 O.2    50  GLY50      -0.2732
     19  N        139.7140  180.7280  142.0350 N.am   51  PRO51      -0.2718
     20  CA       140.1200  182.1220  142.1950 C.3    51  PRO51       0.1520
     21  C        138.9060  183.0180  142.3650 C.2    51  PRO51       0.2440
     22  O        137.8610  182.7640  141.7480 O.2    51  PRO51      -0.2731
     23  CB       140.8580  182.4240  140.8880 C.3    51  PRO51       0.0310
     24  CG       140.2520  181.5080  139.9130 C.3    51  PRO51       0.0237
     25  CD       139.9280  180.2570  140.6580 C.3    51  PRO51       0.0939
     26  N        138.9840  184.0830  143.1860 N.am   52  PRO52      -0.2716
     27  CA       137.8110  184.9530  143.3230 C.3    52  PRO52       0.1536
     28  C        137.5210  185.7440  142.0640 C.2    52  PRO52       0.2599
     29  O        138.2050  185.5900  141.0470 O.2    52  PRO52      -0.2715
     30  CB       138.1830  185.8720  144.4900 C.3    52  PRO52       0.0310
     31  CG       139.2090  185.1520  145.2230 C.3    52  PRO52       0.0237
     32  CD       140.0050  184.4420  144.1840 C.3    52  PRO52       0.0939
     33  N        136.5150  186.6090  142.1370 N.am   53  GLY53      -0.1941
     34  CA       135.8990  187.1490  140.9470 C.3    53  GLY53       0.2014
     35  C        134.7770  186.2720  140.4580 C.2    53  GLY53       0.2640
     36  O        134.5070  186.2340  139.2530 O.2    53  GLY53      -0.2714
     37  N        134.1110  185.5690  141.3700 N.am   54  THR54      -0.1936
     38  CA       133.2910  184.4080  141.0540 C.3    54  THR54       0.2028
     39  C        131.8230  184.6050  141.3870 C.2    54  THR54       0.2643
     40  O        130.9600  184.3550  140.5370 O.2    54  THR54      -0.2714
     41  CB       133.8340  183.1990  141.8250 C.3    54  THR54       0.1808
     42  OG1      135.1680  182.9030  141.3900 O.3    54  THR54      -0.2208
     43  CG2      132.9440  181.9950  141.6410 C.3    54  THR54       0.0379
     44  N        131.5180  185.0210  142.6120 N.am   55  GLY55      -0.1939
     45  CA       130.1600  185.0510  143.1140 C.3    55  GLY55       0.2014
     46  C        129.9630  183.8960  144.0660 C.2    55  GLY55       0.2639
     47  O        128.9100  183.2530  144.0900 O.2    55  GLY55      -0.2714
     48  N        131.0030  183.6270  144.8530 N.am   56  LYS56      -0.1963
     49  CA       130.9840  182.4790  145.7450 C.3    56  LYS56       0.1728
     50  C        129.8770  182.6170  146.7670 C.2    56  LYS56       0.2617
     51  O        129.1030  181.6830  146.9990 O.2    56  LYS56      -0.2715
     52  CB       132.3240  182.3600  146.4570 C.3    56  LYS56       0.0311
     53  CG       133.5390  182.2400  145.5550 C.3    56  LYS56       0.0038
     54  CD       133.5810  180.9590  144.7380 C.3    56  LYS56       0.0206
     55  CE       133.8750  179.7510  145.6120 C.3    56  LYS56       0.1093
     56  NZ       134.0470  178.5020  144.8320 N.3    56  LYS56      -0.1314
     57  N        129.7820  183.7910  147.3770 N.am   57  THR57      -0.1937
     58  CA       128.7910  184.0020  148.4140 C.3    57  THR57       0.2028
     59  C        127.3840  183.9740  147.8500 C.2    57  THR57       0.2642
     60  O        126.4370  183.6790  148.5830 O.2    57  THR57      -0.2714
     61  CB       129.0590  185.3240  149.1170 C.3    57  THR57       0.1808
     62  OG1      128.9530  186.3920  148.1700 O.3    57  THR57      -0.2208
     63  CG2      130.4540  185.3190  149.7070 C.3    57  THR57       0.0379
     64  N        127.2220  184.2640  146.5590 N.am   58  LEU58      -0.1977
     65  CA       125.9040  184.1310  145.9500 C.3    58  LEU58       0.1596
     66  C        125.4270  182.6980  146.0450 C.2    58  LEU58       0.2287
     67  O        124.2560  182.4340  146.3420 O.2    58  LEU58      -0.2864
     68  CB       125.9400  184.5680  144.4880 C.3    58  LEU58       0.0297
     69  CG       124.6030  184.5370  143.7390 C.3    58  LEU58       0.0022
     70  CD1      123.5990  185.4910  144.3600 C.3    58  LEU58       0.0001
     71  CD2      124.8100  184.8600  142.2760 C.3    58  LEU58       0.0001
     72  N        129.2030  179.4890  156.3160 N.3   107  PHE107     -0.1241
     73  CA       130.3140  179.6740  155.3900 C.3   107  PHE107      0.1605
     74  C        131.3140  180.6180  156.0270 C.2   107  PHE107      0.2264
     75  O        131.0520  181.8150  156.1610 O.2   107  PHE107     -0.2867
     76  CB       129.8580  180.2220  154.0500 C.3   107  PHE107      0.0534
     77  CG       130.9970  180.5770  153.1460 C.ar  107  PHE107     -0.0203
     78  CD1      131.7380  179.5920  152.5270 C.ar  107  PHE107     -0.0042
     79  CD2      131.3420  181.9020  152.9340 C.ar  107  PHE107     -0.0042
     80  CE1      132.7940  179.9200  151.7010 C.ar  107  PHE107     -0.0003
     81  CE2      132.4000  182.2350  152.1070 C.ar  107  PHE107     -0.0003
     82  CZ       133.1270  181.2420  151.4910 C.ar  107  PHE107     -0.0000
     83  N        135.3200  182.0810  155.5920 N.3   109  ASP109     -0.1225
     84  CA       136.0550  182.5770  154.4410 C.3   109  ASP109      0.1805
     85  C        137.5490  182.4000  154.6510 C.2   109  ASP109      0.2597
     86  O        138.0470  182.5410  155.7700 O.2   109  ASP109     -0.2718
     87  CB       135.7290  184.0430  154.2060 C.3   109  ASP109      0.1424
     88  CG       135.9130  184.8790  155.4540 C.2   109  ASP109      0.3668
     89  OD1      136.1920  184.2890  156.5190 O.co2 109  ASP109     -0.2456
     90  OD2      135.7720  186.1170  155.3780 O.co2 109  ASP109     -0.2456
     91  N        138.2550  182.0910  153.5620 N.am  110  GLU110     -0.1979
     92  CA       139.7160  182.0190  153.5600 C.3   110  GLU110      0.1602
     93  C        140.2180  180.9930  154.5730 C.2   110  GLU110      0.2287
     94  O        141.1510  181.2520  155.3360 O.2   110  GLU110     -0.2864
     95  CB       140.3280  183.3940  153.8310 C.3   110  GLU110      0.0415
     96  CG       140.0260  184.4440  152.7720 C.3   110  GLU110      0.1163
     97  CD       140.7220  184.1780  151.4570 C.2   110  GLU110      0.3649
     98  OE1      141.8270  183.5980  151.4710 O.co2 110  GLU110     -0.2457
     99  OE2      140.1670  184.5610  150.4080 O.co2 110  GLU110     -0.2457
    100  N        136.3520  178.7000  151.4020 N.3   154  ALA154     -0.1245
    101  CA       136.8390  179.1220  150.0990 C.3   154  ALA154      0.1562
    102  C        138.1190  179.9150  150.2860 C.2   154  ALA154      0.2260
    103  O        138.2220  180.7260  151.2080 O.2   154  ALA154     -0.2867
    104  CB       135.7930  179.9660  149.3650 C.3   154  ALA154      0.0290
    105  N        129.8240  188.0830  132.6770 N.3   185  ARG185     -0.1245
    106  CA       130.8370  189.0800  132.9870 C.3   185  ARG185      0.1563
    107  C        130.5790  190.3690  132.2320 C.2   185  ARG185      0.2260
    108  O        131.0800  191.4220  132.6290 O.2   185  ARG185     -0.2867
    109  CB       132.2300  188.5500  132.6550 C.3   185  ARG185      0.0307
    110  CG       132.5320  187.3350  133.5860 C.3   185  ARG185      0.0489
    111  CD       133.1860  187.8860  134.8200 C.3   185  ARG185      0.2205
    112  NE       133.3470  187.0160  135.9490 N.pl3 185  ARG185     -0.0865
    113  CZ       132.4600  186.2810  136.6330 C.cat 185  ARG185      0.5346
    114  NH1      131.1360  186.3920  136.4170 N.pl3 185  ARG185      0.1354
    115  NH2      132.9530  185.4020  137.5380 N.pl3 185  ARG185      0.1354
    116  N        127.5240  191.8590  134.5870 N.3   188  ILE188     -0.1245
    117  CA       127.9650  192.3460  135.8900 C.3   188  ILE188      0.1561
    118  C        128.6460  193.6930  135.7590 C.2   188  ILE188      0.2260
    119  O        128.6200  194.5080  136.6860 O.2   188  ILE188     -0.2867
    120  CB       128.9020  191.3270  136.5580 C.3   188  ILE188      0.0252
    121  CG1      129.0980  191.7000  138.0260 C.3   188  ILE188      0.0019
    122  CG2      130.2430  191.2820  135.8320 C.3   188  ILE188      0.0019
    123  CD1      129.7900  190.6470  138.8440 C.3   188  ILE188      0.0001
    124  N        126.2770  195.9090  136.1890 N.3   191  ILE191     -0.1231
    125  CA       125.9560  195.9370  137.6120 C.3   191  ILE191      0.1692
    126  C        126.9820  196.7680  138.3640 C.2   191  ILE191      0.2592
    127  O        126.6340  197.5450  139.2610 O.2   191  ILE191     -0.2718
    128  CB       125.8640  194.5110  138.1900 C.3   191  ILE191      0.0266
    129  CG1      124.8530  193.6540  137.4190 C.3   191  ILE191      0.0019
    130  CG2      125.5090  194.5730  139.6650 C.3   191  ILE191      0.0020
    131  CD1      123.4310  194.1840  137.4010 C.3   191  ILE191      0.0001
    132  N        128.2620  196.6130  138.0240 N.am  192  HIS192     -0.1976
    133  CA       129.2650  197.5420  138.5270 C.3   192  HIS192      0.1656
    134  C        128.9340  198.9560  138.0850 C.2   192  HIS192      0.2291
    135  O        128.9810  199.9010  138.8800 O.2   192  HIS192     -0.2864
    136  CB       130.6530  197.1470  138.0280 C.3   192  HIS192      0.0771
    137  CG       131.1340  195.8290  138.5440 C.ar  192  HIS192      0.0820
    138  ND1      131.4910  195.6280  139.8600 N.ar  192  HIS192     -0.2267
    139  CD2      131.3560  194.6540  137.9110 C.ar  192  HIS192      0.1154
    140  CE1      131.8840  194.3770  140.0200 C.ar  192  HIS192      0.1986
    141  NE2      131.8120  193.7650  138.8530 N.ar  192  HIS192     -0.2212
    142  N        137.2770  188.2400  137.5710 N.3   216  GLY216     -0.1210
    143  CA       136.2860  189.1080  138.1800 C.3   216  GLY216      0.1956
    144  C        136.8850  189.9960  139.2490 C.2   216  GLY216      0.2611
    145  O        136.4440  191.1320  139.4400 O.2   216  GLY216     -0.2717
    146  N        137.8980  189.4900  139.9550 N.am  217  ALA217     -0.1979
    147  CA       138.7370  190.3290  140.7980 C.3   217  ALA217      0.1597
    148  C        139.2620  191.5210  140.0120 C.2   217  ALA217      0.2287
    149  O        139.0990  192.6770  140.4160 O.2   217  ALA217     -0.2864
    150  CB       139.8890  189.4950  141.3500 C.3   217  ALA217      0.0319
    151  N        136.1720  193.4420  138.5500 N.3   220  LYS220     -0.1245
    152  CA       135.5210  194.2670  139.5540 C.3   220  LYS220      0.1561
    153  C        136.2850  195.5580  139.8190 C.2   220  LYS220      0.2260
    154  O        135.7880  196.4050  140.5700 O.2   220  LYS220     -0.2867
    155  CB       135.3640  193.4850  140.8580 C.3   220  LYS220      0.0271
    156  CG       134.4740  194.1280  141.9620 C.3   220  LYS220      0.0035
    157  CD       134.4620  193.1690  143.1890 C.3   220  LYS220      0.0206
    158  CE       134.2250  193.9470  144.4640 C.3   220  LYS220      0.1093
    159  NZ       132.7950  194.3330  144.3540 N.3   220  LYS220     -0.1314
@<TRIPOS>BOND
     1   107   108    2
     2   107   106    1
     3   109   106    1
     4   109   110    1
     5   105   106    1
     6   110   111    1
     7   116   117    1
     8   111   112    1
     9   118   117    1
    10   118   119    2
    11   122   120    1
    12   117   120    1
    13   112   113    2
    14    14    12   ar
    15   124   125    1
    16   114   113    1
    17    12    13   ar
    18    12    11    1
    19   120   121    1
    20   113   115    1
    21    11     8    1
    22   131   129    1
    23   129   128    1
    24   142   143    1
    25   125   128    1
    26   125   126    1
    27   139   137   ar
    28   139   141   ar
    29   132   126   am
    30   132   133    1
    31   121   123    1
    32   136   133    1
    33   136   137    1
    34   134   133    1
    35   134   135    2
    36     8     9    1
    37     8     7    1
    38   143   144    1
    39   128   130    1
    40     9    10    2
    41   126   127    2
    42   137   138   ar
    43   151   152    1
    44   141   140   ar
    45   144   145    2
    46   144   146   am
    47    36    35    2
    48     7     3   am
    49   152   153    1
    50   152   155    1
    51   153   154    2
    52   138   140   ar
    53    24    25    1
    54    24    23    1
    55   146   147    1
    56   148   149    2
    57   148   147    1
    58    35    34    1
    59    35    37   am
    60     3     4    2
    61     3     2    1
    62     6     5    1
    63    40    39    2
    64    25    19    1
    65   147   150    1
    66   155   156    1
    67    23    20    1
    68    34    33    1
    69    29    28    2
    70    38    37    1
    71    38    39    1
    72    38    41    1
    73    39    44   am
    74    42    41    1
    75    43    41    1
    76     5     2    1
    77     2     1    1
    78    22    21    2
    79   156   157    1
    80    19    20    1
    81    19    17   am
    82    28    33   am
    83    28    27    1
    84    20    21    1
    85    71    69    1
    86    21    26   am
    87    44    45    1
    88    16    17    1
    89    16    15    1
    90    17    18    2
    91    45    46    1
    92    26    27    1
    93    26    32    1
    94   157   158    1
    95    27    30    1
    96    69    70    1
    97    69    68    1
    98    46    47    2
    99    46    48   am
   100    32    31    1
   101   159   158    1
   102    68    65    1
   103    30    31    1
   104    54    53    1
   105    54    55    1
   106    56    55    1
   107    48    49    1
   108    53    52    1
   109    49    52    1
   110    49    50    1
   111    65    66    1
   112    65    64    1
   113    66    67    2
   114    64    59   am
   115    50    51    2
   116    50    57   am
   117    57    58    1
   118    59    58    1
   119    59    60    2
   120    62    61    1
   121    58    61    1
   122    61    63    1
   123   104   101    1
   124   101   102    1
   125   101   100    1
   126   102   103    2
   127    99    97   ar
   128    97    98   ar
   129    97    96    1
   130    82    80   ar
   131    82    81   ar
   132    80    78   ar
   133    81    79   ar
   134    78    77   ar
   135    96    95    1
   136    79    77   ar
   137    77    76    1
   138    92    91    1
   139    92    95    1
   140    92    93    1
   141    91    85   am
   142    76    73    1
   143    87    84    1
   144    87    88    1
   145    84    85    1
   146    84    83    1
   147    93    94    2
   148    85    86    2
   149    90    88   ar
   150    73    74    1
   151    73    72    1
   152    88    89   ar
   153    74    75    2
