@<TRIPOS>MOLECULE
tmp/6ef3O00.pdb
 158 149 0 0 0
SMALL
GASTEIGER

@<TRIPOS>ATOM
      1  N        158.4250  224.1730  140.5490 N.3   132  ASP132     -0.1225
      2  CA       159.7850  223.8870  140.9650 C.3   132  ASP132      0.1805
      3  C        160.2550  222.5150  140.5120 C.2   132  ASP132      0.2598
      4  O        161.4540  222.2250  140.5790 O.2   132  ASP132     -0.2718
      5  CB       159.8790  223.9730  142.4790 C.3   132  ASP132      0.1424
      6  CG       161.2980  223.8730  142.9810 C.2   132  ASP132      0.3668
      7  OD1      162.0120  224.8940  142.9380 O.co2 132  ASP132     -0.2456
      8  OD2      161.7120  222.7690  143.3850 O.co2 132  ASP132     -0.2456
      9  N        159.3310  221.6660  140.0680 N.am  133  VAL133     -0.1966
     10  CA       159.6810  220.3660  139.5500 C.3   133  VAL133      0.1727
     11  C        160.5120  220.5190  138.2820 C.2   133  VAL133      0.2616
     12  O        160.4800  221.5500  137.6030 O.2   133  VAL133     -0.2715
     13  CB       158.3890  219.5860  139.2800 C.3   133  VAL133      0.0290
     14  CG1      157.7720  220.0260  137.9880 C.3   133  VAL133      0.0023
     15  CG2      158.6140  218.1450  139.3000 C.3   133  VAL133      0.0023
     16  N        161.2330  219.4600  137.9380 N.am  134  GLY134     -0.1955
     17  CA       162.0880  219.4960  136.7730 C.3   134  GLY134      0.1869
     18  C        161.4150  219.1470  135.4700 C.2   134  GLY134      0.2309
     19  O        161.9190  218.3160  134.7140 O.2   134  GLY134     -0.2863
     20  N        159.1040  217.4100  134.2610 N.3   136  CYS136     -0.1235
     21  CA       158.3390  216.2090  133.9430 C.3   136  CYS136      0.1677
     22  C        156.8700  216.6130  133.9030 C.2   136  CYS136      0.2270
     23  O        156.1040  216.4080  134.8440 O.2   136  CYS136     -0.2867
     24  CB       158.5940  215.1160  134.9650 C.3   136  CYS136      0.0956
     25  SG       160.2500  214.4740  134.9650 S.3   136  CYS136     -0.0801
     26  N        166.2180  206.2320  140.5000 N.3   174  PRO174     -0.2102
     27  CA       166.4500  207.2440  141.5140 C.3   174  PRO174      0.1504
     28  C        166.9600  208.5380  140.9120 C.2   174  PRO174      0.2576
     29  O        167.2540  208.6410  139.7210 O.2   174  PRO174     -0.2718
     30  CB       167.4910  206.5810  142.3870 C.3   174  PRO174      0.0282
     31  CG       168.1630  205.7360  141.5290 C.3   174  PRO174      0.0208
     32  CD       167.2320  205.1900  140.5830 C.3   174  PRO174      0.0893
     33  N        167.0640  209.5450  141.7710 N.am  175  GLY175     -0.1943
     34  CA       167.4420  210.8650  141.3390 C.3   175  GLY175      0.2014
     35  C        166.4570  211.5360  140.4160 C.2   175  GLY175      0.2640
     36  O        166.7870  212.5750  139.8380 O.2   175  GLY175     -0.2714
     37  N        165.2440  211.0010  140.2880 N.am  176  THR176     -0.1936
     38  CA       164.3300  211.3930  139.2330 C.3   176  THR176      0.2028
     39  C        163.1690  212.2430  139.7140 C.2   176  THR176      0.2643
     40  O        162.5440  212.9220  138.8950 O.2   176  THR176     -0.2714
     41  CB       163.7900  210.1490  138.5390 C.3   176  THR176      0.1808
     42  OG1      164.8840  209.3300  138.1390 O.3   176  THR176     -0.2208
     43  CG2      163.0170  210.5160  137.3310 C.3   176  THR176      0.0379
     44  N        162.9000  212.2680  141.0100 N.am  177  GLY177     -0.1939
     45  CA       161.8890  213.1420  141.5580 C.3   177  GLY177      0.2014
     46  C        160.5500  212.4970  141.7730 C.2   177  GLY177      0.2639
     47  O        159.5190  212.9950  141.3230 O.2   177  GLY177     -0.2714
     48  N        160.5660  211.3830  142.4750 N.am  178  LYS178     -0.1963
     49  CA       159.3560  210.6810  142.8510 C.3   178  LYS178      0.1728
     50  C        158.7880  211.2390  144.1300 C.2   178  LYS178      0.2617
     51  O        157.5720  211.3640  144.2840 O.2   178  LYS178     -0.2715
     52  CB       159.6600  209.2130  143.0410 C.3   178  LYS178      0.0311
     53  CG       160.2300  208.5930  141.8370 C.3   178  LYS178      0.0038
     54  CD       160.5080  207.1490  141.9890 C.3   178  LYS178      0.0206
     55  CE       161.7180  206.9000  142.7940 C.3   178  LYS178      0.1093
     56  NZ       162.9220  207.3120  142.0990 N.3   178  LYS178     -0.1314
     57  N        159.6830  211.5760  145.0380 N.am  179  THR179     -0.1937
     58  CA       159.3240  212.1200  146.3250 C.3   179  THR179      0.2028
     59  C        159.0950  213.6130  146.2370 C.2   179  THR179      0.2642
     60  O        158.3170  214.1700  147.0150 O.2   179  THR179     -0.2714
     61  CB       160.4310  211.7920  147.3080 C.3   179  THR179      0.1808
     62  OG1      160.6030  210.3720  147.3740 O.3   179  THR179     -0.2208
     63  CG2      160.1060  212.3080  148.6280 C.3   179  THR179      0.0379
     64  N        159.7520  214.2580  145.2790 N.am  180  LEU180     -0.1977
     65  CA       159.5920  215.6870  145.0640 C.3   180  LEU180      0.1596
     66  C        158.1420  216.0290  144.7760 C.2   180  LEU180      0.2287
     67  O        157.4990  216.7690  145.5280 O.2   180  LEU180     -0.2864
     68  CB       160.4840  216.0980  143.9100 C.3   180  LEU180      0.0297
     69  CG       160.7760  217.5320  143.5490 C.3   180  LEU180      0.0022
     70  CD1      159.5780  218.2150  143.0090 C.3   180  LEU180      0.0001
     71  CD2      161.3190  218.2470  144.6970 C.3   180  LEU180      0.0001
     72  N        155.9850  215.5970  147.8730 N.3   183  ARG183     -0.1245
     73  CA       155.9690  216.6120  148.9110 C.3   183  ARG183      0.1563
     74  C        155.2780  217.8600  148.3960 C.2   183  ARG183      0.2260
     75  O        154.7510  218.6440  149.1890 O.2   183  ARG183     -0.2867
     76  CB       157.3730  216.9520  149.4250 C.3   183  ARG183      0.0307
     77  CG       158.1190  218.0350  148.7300 C.3   183  ARG183      0.0489
     78  CD       159.4670  218.2750  149.3470 C.3   183  ARG183      0.2205
     79  NE       160.4890  217.3180  148.9740 N.pl3 183  ARG183     -0.0865
     80  CZ       161.7430  217.3980  149.3970 C.cat 183  ARG183      0.5346
     81  NH1      162.1220  218.3790  150.2040 N.pl3 183  ARG183      0.1354
     82  NH2      162.6280  216.5070  149.0020 N.pl3 183  ARG183      0.1354
     83  N        156.0750  205.3280  151.1910 N.3   231  ASP231     -0.1225
     84  CA       157.3610  205.5080  150.5530 C.3   231  ASP231      0.1805
     85  C        158.2030  204.2820  150.8380 C.2   231  ASP231      0.2597
     86  O        158.2880  203.8380  151.9850 O.2   231  ASP231     -0.2718
     87  CB       158.0380  206.7730  151.0590 C.3   231  ASP231      0.1424
     88  CG       159.2540  207.1490  150.2460 C.2   231  ASP231      0.3668
     89  OD1      159.5800  206.4320  149.2810 O.co2 231  ASP231     -0.2456
     90  OD2      159.8890  208.1690  150.5730 O.co2 231  ASP231     -0.2456
     91  N        158.8060  203.7190  149.8010 N.am  232  GLU232     -0.1979
     92  CA       159.6510  202.5440  149.9340 C.3   232  GLU232      0.1602
     93  C        158.8640  201.3780  150.5200 C.2   232  GLU232      0.2287
     94  O        159.2790  200.7430  151.4910 O.2   232  GLU232     -0.2864
     95  CB       160.8800  202.8520  150.7800 C.3   232  GLU232      0.0415
     96  CG       161.8200  203.9120  150.2140 C.3   232  GLU232      0.1163
     97  CD       162.5310  203.4860  148.9450 C.2   232  GLU232      0.3649
     98  OE1      162.6880  202.2700  148.7260 O.co2 232  GLU232     -0.2457
     99  OE2      162.9770  204.3690  148.1850 O.co2 232  GLU232     -0.2457
    100  N        155.5940  204.6690  146.2090 N.3   276  ALA276     -0.1245
    101  CA       156.8820  205.0150  145.6420 C.3   276  ALA276      0.1562
    102  C        157.8010  203.8170  145.7470 C.2   276  ALA276      0.2260
    103  O        157.7260  203.0690  146.7200 O.2   276  ALA276     -0.2867
    104  CB       157.4940  206.1950  146.3660 C.3   276  ALA276      0.0290
    105  N        161.7030  201.8300  143.9850 N.3   278  ASN278     -0.1240
    106  CA       162.7710  201.6240  143.0210 C.3   278  ASN278      0.1653
    107  C        162.8680  200.1590  142.6160 C.2   278  ASN278      0.2266
    108  O        163.8200  199.7850  141.9260 O.2   278  ASN278     -0.2867
    109  CB       164.1040  202.0800  143.5920 C.3   278  ASN278      0.1155
    110  CG       164.1180  203.5350  143.9150 C.2   278  ASN278      0.2627
    111  OD1      163.6620  204.3560  143.1300 O.2   278  ASN278     -0.2716
    112  ND2      164.6080  203.8710  145.0980 N.am  278  ASN278     -0.0877
    113  N        165.3020  222.0770  134.0920 N.3   310  ILE310     -0.1245
    114  CA       165.8790  221.7900  135.3940 C.3   310  ILE310      0.1561
    115  C        166.9450  222.8130  135.7380 C.2   310  ILE310      0.2260
    116  O        167.0560  223.2500  136.8880 O.2   310  ILE310     -0.2867
    117  CB       166.4290  220.3630  135.4230 C.3   310  ILE310      0.0252
    118  CG1      165.2680  219.4020  135.3490 C.3   310  ILE310      0.0019
    119  CG2      167.1930  220.1390  136.6660 C.3   310  ILE310      0.0019
    120  CD1      165.6130  218.0500  135.0180 C.3   310  ILE310      0.0001
    121  N        165.7300  226.1980  137.0070 N.3   313  ILE313     -0.1231
    122  CA       165.2400  226.2260  138.3750 C.3   313  ILE313      0.1692
    123  C        166.3940  226.3940  139.3360 C.2   313  ILE313      0.2592
    124  O        166.4050  227.2960  140.1790 O.2   313  ILE313     -0.2718
    125  CB       164.4840  224.9360  138.6900 C.3   313  ILE313      0.0266
    126  CG1      163.2830  224.7720  137.7850 C.3   313  ILE313      0.0019
    127  CG2      164.0650  224.9590  140.1290 C.3   313  ILE313      0.0020
    128  CD1      162.8360  223.4120  137.6900 C.3   313  ILE313      0.0001
    129  N        167.3590  225.5010  139.2510 N.am  314  HIS314     -0.1976
    130  CA       168.4670  225.4470  140.1770 C.3   314  HIS314      0.1656
    131  C        169.5060  226.5270  139.9370 C.2   314  HIS314      0.2291
    132  O        170.4820  226.5930  140.6880 O.2   314  HIS314     -0.2864
    133  CB       169.1370  224.0920  140.0700 C.3   314  HIS314      0.0771
    134  CG       168.2670  222.9470  140.4770 C.ar  314  HIS314      0.0820
    135  ND1      168.5690  221.6390  140.1690 N.ar  314  HIS314     -0.2267
    136  CD2      167.1180  222.9080  141.1850 C.ar  314  HIS314      0.1154
    137  CE1      167.6290  220.8490  140.6510 C.ar  314  HIS314      0.1986
    138  NE2      166.7410  221.5920  141.2780 N.ar  314  HIS314     -0.2212
    139  N        167.6280  214.2000  137.4180 N.3   338  GLY338     -0.1210
    140  CA       167.4660  215.4860  138.0430 C.3   338  GLY338      0.1956
    141  C        168.5950  215.8520  138.9720 C.2   338  GLY338      0.2611
    142  O        169.1660  216.9410  138.8830 O.2   338  GLY338     -0.2717
    143  N        168.9510  214.9280  139.8480 N.am  339  ALA339     -0.1979
    144  CA       169.9350  215.2280  140.8680 C.3   339  ALA339      0.1597
    145  C        171.2990  215.4250  140.2540 C.2   339  ALA339      0.2287
    146  O        171.9650  216.4350  140.5030 O.2   339  ALA339     -0.2864
    147  CB       169.9810  214.1140  141.8790 C.3   339  ALA339      0.0319
    148  N        171.6280  218.7310  139.3010 N.3   342  ARG342     -0.1245
    149  CA       171.6870  219.6830  140.3930 C.3   342  ARG342      0.1563
    150  C        173.0680  219.6990  141.0090 C.2   342  ARG342      0.2260
    151  O        173.5380  220.7420  141.4710 O.2   342  ARG342     -0.2867
    152  CB       170.6390  219.3330  141.4320 C.3   342  ARG342      0.0307
    153  CG       170.3810  220.3870  142.4830 C.3   342  ARG342      0.0489
    154  CD       171.1850  220.1980  143.7340 C.3   342  ARG342      0.2205
    155  NE       170.9010  218.9230  144.3780 N.pl3 342  ARG342     -0.0865
    156  CZ       169.8760  218.6890  145.1910 C.cat 342  ARG342      0.5346
    157  NH1      169.0110  219.6350  145.4940 N.pl3 342  ARG342      0.1354
    158  NH2      169.7150  217.4870  145.7120 N.pl3 342  ARG342      0.1354
@<TRIPOS>BOND
     1    22    21    1
     2    22    23    2
     3    21    20    1
     4    21    24    1
     5   113   114    1
     6    19    18    2
     7    25    24    1
     8   120   118    1
     9   118   117    1
    10   114   117    1
    11   114   115    1
    12   117   119    1
    13    18    17    1
    14   115   116    2
    15    17    16    1
    16   121   122    1
    17    43    41    1
    18   139   140    1
    19    12    11    2
    20   128   126    1
    21   126   125    1
    22    16    11   am
    23    14    13    1
    24   140   141    1
    25    42    41    1
    26    11    10    1
    27   122   125    1
    28   122   123    1
    29    41    38    1
    30   125   127    1
    31   142   141    2
    32    40    39    2
    33   141   143   am
    34    38    39    1
    35    38    37    1
    36   129   123   am
    37   129   130    1
    38    13    15    1
    39    13    10    1
    40   148   149    1
    41   123   124    2
    42    10     9    1
    43    39    44   am
    44    29    28    2
    45    36    35    2
    46   143   144    1
    47   131   130    1
    48   131   132    2
    49     9     3   am
    50   133   130    1
    51   133   134    1
    52   135   134   ar
    53   135   137   ar
    54   145   146    2
    55   145   144    1
    56    37    35   am
    57   149   150    1
    58   149   152    1
    59    35    34    1
    60   134   136   ar
    61    26    32    1
    62    26    27    1
    63     3     4    2
    64     3     2    1
    65     1     2    1
    66    32    31    1
    67   137   138   ar
    68   144   147    1
    69    28    27    1
    70    28    33   am
    71     2     5    1
    72   150   151    2
    73    44    45    1
    74   136   138   ar
    75    47    46    2
    76    34    33    1
    77   152   153    1
    78    27    30    1
    79    31    30    1
    80    45    46    1
    81    46    48   am
    82    53    54    1
    83    53    52    1
    84   108   107    2
    85    54    55    1
    86    56    55    1
    87    48    49    1
    88     5     6    1
    89   153   154    1
    90   107   106    1
    91    49    52    1
    92    49    50    1
    93     7     6   ar
    94     6     8   ar
    95    70    69    1
    96   106   109    1
    97   106   105    1
    98   111   110    2
    99    69    68    1
   100    69    71    1
   101   109   110    1
   102   154   155    1
   103    68    65    1
   104   110   112   am
   105    50    51    2
   106    50    57   am
   107   155   156    2
   108    66    65    1
   109    66    67    2
   110    57    58    1
   111    65    64    1
   112   156   157    1
   113   156   158    1
   114    64    59   am
   115   101   102    1
   116   101   100    1
   117   101   104    1
   118   102   103    2
   119    59    58    1
   120    59    60    2
   121    58    61    1
   122    61    62    1
   123    61    63    1
   124    72    73    1
   125    99    97   ar
   126    74    73    1
   127    74    75    2
   128    98    97   ar
   129    77    78    1
   130    77    76    1
   131    73    76    1
   132    97    96    1
   133    79    78    1
   134    79    80    2
   135    82    80    1
   136    89    88   ar
   137    80    81    1
   138    91    92    1
   139    91    85   am
   140    92    93    1
   141    92    95    1
   142    96    95    1
   143    88    90   ar
   144    88    87    1
   145    93    94    2
   146    84    85    1
   147    84    87    1
   148    84    83    1
   149    85    86    2
