@<TRIPOS>MOLECULE
tmp/6ef3P01.pdb
 152 144 0 0 0
SMALL
GASTEIGER

@<TRIPOS>ATOM
      1  N        200.4020  215.5880  160.2390 N.3   130  ASP130     -0.1225
      2  CA       200.7420  214.2050  160.4950 C.3   130  ASP130      0.1805
      3  C        200.7620  213.4050  159.2110 C.2   130  ASP130      0.2597
      4  O        201.3170  212.3060  159.1790 O.2   130  ASP130     -0.2718
      5  CB       199.7340  213.5820  161.4430 C.3   130  ASP130      0.1424
      6  CG       200.2090  212.2700  162.0250 C.2   130  ASP130      0.3668
      7  OD1      201.3520  211.8580  161.7460 O.co2 130  ASP130     -0.2456
      8  OD2      199.4270  211.6330  162.7560 O.co2 130  ASP130     -0.2456
      9  N        200.1350  213.9290  158.1660 N.am  131  ILE131     -0.1980
     10  CA       200.2060  213.3670  156.8310 C.3   131  ILE131      0.1595
     11  C        200.4250  214.5110  155.8670 C.2   131  ILE131      0.2287
     12  O        199.9380  215.6260  156.0760 O.2   131  ILE131     -0.2864
     13  CB       198.9410  212.5950  156.4560 C.3   131  ILE131      0.0276
     14  CG1      197.7220  213.5270  156.4100 C.3   131  ILE131      0.0022
     15  CG2      198.7320  211.4720  157.4430 C.3   131  ILE131      0.0022
     16  CD1      197.3950  214.0480  155.0930 C.3   131  ILE131      0.0001
     17  N        200.9300  213.3670  152.3050 N.3   133  GLY133     -0.1210
     18  CA       201.1730  212.5720  151.1240 C.3   133  GLY133      0.1956
     19  C        200.4620  213.0930  149.8940 C.2   133  GLY133      0.2611
     20  O        200.6970  212.6170  148.7810 O.2   133  GLY133     -0.2717
     21  N        199.5950  214.0780  150.0670 N.am  134  LEU134     -0.1979
     22  CA       198.6530  214.4500  149.0350 C.3   134  LEU134      0.1596
     23  C        198.1770  215.8670  149.2600 C.2   134  LEU134      0.2287
     24  O        198.4300  216.4570  150.3120 O.2   134  LEU134     -0.2864
     25  CB       197.4900  213.4770  149.0140 C.3   134  LEU134      0.0297
     26  CG       196.7050  213.2960  150.3060 C.3   134  LEU134      0.0022
     27  CD1      195.6140  214.3300  150.4270 C.3   134  LEU134      0.0001
     28  CD2      196.1450  211.9120  150.4280 C.3   134  LEU134      0.0001
     29  N        193.2530  199.7990  149.9120 N.3   172  PRO172     -0.2102
     30  CA       193.5020  200.0000  151.3310 C.3   172  PRO172      0.1504
     31  C        194.8550  200.6130  151.5990 C.2   172  PRO172      0.2576
     32  O        195.5410  201.0630  150.6790 O.2   172  PRO172     -0.2718
     33  CB       193.4010  198.5840  151.8830 C.3   172  PRO172      0.0282
     34  CG       193.8420  197.7830  150.8400 C.3   172  PRO172      0.0208
     35  CD       193.3590  198.3770  149.5840 C.3   172  PRO172      0.0893
     36  N        195.2140  200.6980  152.8710 N.am  173  GLY173     -0.1943
     37  CA       196.5340  201.1200  153.2770 C.3   173  GLY173      0.2014
     38  C        196.8920  202.5210  152.8420 C.2   173  GLY173      0.2640
     39  O        198.0620  202.9120  152.8880 O.2   173  GLY173     -0.2714
     40  N        195.8890  203.2860  152.4330 N.am  174  THR174     -0.1936
     41  CA       196.0870  204.5720  151.8070 C.3   174  THR174      0.2028
     42  C        195.6190  205.7370  152.6660 C.2   174  THR174      0.2643
     43  O        195.9400  206.8870  152.3540 O.2   174  THR174     -0.2714
     44  CB       195.3650  204.5660  150.4820 C.3   174  THR174      0.1808
     45  OG1      195.8060  203.4420  149.7280 O.3   174  THR174     -0.2208
     46  CG2      195.6490  205.8000  149.7340 C.3   174  THR174      0.0379
     47  N        194.9050  205.4700  153.7550 N.am  175  GLY175     -0.1939
     48  CA       194.6070  206.4970  154.7250 C.3   175  GLY175      0.2014
     49  C        193.2330  207.0890  154.6130 C.2   175  GLY175      0.2639
     50  O        193.0560  208.3060  154.5720 O.2   175  GLY175     -0.2714
     51  N        192.2460  206.2130  154.5670 N.am  176  LYS176     -0.1963
     52  CA       190.8640  206.6420  154.6380 C.3   176  LYS176      0.1728
     53  C        190.4730  206.9780  156.0690 C.2   176  LYS176      0.2617
     54  O        190.1850  208.1330  156.3940 O.2   176  LYS176     -0.2715
     55  CB       189.9870  205.5380  154.0900 C.3   176  LYS176      0.0311
     56  CG       190.3310  205.1790  152.7110 C.3   176  LYS176      0.0038
     57  CD       189.3680  204.2250  152.0930 C.3   176  LYS176      0.0206
     58  CE       189.4480  202.8630  152.6590 C.3   176  LYS176      0.1093
     59  NZ       190.7200  202.2760  152.3580 N.3   176  LYS176     -0.1314
     60  N        190.5080  205.9730  156.9430 N.am  177  THR177     -0.1937
     61  CA       190.1670  206.1490  158.3430 C.3   177  THR177      0.2028
     62  C        191.0340  207.2020  158.9910 C.2   177  THR177      0.2642
     63  O        190.6010  207.8740  159.9310 O.2   177  THR177     -0.2714
     64  CB       190.3250  204.8240  159.0660 C.3   177  THR177      0.1808
     65  OG1      189.4940  203.8330  158.4550 O.3   177  THR177     -0.2208
     66  CG2      189.9460  204.9750  160.5000 C.3   177  THR177      0.0379
     67  N        192.2630  207.3400  158.5110 N.am  178  LEU178     -0.1977
     68  CA       193.1290  208.4400  158.9000 C.3   178  LEU178      0.1596
     69  C        192.4370  209.7690  158.6840 C.2   178  LEU178      0.2287
     70  O        192.2540  210.5620  159.6140 O.2   178  LEU178     -0.2864
     71  CB       194.4060  208.3640  158.0770 C.3   178  LEU178      0.0297
     72  CG       195.5610  209.3340  158.2180 C.3   178  LEU178      0.0022
     73  CD1      195.2530  210.6420  157.6420 C.3   178  LEU178      0.0001
     74  CD2      195.9400  209.5060  159.5940 C.3   178  LEU178      0.0001
     75  N        190.1500  211.0890  161.1920 N.3   181  LYS181     -0.1245
     76  CA       190.6400  211.5000  162.4940 C.3   181  LYS181      0.1561
     77  C        191.4900  212.7500  162.4210 C.2   181  LYS181      0.2260
     78  O        191.8460  213.2940  163.4690 O.2   181  LYS181     -0.2867
     79  CB       191.4200  210.3870  163.1900 C.3   181  LYS181      0.0271
     80  CG       192.6560  209.8880  162.5020 C.3   181  LYS181      0.0035
     81  CD       193.5420  209.0690  163.4410 C.3   181  LYS181      0.0206
     82  CE       193.0060  207.7140  163.7430 C.3   181  LYS181      0.1093
     83  NZ       193.0390  206.8100  162.5990 N.3   181  LYS181     -0.1314
     84  N        181.8500  203.8570  158.3730 N.3   229  ASP229     -0.1225
     85  CA       183.0500  203.2290  157.8630 C.3   229  ASP229      0.1805
     86  C        182.7190  201.7930  157.5320 C.2   229  ASP229      0.2597
     87  O        182.0360  201.1150  158.2990 O.2   229  ASP229     -0.2718
     88  CB       184.1840  203.2940  158.8770 C.3   229  ASP229      0.1424
     89  CG       185.5110  202.8890  158.3020 C.2   229  ASP229      0.3668
     90  OD1      185.5650  202.5130  157.1170 O.co2 229  ASP229     -0.2456
     91  OD2      186.5140  202.9530  159.0380 O.co2 229  ASP229     -0.2456
     92  N        183.2130  201.3390  156.3910 N.am  230  GLU230     -0.1979
     93  CA       182.9610  199.9960  155.9110 C.3   230  GLU230      0.1602
     94  C        181.4670  199.7440  155.8270 C.2   230  GLU230      0.2287
     95  O        180.9390  198.7540  156.3350 O.2   230  GLU230     -0.2864
     96  CB       183.6480  198.9890  156.7990 C.3   230  GLU230      0.0415
     97  CG       185.1320  199.1600  156.7800 C.3   230  GLU230      0.1163
     98  CD       185.8290  198.1500  157.6240 C.2   230  GLU230      0.3649
     99  OE1      185.1190  197.3980  158.3090 O.co2 230  GLU230     -0.2457
    100  OE2      187.0720  198.0980  157.6010 O.co2 230  GLU230     -0.2457
    101  N        185.9540  199.9640  150.6340 N.3   276  ASN276     -0.1240
    102  CA       187.0740  199.4520  149.8520 C.3   276  ASN276      0.1653
    103  C        186.6960  198.9620  148.4740 C.2   276  ASN276      0.2266
    104  O        187.5930  198.7880  147.6470 O.2   276  ASN276     -0.2867
    105  CB       187.7590  198.2850  150.5630 C.3   276  ASN276      0.1155
    106  CG       188.3750  198.6780  151.8710 C.2   276  ASN276      0.2627
    107  OD1      188.8920  199.7810  152.0270 O.2   276  ASN276     -0.2716
    108  ND2      188.3560  197.7560  152.8200 N.am  276  ASN276     -0.0877
    109  N        205.8370  211.2630  152.4320 N.3   308  ILE308     -0.1245
    110  CA       205.2830  210.3470  153.4140 C.3   308  ILE308      0.1561
    111  C        206.3300  209.9700  154.4460 C.2   308  ILE308      0.2260
    112  O        206.2000  210.3010  155.6290 O.2   308  ILE308     -0.2867
    113  CB       204.6570  209.1320  152.7150 C.3   308  ILE308      0.0252
    114  CG1      203.2530  209.5230  152.2920 C.3   308  ILE308      0.0019
    115  CG2      204.5560  207.9550  153.6050 C.3   308  ILE308      0.0019
    116  CD1      202.5840  208.6510  151.2970 C.3   308  ILE308      0.0001
    117  N        207.9870  212.4360  157.1990 N.3   311  ILE311     -0.1231
    118  CA       207.3500  212.7700  158.4650 C.3   311  ILE311      0.1692
    119  C        207.3190  211.5740  159.3970 C.2   311  ILE311      0.2592
    120  O        207.3690  211.7410  160.6190 O.2   311  ILE311     -0.2718
    121  CB       205.9400  213.3320  158.2450 C.3   311  ILE311      0.0266
    122  CG1      205.0790  212.3770  157.4290 C.3   311  ILE311      0.0019
    123  CG2      206.0220  214.6550  157.5590 C.3   311  ILE311      0.0020
    124  CD1      203.6480  212.7460  157.3840 C.3   311  ILE311      0.0001
    125  N        207.2360  210.3660  158.8500 N.am  312  HIS312     -0.1976
    126  CA       207.4760  209.1930  159.6690 C.3   312  HIS312      0.1656
    127  C        208.8890  209.1900  160.2110 C.2   312  HIS312      0.2291
    128  O        209.1330  208.6760  161.3060 O.2   312  HIS312     -0.2864
    129  CB       207.2410  207.9370  158.8630 C.3   312  HIS312      0.0771
    130  CG       205.8190  207.7310  158.4660 C.ar  312  HIS312      0.0820
    131  ND1      204.8640  207.2780  159.3430 N.ar  312  HIS312     -0.2267
    132  CD2      205.1890  207.9050  157.2830 C.ar  312  HIS312      0.1154
    133  CE1      203.7060  207.1840  158.7200 C.ar  312  HIS312      0.1986
    134  NE2      203.8750  207.5590  157.4680 N.ar  312  HIS312     -0.2212
    135  N        201.0810  203.8600  151.5500 N.3   336  GLY336     -0.1210
    136  CA       201.6680  204.6010  152.6300 C.3   336  GLY336      0.1956
    137  C        201.7980  203.8250  153.9140 C.2   336  GLY336      0.2611
    138  O        202.5050  204.2790  154.8180 O.2   336  GLY336     -0.2717
    139  N        201.1490  202.6730  154.0140 N.am  337  ALA337     -0.1979
    140  CA       201.1360  201.9130  155.2450 C.3   337  ALA337      0.1597
    141  C        202.1970  200.8360  155.2700 C.2   337  ALA337      0.2287
    142  O        202.5840  200.3910  156.3540 O.2   337  ALA337     -0.2864
    143  CB       199.7720  201.2890  155.4510 C.3   337  ALA337      0.0319
    144  N        205.1240  202.6880  157.1080 N.3   340  GLN340     -0.1245
    145  CA       205.1740  202.7190  158.5590 C.3   340  GLN340      0.1566
    146  C        205.8100  201.4680  159.1270 C.2   340  GLN340      0.2260
    147  O        206.4540  201.5200  160.1800 O.2   340  GLN340     -0.2867
    148  CB       203.7710  202.8820  159.0970 C.3   340  GLN340      0.0367
    149  CG       203.6630  202.9800  160.5720 C.3   340  GLN340      0.0905
    150  CD       202.2680  203.3440  161.0110 C.2   340  GLN340      0.2608
    151  OE1      201.3690  203.4990  160.1870 O.2   340  GLN340     -0.2717
    152  NE2      202.0760  203.4900  162.3130 N.am  340  GLN340     -0.0878
@<TRIPOS>BOND
     1   104   103    2
     2   103   102    1
     3    20    19    2
     4    25    22    1
     5    25    26    1
     6    22    23    1
     7    22    21    1
     8    23    24    2
     9    35    29    1
    10    35    34    1
    11    45    44    1
    12    46    44    1
    13   102   105    1
    14   102   101    1
    15    19    21   am
    16    19    18    1
    17    29    30    1
    18    26    27    1
    19    26    28    1
    20    44    41    1
    21   105   106    1
    22    32    31    2
    23    34    33    1
    24    18    17    1
    25   116   114    1
    26    30    31    1
    27    30    33    1
    28   135   136    1
    29    31    36   am
    30    41    40    1
    31    41    42    1
    32   106   107    2
    33   106   108   am
    34    57    58    1
    35    57    56    1
    36   114   113    1
    37    43    42    2
    38    59    58    1
    39   109   110    1
    40    40    38   am
    41   136   137    1
    42    42    47   am
    43    56    55    1
    44   113   110    1
    45   113   115    1
    46    38    39    2
    47    38    37    1
    48    36    37    1
    49   110   111    1
    50    47    48    1
    51   137   139   am
    52   137   138    2
    53   139   140    1
    54    55    52    1
    55   111   112    2
    56    51    49   am
    57    51    52    1
    58    50    49    2
    59    49    48    1
    60    52    53    1
    61    16    14    1
    62   140   141    1
    63   140   143    1
    64   141   142    2
    65    94    93    1
    66    94    95    2
    67    11    12    2
    68    11    10    1
    69    93    92    1
    70    93    96    1
    71    53    54    2
    72    53    60   am
    73    92    86   am
    74    14    13    1
    75    13    10    1
    76    13    15    1
    77    97    96    1
    78    97    98    1
    79    10     9    1
    80    60    61    1
    81   144   145    1
    82    90    89   ar
    83   117   118    1
    84   132   134   ar
    85   132   130   ar
    86   124   122    1
    87   122   121    1
    88   134   133   ar
    89    86    85    1
    90    86    87    2
    91   123   121    1
    92   100    98   ar
    93    98    99   ar
    94    73    72    1
    95    85    84    1
    96    85    88    1
    97    71    72    1
    98    71    68    1
    99     9     3   am
   100    72    74    1
   101   121   118    1
   102    89    88    1
   103    89    91   ar
   104    61    62    1
   105    61    64    1
   106    65    64    1
   107   118   119    1
   108   130   129    1
   109   130   131   ar
   110    67    68    1
   111    67    62   am
   112   145   148    1
   113   145   146    1
   114    69    68    1
   115    69    70    2
   116   133   131   ar
   117   125   119   am
   118   125   126    1
   119   129   126    1
   120    62    63    2
   121    64    66    1
   122   148   149    1
   123   146   147    2
   124     4     3    2
   125     3     2    1
   126   119   120    2
   127   126   127    1
   128   151   150    2
   129   127   128    2
   130     1     2    1
   131     2     5    1
   132   149   150    1
   133   150   152   am
   134    75    76    1
   135     5     6    1
   136     7     6   ar
   137     6     8   ar
   138    77    76    1
   139    77    78    2
   140    76    79    1
   141    80    79    1
   142    80    81    1
   143    83    82    1
   144    81    82    1
