@<TRIPOS>MOLECULE
tmp/6ef3S00.pdb
 132 127 0 0 0
SMALL
GASTEIGER

@<TRIPOS>ATOM
      1  N        135.4530  145.4560  156.0410 N.3   115  ILE115     -0.1231
      2  CA       135.7120  146.4460  155.0120 C.3   115  ILE115      0.1692
      3  C        136.7310  145.8990  154.0170 C.2   115  ILE115      0.2593
      4  O        137.4160  144.8980  154.2630 O.2   115  ILE115     -0.2718
      5  CB       136.1900  147.7710  155.6200 C.3   115  ILE115      0.0266
      6  CG1      137.4380  147.5620  156.4800 C.3   115  ILE115      0.0019
      7  CG2      135.0780  148.3670  156.4380 C.3   115  ILE115      0.0020
      8  CD1      138.1330  148.8050  156.7990 C.3   115  ILE115      0.0001
      9  N        136.8390  146.5800  152.8800 N.am  116  GLY116     -0.1942
     10  CA       137.5960  146.0860  151.7580 C.3   116  GLY116      0.2014
     11  C        138.9850  146.6850  151.6810 C.2   116  GLY116      0.2639
     12  O        139.4310  147.4350  152.5450 O.2   116  GLY116     -0.2714
     13  N        139.6750  146.3060  150.6130 N.am  117  GLY117     -0.1939
     14  CA       140.9230  146.9250  150.2240 C.3   117  GLY117      0.2014
     15  C        142.1470  146.0720  150.4640 C.2   117  GLY117      0.2638
     16  O        143.0380  146.0140  149.6120 O.2   117  GLY117     -0.2714
     17  N        142.1930  145.3890  151.6070 N.am  118  LEU118     -0.1977
     18  CA       143.4420  144.8530  152.1280 C.3   118  LEU118      0.1596
     19  C        143.1810  143.5740  152.9030 C.2   118  LEU118      0.2287
     20  O        142.3340  143.5590  153.7990 O.2   118  LEU118     -0.2864
     21  CB       144.1100  145.8940  153.0290 C.3   118  LEU118      0.0297
     22  CG       144.5600  147.1990  152.3750 C.3   118  LEU118      0.0022
     23  CD1      145.0970  148.1700  153.4050 C.3   118  LEU118      0.0001
     24  CD2      145.5990  146.9300  151.3230 C.3   118  LEU118      0.0001
     25  N        149.3050  159.1040  152.5300 N.3   156  PRO156     -0.2102
     26  CA       148.0960  159.5830  153.1950 C.3   156  PRO156      0.1504
     27  C        146.8500  159.1000  152.4810 C.2   156  PRO156      0.2576
     28  O        146.8950  158.4730  151.4230 O.2   156  PRO156     -0.2718
     29  CB       148.2090  161.1010  153.1120 C.3   156  PRO156      0.0282
     30  CG       149.5950  161.3740  152.8600 C.3   156  PRO156      0.0208
     31  CD       150.0890  160.2380  152.0230 C.3   156  PRO156      0.0893
     32  N        145.7200  159.4230  153.0890 N.am  157  GLY157     -0.1943
     33  CA       144.4290  159.1790  152.4920 C.3   157  GLY157      0.2014
     34  C        144.1570  157.7200  152.2180 C.2   157  GLY157      0.2640
     35  O        143.8570  157.3460  151.0800 O.2   157  GLY157     -0.2714
     36  N        144.2440  156.8910  153.2600 N.am  158  THR158     -0.1936
     37  CA       144.1470  155.4490  153.1120 C.3   158  THR158      0.2028
     38  C        143.2390  154.7700  154.1160 C.2   158  THR158      0.2643
     39  O        142.9740  153.5740  153.9500 O.2   158  THR158     -0.2714
     40  CB       145.5260  154.8100  153.2310 C.3   158  THR158      0.1808
     41  OG1      146.0170  154.9870  154.5620 O.3   158  THR158     -0.2208
     42  CG2      146.4580  155.4730  152.2850 C.3   158  THR158      0.0379
     43  N        142.7720  155.4680  155.1510 N.am  159  GLY159     -0.1939
     44  CA       141.9020  154.8490  156.1260 C.3   159  GLY159      0.2014
     45  C        142.5450  153.6620  156.8050 C.2   159  GLY159      0.2639
     46  O        142.1850  152.5120  156.5430 O.2   159  GLY159     -0.2714
     47  N        143.5450  153.9370  157.6350 N.am  160  LYS160     -0.1963
     48  CA       144.1700  152.9330  158.4740 C.3   160  LYS160      0.1728
     49  C        143.8480  153.1170  159.9430 C.2   160  LYS160      0.2617
     50  O        144.0840  152.2010  160.7350 O.2   160  LYS160     -0.2715
     51  CB       145.6850  152.9620  158.2780 C.3   160  LYS160      0.0311
     52  CG       146.3520  154.2520  158.6720 C.3   160  LYS160      0.0038
     53  CD       147.8550  154.1760  158.4800 C.3   160  LYS160      0.0206
     54  CE       148.2720  154.3750  157.0490 C.3   160  LYS160      0.1093
     55  NZ       148.0540  155.7660  156.6300 N.3   160  LYS160     -0.1314
     56  N        143.3410  154.2830  160.3260 N.am  161  THR161     -0.1937
     57  CA       142.9340  154.4970  161.7010 C.3   161  THR161      0.2028
     58  C        141.8640  153.5030  162.1050 C.2   161  THR161      0.2642
     59  O        141.8710  152.9880  163.2270 O.2   161  THR161     -0.2714
     60  CB       142.4300  155.9260  161.8630 C.3   161  THR161      0.1808
     61  OG1      143.4830  156.8460  161.5490 O.3   161  THR161     -0.2208
     62  CG2      141.9440  156.1610  163.2770 C.3   161  THR161      0.0379
     63  N        140.9420  153.2140  161.1960 N.am  162  LEU162     -0.1977
     64  CA       139.8940  152.2400  161.4810 C.3   162  LEU162      0.1596
     65  C        140.4290  150.8220  161.3960 C.2   162  LEU162      0.2287
     66  O        139.9170  149.9180  162.0660 O.2   162  LEU162     -0.2864
     67  CB       138.7240  152.4210  160.5130 C.3   162  LEU162      0.0297
     68  CG       138.8290  151.8720  159.0940 C.3   162  LEU162      0.0022
     69  CD1      137.4950  152.0060  158.4400 C.3   162  LEU162      0.0001
     70  CD2      139.8700  152.5990  158.3260 C.3   162  LEU162      0.0001
     71  N        148.1840  158.2020  166.1240 N.3   213  ASP213     -0.1239
     72  CA       148.5110  158.7630  164.8290 C.3   213  ASP213      0.1674
     73  C        149.1590  160.1270  165.0030 C.2   213  ASP213      0.2266
     74  O        149.3320  160.6250  166.1160 O.2   213  ASP213     -0.2867
     75  CB       147.2550  158.8580  163.9670 C.3   213  ASP213      0.1410
     76  CG       146.8130  157.5270  163.4230 C.2   213  ASP213      0.3668
     77  OD1      147.6780  156.6600  163.2090 O.co2 213  ASP213     -0.2456
     78  OD2      145.5990  157.3600  163.1880 O.co2 213  ASP213     -0.2456
     79  N        135.7920  148.5800  147.4400 N.3   292  ILE292     -0.1245
     80  CA       135.5900  149.7880  148.2280 C.3   292  ILE292      0.1561
     81  C        134.2490  150.4270  147.8860 C.2   292  ILE292      0.2260
     82  O        133.4390  150.7200  148.7720 O.2   292  ILE292     -0.2867
     83  CB       136.7570  150.7590  148.0060 C.3   292  ILE292      0.0252
     84  CG1      138.0450  150.1720  148.5630 C.3   292  ILE292      0.0019
     85  CG2      136.4760  152.0090  148.7090 C.3   292  ILE292      0.0019
     86  CD1      139.3200  150.8000  148.0390 C.3   292  ILE292      0.0001
     87  N        131.1280  149.4580  149.3320 N.3   295  ILE295     -0.1231
     88  CA       130.9200  149.7490  150.7410 C.3   295  ILE295      0.1692
     89  C        130.1310  151.0400  150.8830 C.2   295  ILE295      0.2592
     90  O        128.9980  151.0410  151.3780 O.2   295  ILE295     -0.2718
     91  CB       132.2560  149.8540  151.4870 C.3   295  ILE295      0.0266
     92  CG1      133.0320  148.5470  151.3760 C.3   295  ILE295      0.0019
     93  CG2      131.9950  150.2020  152.9300 C.3   295  ILE295      0.0020
     94  CD1      134.4610  148.6370  151.7930 C.3   295  ILE295      0.0001
     95  N        130.7240  152.1480  150.4410 N.am  296  HIS296     -0.1976
     96  CA       130.0830  153.4460  150.6230 C.3   296  HIS296      0.1656
     97  C        128.8230  153.5560  149.7760 C.2   296  HIS296      0.2291
     98  O        127.7310  153.8060  150.2980 O.2   296  HIS296     -0.2864
     99  CB       131.0570  154.5650  150.2720 C.3   296  HIS296      0.0771
    100  CG       132.2440  154.6420  151.1700 C.ar  296  HIS296      0.0820
    101  ND1      133.2960  155.4960  150.9300 N.ar  296  HIS296     -0.2267
    102  CD2      132.5580  153.9660  152.2970 C.ar  296  HIS296      0.1154
    103  CE1      134.2060  155.3470  151.8750 C.ar  296  HIS296      0.1986
    104  NE2      133.7820  154.4240  152.7170 N.ar  296  HIS296     -0.2212
    105  N        143.1280  156.5130  148.2650 N.3   320  GLY320     -0.1210
    106  CA       142.1150  155.7240  148.9370 C.3   320  GLY320      0.1956
    107  C        141.0060  156.5210  149.5820 C.2   320  GLY320      0.2611
    108  O        139.8240  156.2390  149.3700 O.2   320  GLY320     -0.2717
    109  N        141.3670  157.5260  150.3640 N.am  321  ALA321     -0.1979
    110  CA       140.3840  158.2240  151.1780 C.3   321  ALA321      0.1597
    111  C        139.5960  159.2680  150.4040 C.2   321  ALA321      0.2287
    112  O        138.8050  159.9990  151.0120 O.2   321  ALA321     -0.2864
    113  CB       141.0650  158.8890  152.3710 C.3   321  ALA321      0.0319
    114  N        137.2020  158.6280  148.5170 N.3   323  ILE323     -0.1231
    115  CA       136.0530  157.8780  148.0610 C.3   323  ILE323      0.1692
    116  C        134.7950  158.2210  148.8400 C.2   323  ILE323      0.2591
    117  O        133.7020  158.1960  148.2660 O.2   323  ILE323     -0.2718
    118  CB       136.3560  156.3760  148.1480 C.3   323  ILE323      0.0266
    119  CG1      137.4710  156.0240  147.1700 C.3   323  ILE323      0.0019
    120  CG2      135.1130  155.5780  147.8660 C.3   323  ILE323      0.0020
    121  CD1      138.0550  154.6960  147.3740 C.3   323  ILE323      0.0001
    122  N        134.9160  158.5600  150.1200 N.am  324  ARG324     -0.1980
    123  CA       133.8030  159.1960  150.8110 C.3   324  ARG324      0.1597
    124  C        133.3820  160.4640  150.0880 C.2   324  ARG324      0.2287
    125  O        132.2130  160.8600  150.1470 O.2   324  ARG324     -0.2864
    126  CB       134.1850  159.5120  152.2570 C.3   324  ARG324      0.0334
    127  CG       133.0440  160.0290  153.0880 C.3   324  ARG324      0.0492
    128  CD       133.3780  160.0610  154.5730 C.3   324  ARG324      0.2205
    129  NE       133.8180  158.7660  155.0920 N.pl3 324  ARG324     -0.0865
    130  CZ       133.0950  157.6440  155.0770 C.cat 324  ARG324      0.5346
    131  NH1      131.8770  157.6310  154.5420 N.pl3 324  ARG324      0.1354
    132  NH2      133.6050  156.5260  155.5900 N.pl3 324  ARG324      0.1354
@<TRIPOS>BOND
     1   119   121    1
     2   119   118    1
     3    79    80    1
     4   120   118    1
     5    81    80    1
     6    81    82    2
     7    83    80    1
     8    83    84    1
     9    83    85    1
    10    86    84    1
    11   115   118    1
    12   115   114    1
    13   115   116    1
    14   105   106    1
    15   117   116    2
    16   116   122   am
    17   106   107    1
    18    87    88    1
    19   108   107    2
    20   107   109   am
    21    16    15    2
    22    97    98    2
    23    97    96    1
    24   124   125    2
    25   124   123    1
    26   122   123    1
    27    14    15    1
    28    14    13    1
    29    99    96    1
    30    99   100    1
    31   109   110    1
    32   111   112    2
    33   111   110    1
    34    95    96    1
    35    95    89   am
    36    15    17   am
    37    13    11   am
    38    88    89    1
    39    88    91    1
    40   123   126    1
    41    89    90    2
    42   101   100   ar
    43   101   103   ar
    44    35    34    2
    45   100   102   ar
    46   110   113    1
    47    24    22    1
    48    92    91    1
    49    92    94    1
    50    28    27    2
    51    91    93    1
    52    17    18    1
    53    11    10    1
    54    11    12    2
    55    10     9    1
    56   103   104   ar
    57    31    25    1
    58    31    30    1
    59    18    19    1
    60    18    21    1
    61    34    33    1
    62    34    36   am
    63   126   127    1
    64    42    40    1
    65   102   104   ar
    66    22    21    1
    67    22    23    1
    68    27    32   am
    69    27    26    1
    70    33    32    1
    71    25    26    1
    72    30    29    1
    73     9     3   am
    74    19    20    2
    75   127   128    1
    76    29    26    1
    77    37    40    1
    78    37    36    1
    79    37    38    1
    80    40    41    1
    81    39    38    2
    82     3     4    2
    83     3     2    1
    84    38    43   am
    85   131   130    1
    86   128   129    1
    87     2     5    1
    88     2     1    1
    89   130   129    2
    90   130   132    1
    91    43    44    1
    92     5     7    1
    93     5     6    1
    94    44    45    1
    95     6     8    1
    96    46    45    2
    97    55    54    1
    98    45    47   am
    99    54    53    1
   100    47    48    1
   101    51    48    1
   102    51    52    1
   103    70    68    1
   104    69    68    1
   105    48    49    1
   106    53    52    1
   107    68    67    1
   108    49    56   am
   109    49    50    2
   110    56    57    1
   111    67    64    1
   112    63    64    1
   113    63    58   am
   114    65    64    1
   115    65    66    2
   116    61    60    1
   117    57    60    1
   118    57    58    1
   119    60    62    1
   120    58    59    2
   121    78    76   ar
   122    77    76   ar
   123    76    75    1
   124    75    72    1
   125    72    73    1
   126    72    71    1
   127    73    74    2
